data_image0
_chemical_formula_structural       Co2H28C40N2O14
_chemical_formula_sum              "Co2 H28 C40 N2 O14"
_cell_length_a       6.955729398172766
_cell_length_b       9.511902431805089
_cell_length_c       13.088873369262773
_cell_angle_alpha    92.95026515708366
_cell_angle_beta     101.1745933711154
_cell_angle_gamma    94.99840045247474

_space_group_name_H-M_alt    "P 1"
_space_group_IT_number       1

loop_
  _space_group_symop_operation_xyz
  'x, y, z'

loop_
  _atom_site_type_symbol
  _atom_site_label
  _atom_site_symmetry_multiplicity
  _atom_site_fract_x
  _atom_site_fract_y
  _atom_site_fract_z
  _atom_site_occupancy
  Co  Co1       1.0  0.6840166570048113  0.9670054570285839  0.6077680051354548  1.0000
  Co  Co2       1.0  0.31599273474417094  0.0329861564050731  0.39223638273713146  1.0000
  H   H1        1.0  0.6931414947046834  0.5164393579274742  0.9572050081666391  1.0000
  H   H2        1.0  0.30685441029432065  0.4835712820784364  0.04279968799531989  1.0000
  H   H3        1.0  0.6598914693396694  0.5696182543678461  0.14024431878343793  1.0000
  H   H4        1.0  0.3401002496712593  0.43038285084823236  0.8597611047809225  1.0000
  H   H5        1.0  0.9467484744956141  0.19862091854717784  0.2314657614836264  1.0000
  H   H6        1.0  0.053249941149026356  0.8013781586856934  0.7685295074171351  1.0000
  H   H7        1.0  0.9756452676316414  0.14548239478080657  0.04768487954189029  1.0000
  H   H8        1.0  0.024357527504186273  0.854527263226913  0.9523112530881976  1.0000
  H   H9        1.0  0.8284189309139194  0.6516770748496794  0.3023539757257225  1.0000
  H   H10       1.0  0.17159108797916642  0.34831985192277404  0.697647641506059  1.0000
  H   H11       1.0  0.7122871258607262  0.5085146416817565  0.5919792074876754  1.0000
  H   H12       1.0  0.28772325572635543  0.491484383018843  0.4080248258433343  1.0000
  H   H13       1.0  0.7492890800695519  0.20422940451776125  0.34424553637767025  1.0000
  H   H14       1.0  0.2507053032064873  0.795770674349917  0.6557562732591508  1.0000
  H   H15       1.0  0.4024779534211688  0.12867666221783478  0.707136890267897  1.0000
  H   H16       1.0  0.5975226938424855  0.8713160276628572  0.29286366466011066  1.0000
  H   H17       1.0  0.33603030767118713  0.15821528064569174  0.8852581989406902  1.0000
  H   H18       1.0  0.6639624090032755  0.841773179182489  0.11474066536775498  1.0000
  H   H19       1.0  0.6824844684695037  0.8081135303621065  0.9652797855491928  1.0000
  H   H20       1.0  0.31750810332633966  0.19187387156481608  0.03471901995602171  1.0000
  H   H21       1.0  0.7248357326565297  0.7895706598434343  0.7827256237969424  1.0000
  H   H22       1.0  0.275155736480805  0.21041883913051856  0.21727545995902636  1.0000
  H   H23       1.0  0.7591168752211245  0.3367297208161729  0.7392328495329539  1.0000
  H   H24       1.0  0.24086593686468663  0.6632830747271681  0.2607645942852558  1.0000
  H   H25       1.0  0.9628975349683132  0.0997082472897191  0.7434111168199283  1.0000
  H   H26       1.0  0.037109494780082686  0.9003109335915838  0.25658582073624814  1.0000
  H   H27       1.0  0.043298399348771  0.07940759889855539  0.637301444864683  1.0000
  H   H28       1.0  0.9567025201109585  0.9205988785661386  0.36269513967146594  1.0000
  C   C1        1.0  0.8614258276722851  0.29515282412352656  0.8825062187269456  1.0000
  C   C2        1.0  0.13855646126950918  0.7048663000718917  0.11749373855496972  1.0000
  C   C3        1.0  0.8408225187998256  0.329191499045791  0.9913679783023214  1.0000
  C   C4        1.0  0.15916646101947407  0.6708128376930629  0.008629684332333897  1.0000
  C   C5        1.0  0.7502399606330812  0.4482867985054212  0.01790585785533236  1.0000
  C   C6        1.0  0.24975233689745116  0.551719631965696  0.9820952627397334  1.0000
  C   C7        1.0  0.7338845273980538  0.4784956266030419  0.12063528149808178  1.0000
  C   C8        1.0  0.26611036345060063  0.5215076080940406  0.8793690030411982  1.0000
  C   C9        1.0  0.8067619679481697  0.3908094281712166  0.19955707966947506  1.0000
  C   C10       1.0  0.19323082940901057  0.6091895859559525  0.8004452994798826  1.0000
  C   C11       1.0  0.8927678653287431  0.26965137748580753  0.17190317610442213  1.0000
  C   C12       1.0  0.10722903733378786  0.7303466171321983  0.8280949608016217  1.0000
  C   C13       1.0  0.9098390926085785  0.23965610214982994  0.06918600289697707  1.0000
  C   C14       1.0  0.09015569999618828  0.7603482500297429  0.9308106788030559  1.0000
  C   C15       1.0  0.7883276549590474  0.42377295802310017  0.30838969832981183  1.0000
  C   C16       1.0  0.2116693692647402  0.5762250068042931  0.6916122693974744  1.0000
  C   C17       1.0  0.7980026188211082  0.5641302488607421  0.34930893295417326  1.0000
  C   C18       1.0  0.2020062721063454  0.43586987456686177  0.6506896581818682  1.0000
  C   C19       1.0  0.7728183936247673  0.5947935709234853  0.4512717711635972  1.0000
  C   C20       1.0  0.22719589976454557  0.40520338828293484  0.5487264287923567  1.0000
  C   C21       1.0  0.7363802886634118  0.48452068646255225  0.5135466359649428  1.0000
  C   C22       1.0  0.2636375159402462  0.5154794124611538  0.48645661308316335  1.0000
  C   C23       1.0  0.7285611024753322  0.34437559629377285  0.47409014960675233  1.0000
  C   C24       1.0  0.27145398923871505  0.6556255408945828  0.5259151810403965  1.0000
  C   C25       1.0  0.7566300066616308  0.31442337929779984  0.3727537286344927  1.0000
  C   C26       1.0  0.24337316872936293  0.6855767048565935  0.6272489080931579  1.0000
  C   C27       1.0  0.7783609627218271  0.7450857750443305  0.4920539489657188  1.0000
  C   C28       1.0  0.22165647719806714  0.25491441325121394  0.507937807618653  1.0000
  C   C29       1.0  0.6867899540145217  0.22695378938782076  0.5389646666932251  1.0000
  C   C30       1.0  0.31321776330744916  0.773046261661186  0.461042980565324  1.0000
  C   C31       1.0  0.4628401806201055  0.06117265786195957  0.7675732660765962  1.0000
  C   C32       1.0  0.5371579142039593  0.9388126437031585  0.2324244408875273  1.0000
  C   C33       1.0  0.42894705119791615  0.07733714252375277  0.8682957984310776  1.0000
  C   C34       1.0  0.5710467205054287  0.9226481385236407  0.1317037934803764  1.0000
  C   C35       1.0  0.5119201510335216  0.9904175170455928  0.9453536073984665  1.0000
  C   C36       1.0  0.4880752795254324  0.009568810867939698  0.0546477134931891  1.0000
  C   C37       1.0  0.617499502134102  0.8831510165230368  0.9121233572006135  1.0000
  C   C38       1.0  0.3824942452569857  0.11683427048247805  0.0878754685465921  1.0000
  C   C39       1.0  0.6435377781484776  0.8720303921604254  0.8098413417911277  1.0000
  C   C40       1.0  0.35645604217936727  0.1279548769707262  0.19015978244882353  1.0000
  N   N1        1.0  0.5733193236842666  0.9622535529532074  0.7384783707026301  1.0000
  N   N2        1.0  0.4266762031288067  0.037733844777825695  0.26152147666377357  1.0000
  O   O1        1.0  0.9580011230088418  0.19842882834063852  0.8589712858958408  1.0000
  O   O2        1.0  0.04200006189587666  0.8015797708847001  0.1410246500825352  1.0000
  O   O3        1.0  0.7668484394511524  0.3765359794586232  0.8141607753835559  1.0000
  O   O4        1.0  0.23313794804491283  0.6234704594042667  0.18583826148913127  1.0000
  O   O5        1.0  0.7144373845058  0.7651497602819572  0.5774723725661632  1.0000
  O   O6        1.0  0.28557573129849356  0.23485150114586148  0.4225167307833005  1.0000
  O   O7        1.0  0.8345405168201127  0.8460387935135998  0.4428379763892424  1.0000
  O   O8        1.0  0.1654731950649477  0.1539561213877788  0.5571509119892539  1.0000
  O   O9        1.0  0.6429829304331279  0.10020496132932519  0.49445531603547727  1.0000
  O   O10       1.0  0.35704352240173876  0.8997929913298319  0.5055532394824597  1.0000
  O   O11       1.0  0.6939142056246155  0.24697778767993836  0.6358252334534245  1.0000
  O   O12       1.0  0.30606372913312196  0.7530296561325186  0.3641791644456661  1.0000
  O   O13       1.0  0.9667856554492786  0.029690590336827  0.6847719450271441  1.0000
  O   O14       1.0  0.033221641733881244  0.970328525005122  0.3152334203357655  1.0000
