data_image0
_chemical_formula_structural       Zn4H32C40Br8N8
_chemical_formula_sum              "Zn4 H32 C40 Br8 N8"
_cell_length_a       4.952303380000548
_cell_length_b       12.922348782000391
_cell_length_c       17.793318663000843
_cell_angle_alpha    89.99997980419926
_cell_angle_beta     90.00003782255281
_cell_angle_gamma    90.00002278612865

_space_group_name_H-M_alt    "P 1"
_space_group_IT_number       1

loop_
  _space_group_symop_operation_xyz
  'x, y, z'

loop_
  _atom_site_type_symbol
  _atom_site_label
  _atom_site_symmetry_multiplicity
  _atom_site_fract_x
  _atom_site_fract_y
  _atom_site_fract_z
  _atom_site_occupancy
  Zn  Zn1       1.0  0.9398318133076062  0.2500017359468528  0.3901836178358593  1.0000
  Zn  Zn2       1.0  0.4398281205112939  0.7499998832222871  0.10981590453920381  1.0000
  Zn  Zn3       1.0  0.0601708721102412  0.7499997189746069  0.6098164596090925  1.0000
  Zn  Zn4       1.0  0.5601765841663636  0.2499992501404051  0.8901824868801285  1.0000
  H   H1        1.0  0.7023079871143737  0.41008332347740856  0.2876276608835369  1.0000
  H   H2        1.0  0.2023164289912245  0.5899159359370217  0.2123751778532394  1.0000
  H   H3        1.0  0.2976847589621557  0.9100836114029961  0.712373503780789  1.0000
  H   H4        1.0  0.7976881187170264  0.0899153959057841  0.7876249363893281  1.0000
  H   H5        1.0  0.29768662125360384  0.5899165837369935  0.7123729785693486  1.0000
  H   H6        1.0  0.7976902949506551  0.4100839712785103  0.7876248995923589  1.0000
  H   H7        1.0  0.7023078301431412  0.08991474810484593  0.2876276976807404  1.0000
  H   H8        1.0  0.20230850891065444  0.9100829636031308  0.2123734550291445  1.0000
  H   H9        1.0  0.39135360471200203  0.4178744805568329  0.17990853884199257  1.0000
  H   H10       1.0  0.8913534643163673  0.5821240354041705  0.3200920961845668  1.0000
  H   H11       1.0  0.6086431875288626  0.917875534721972  0.8200920620231217  1.0000
  H   H12       1.0  0.108647037226099  0.0821242160406825  0.6799068958310883  1.0000
  H   H13       1.0  0.6086450421795248  0.5821238789517978  0.8200915386028387  1.0000
  H   H14       1.0  0.10864518257457692  0.4178750979578894  0.6799068572427629  1.0000
  H   H15       1.0  0.3913534401019946  0.08212437249244428  0.1799091394386991  1.0000
  H   H16       1.0  0.8913475711390788  0.9178749173213487  0.3200909335783564  1.0000
  H   H17       1.0  0.1121864703951232  0.4180524659275662  0.0991523510885202  1.0000
  H   H18       1.0  0.612188487729263  0.5819483267009105  0.40084878049041356  1.0000
  H   H19       1.0  0.8878083027563548  0.9180504263765243  0.9008482497358088  1.0000
  H   H20       1.0  0.38779989806512566  0.08194859542422249  0.5991485255380837  1.0000
  H   H21       1.0  0.8878101572342842  0.5819474412872978  0.9008471643471908  1.0000
  H   H22       1.0  0.38780813989928486  0.4180508066609789  0.5991501729366817  1.0000
  H   H23       1.0  0.11219236339833571  0.08194948083851729  0.0991518277090861  1.0000
  H   H24       1.0  0.6121947103000593  0.9180505379378089  0.400849303871361  1.0000
  H   H25       1.0  0.793268286913019  0.410374110862648  0.9932104937957078  1.0000
  H   H26       1.0  0.2932622407260225  0.5896256695878535  0.5067896313638087  1.0000
  H   H27       1.0  0.20673051723466784  0.9103739877161557  0.0067895467851216  1.0000
  H   H28       1.0  0.7067342296480917  0.08962527240981899  0.49321048294451936  1.0000
  H   H29       1.0  0.2067283407169712  0.5896250224987938  0.0067901456575044  1.0000
  H   H30       1.0  0.7067404446915477  0.41037423762720227  0.49321100809002166  1.0000
  H   H31       1.0  0.793262071870906  0.08962591949809  0.9932110926675224  1.0000
  H   H32       1.0  0.2932603787180597  0.9103738609519141  0.5067884704823342  1.0000
  C   C1        1.0  0.6238535288553565  0.33939648397288363  0.26241370121707064  1.0000
  C   C2        1.0  0.12385602554292065  0.6606035366786501  0.23758743309758049  1.0000
  C   C3        1.0  0.3761472249567035  0.8393959971758065  0.7375857936703483  1.0000
  C   C4        1.0  0.8761465722176567  0.16060457045588808  0.7624137889136267  1.0000
  C   C5        1.0  0.3761451180368311  0.6606041970952746  0.7375858142187823  1.0000
  C   C6        1.0  0.8761466598742659  0.33939559668328206  0.7624132063563424  1.0000
  C   C7        1.0  0.623853441197987  0.1606039100392351  0.2624142837745396  1.0000
  C   C8        1.0  0.12385005541223393  0.8393953367588338  0.2375862885307853  1.0000
  C   C9        1.0  0.4468752256774239  0.34243153783324937  0.2021022778278549  1.0000
  C   C10       1.0  0.94687310189385  0.6575685347622413  0.29789780820774336  1.0000
  C   C11       1.0  0.5531275503723094  0.8424294995295654  0.7978972163623369  1.0000
  C   C12       1.0  0.053129492889631515  0.1575702423056597  0.7021017284749009  1.0000
  C   C13       1.0  0.5531254404767837  0.6575683693819411  0.7978972376083249  1.0000
  C   C14       1.0  0.05312756425959721  0.34242982474670214  0.7021017072286142  1.0000
  C   C15       1.0  0.44687311578152145  0.1575696338325016  0.2021022990739354  1.0000
  C   C16       1.0  0.9468691540020729  0.8424304387626477  0.2978972249522513  1.0000
  C   C17       1.0  0.34814735733896646  0.25000097310407193  0.17113278712393054  1.0000
  C   C18       1.0  0.8481433580941982  0.7499998574682963  0.3288672757626401  1.0000
  C   C19       1.0  0.6518553280781135  0.7499989341111328  0.8288672903211989  1.0000
  C   C20       1.0  0.15185730805941944  0.2500008236003239  0.6711311156560386  1.0000
  C   C21       1.0  0.1501687220800818  0.2500025215367287  0.10889704381150273  1.0000
  C   C22       1.0  0.6501607911541001  0.7499998249054513  0.3911024106456652  1.0000
  C   C23       1.0  0.8498339633380425  0.7500004810911276  0.8911024716245565  1.0000
  C   C24       1.0  0.34983583647493083  0.24999930845629587  0.6088971047901311  1.0000
  C   C25       1.0  0.0511441129575729  0.3425561295485692  0.0780382475275232  1.0000
  C   C26       1.0  0.5511381635181465  0.6574438794101309  0.4219628697379605  1.0000
  C   C27       1.0  0.948854624691734  0.8425556362262934  0.9219629326594969  1.0000
  C   C28       1.0  0.4488583733547317  0.1574441692446058  0.5780361049640845  1.0000
  C   C29       1.0  0.9488585724598977  0.6574445515197664  0.921961829917514  1.0000
  C   C30       1.0  0.44885846411050073  0.3425544800984853  0.5780366456979281  1.0000
  C   C31       1.0  0.0511440222013135  0.15744581869483906  0.0780371447849717  1.0000
  C   C32       1.0  0.5511402735365962  0.8425557379705707  0.4219628484631599  1.0000
  C   C33       1.0  0.8730888576262855  0.33955753084824647  0.017929265074741404  1.0000
  C   C34       1.0  0.37308167756827976  0.6604425298815002  0.48207080365958194  1.0000
  C   C35       1.0  0.1269118963450495  0.8395568732004008  0.9820719158018036  1.0000
  C   C36       1.0  0.6269189007699653  0.16044133279338973  0.5179292943712427  1.0000
  C   C37       1.0  0.12691382779069468  0.6604431502202316  0.9820702503615948  1.0000
  C   C38       1.0  0.6269189885856506  0.33955582962729375  0.5179292737854837  1.0000
  C   C39       1.0  0.8730887698109767  0.16044380786746607  0.0179292856604079  1.0000
  C   C40       1.0  0.3730817653838585  0.8395578005686772  0.4820702210650225  1.0000
  Br  Br1       1.0  0.1483739204972991  0.4167066605708598  0.3896068849572388  1.0000
  Br  Br2       1.0  0.6483976523915943  0.5832995548513367  0.11039088305625462  1.0000
  Br  Br3       1.0  0.8516309476469817  0.9167055444150021  0.6103937161775193  1.0000
  Br  Br4       1.0  0.35160688883032526  0.083298888536703  0.889610918733297  1.0000
  Br  Br5       1.0  0.8516307841835271  0.583294020497334  0.610394316505449  1.0000
  Br  Br6       1.0  0.35160503302510904  0.4166995785107446  0.8896091943889602  1.0000
  Br  Br7       1.0  0.14839394966386274  0.08330055362564079  0.3896114193478581  1.0000
  Br  Br8       1.0  0.6483937773267671  0.9167010186775854  0.110391968755124  1.0000
  N   N1        1.0  0.7091310011013905  0.2500017433215617  0.2932517012042268  1.0000
  N   N2        1.0  0.20912747471779622  0.7500006126019017  0.20675001511316546  1.0000
  N   N3        1.0  0.2908737035785691  0.7499981638936575  0.7067489382498381  1.0000
  N   N4        1.0  0.790875210700051  0.2500008423195581  0.7932500623317794  1.0000
  N   N5        1.0  0.7876526344861646  0.25000233786841614  0.9873032380586083  1.0000
  N   N6        1.0  0.28764271716914175  0.7499997632384137  0.5126957617660679  1.0000
  N   N7        1.0  0.2123480316695563  0.7500006647592767  0.012696277377216302  1.0000
  N   N8        1.0  0.7123559297236286  0.25000014397631526  0.4873048776872865  1.0000
