data_image0
_chemical_formula_structural       Cd4H40C48N8O24
_chemical_formula_sum              "Cd4 H40 C48 N8 O24"
_cell_length_a       8.858966548
_cell_length_b       9.689341686
_cell_length_c       16.166
_cell_angle_alpha    90.0
_cell_angle_beta     90.0
_cell_angle_gamma    90.0

_space_group_name_H-M_alt    "P 1"
_space_group_IT_number       1

loop_
  _space_group_symop_operation_xyz
  'x, y, z'

loop_
  _atom_site_type_symbol
  _atom_site_label
  _atom_site_symmetry_multiplicity
  _atom_site_fract_x
  _atom_site_fract_y
  _atom_site_fract_z
  _atom_site_occupancy
  Cd  Cd1       1.0  0.1340438519059646  0.13476766970523357  0.18447667945069676  1.0000
  Cd  Cd2       1.0  0.8659565377557428  0.6347655185786962  0.8155239391315092  1.0000
  Cd  Cd3       1.0  0.36595690732480796  0.6347665506405562  0.6844766794506969  1.0000
  Cd  Cd4       1.0  0.6340434823368994  0.1347656055815136  0.31552332054930343  1.0000
  H   H1        1.0  0.21179558471451543  0.2775317546996448  0.9234479772361723  1.0000
  H   H2        1.0  0.788204804947185  0.7775316676968274  0.0765526413460336  1.0000
  H   H3        1.0  0.2882040457164194  0.7775316676968274  0.4234473586539665  1.0000
  H   H4        1.0  0.7117974727451255  0.2775317546996448  0.5765520227638277  1.0000
  H   H5        1.0  0.2517223637675272  0.4148321042086565  0.2798453544476089  1.0000
  H   H6        1.0  0.7482757682945052  0.9148330492676989  0.7201546455523911  1.0000
  H   H7        1.0  0.24827726666340771  0.9148330492676989  0.7798453544476089  1.0000
  H   H8        1.0  0.7517231229982999  0.41483107214679643  0.22015402697018527  1.0000
  H   H9        1.0  0.224998027614177  0.6736474170821154  0.2704923914388218  1.0000
  H   H10       1.0  0.7750034908473609  0.1736475040849328  0.7295088457255974  1.0000
  H   H11       1.0  0.2750027316165884  0.17364853614679276  0.7704905356921972  1.0000
  H   H12       1.0  0.7249965292452745  0.6736474170821154  0.2295082271433841  1.0000
  H   H13       1.0  0.9637873620741432  0.6118238154987878  0.0477570209080795  1.0000
  H   H14       1.0  0.03621415638739481  0.11182390250160519  0.9522435976741335  1.0000
  H   H15       1.0  0.5362137868183299  0.1118249345634652  0.5477564023258665  1.0000
  H   H16       1.0  0.4637877316432082  0.6118238154987878  0.4522429790919205  1.0000
  H   H17       1.0  0.006928573402710502  0.35804393243893873  0.0643319312136583  1.0000
  H   H18       1.0  0.9930718162589898  0.8580428133742686  0.9356686873685547  1.0000
  H   H19       1.0  0.49307331462789256  0.8580428133742686  0.5643313126314453  1.0000
  H   H20       1.0  0.5069282038336453  0.3580418683152189  0.4356686873685547  1.0000
  H   H21       1.0  0.403338242744205  0.3845194153265581  0.8469367808981829  1.0000
  H   H22       1.0  0.5966621469175024  0.8845182962618878  0.153064456266236  1.0000
  H   H23       1.0  0.0966625164865675  0.8845193283237478  0.346935543733764  1.0000
  H   H24       1.0  0.9033390019749775  0.3845194153265581  0.6530632191018171  1.0000
  H   H25       1.0  0.6644273875634923  0.4018714713741787  0.9093511072621538  1.0000
  H   H26       1.0  0.3355730020982151  0.9018713843713683  0.0906501299022651  1.0000
  H   H27       1.0  0.8355726325291428  0.9018724164332284  0.4093498700977349  1.0000
  H   H28       1.0  0.1644277571325574  0.4018714713741787  0.5906495113200521  1.0000
  H   H29       1.0  0.7049772641268106  0.29966432128152576  0.0503878510454072  1.0000
  H   H30       1.0  0.295021996735052  0.7996652663405754  0.9496133861190117  1.0000
  H   H31       1.0  0.7950227559658247  0.7996642342787155  0.5503872324631944  1.0000
  H   H32       1.0  0.2049776336958828  0.2996632892196658  0.4496121489545928  1.0000
  H   H33       1.0  0.816990329603847  0.1432233525219928  0.1318780155882706  1.0000
  H   H34       1.0  0.18300780245817805  0.6432242975810354  0.8681232215761483  1.0000
  H   H35       1.0  0.6830085616889505  0.6432242975810354  0.6318767784238517  1.0000
  H   H36       1.0  0.3169906991729192  0.1432233525219928  0.3681219844117295  1.0000
  H   H37       1.0  0.9198239948021509  0.021948859570848397  0.0974551527898058  1.0000
  H   H38       1.0  0.08017526605971172  0.521950836691758  0.9025460843746131  1.0000
  H   H39       1.0  0.5801760252904842  0.521950836691758  0.5974539156253869  1.0000
  H   H40       1.0  0.41982436437122334  0.021948859570848397  0.4025448472101943  1.0000
  C   C1        1.0  0.18898028239851075  0.4636764958440338  0.2296659656068272  1.0000
  C   C2        1.0  0.8110212360630273  0.9636743447174965  0.7703340343931728  1.0000
  C   C3        1.0  0.3110204768322617  0.9636753767793563  0.7296653470246213  1.0000
  C   C4        1.0  0.6889799128294456  0.46367443172031386  0.2703340343931728  1.0000
  C   C5        1.0  0.1726600943476129  0.6063022845492441  0.2248459730298151  1.0000
  C   C6        1.0  0.8273425529137697  0.1063013394901944  0.7751546455523908  1.0000
  C   C7        1.0  0.3273406648831596  0.1063034036139143  0.7248453544476094  1.0000
  C   C8        1.0  0.672658595978703  0.6063022845492441  0.2751540269701849  1.0000
  C   C9        1.0  0.08708464986519  0.6623184740478791  0.16028454781640283  1.0000
  C   C10       1.0  0.912916868596355  0.1623195931125494  0.8397166893480164  1.0000
  C   C11       1.0  0.4129161093655824  0.1623195931125494  0.660282692069778  1.0000
  C   C12       1.0  0.5870842802961249  0.6623184740478791  0.33971607076580324  1.0000
  C   C13       1.0  0.0269478385211741  0.5730451231813446  0.1007608561177804  1.0000
  C   C14       1.0  0.9730525511405261  0.07304521018416209  0.8992397624644326  1.0000
  C   C15       1.0  0.4730529207095984  0.07304521018416209  0.6007602375355674  1.0000
  C   C16       1.0  0.526947468952109  0.5730440911194847  0.3992391438822196  1.0000
  C   C17       1.0  0.050610869515161  0.4318301630383843  0.10941667697637313  1.0000
  C   C18       1.0  0.9493895201465463  0.9318290439737069  0.8905839416058399  1.0000
  C   C19       1.0  0.4493898897156115  0.9318300760355668  0.6094166769763731  1.0000
  C   C20       1.0  0.550610499946096  0.4318280989146642  0.3905833230236269  1.0000
  C   C21       1.0  0.05874725874402031  0.8156921549603027  0.1540238772732891  1.0000
  C   C22       1.0  0.9412395853196287  0.31569843433427275  0.8459755041444978  1.0000
  C   C23       1.0  0.4412399548887009  0.31569843433427275  0.6540244958555022  1.0000
  C   C24       1.0  0.5587604347730064  0.8156962832077352  0.3459748855622919  1.0000
  C   C25       1.0  0.4332909464328623  0.3386680030843934  0.9063627366076972  1.0000
  C   C26       1.0  0.566709443228838  0.8386679160815831  0.0936378819745158  1.0000
  C   C27       1.0  0.0667098127979102  0.838668948143436  0.4063621180254842  1.0000
  C   C28       1.0  0.9332905768637971  0.3386690351462533  0.593637263392303  1.0000
  C   C29       1.0  0.5746494212859761  0.34746426631486566  0.9412581962142783  1.0000
  C   C30       1.0  0.4253509683757315  0.8474641793120483  0.05874304095014082  1.0000
  C   C31       1.0  0.9253505988066665  0.8474652113739082  0.4412569590498592  1.0000
  C   C32       1.0  0.07464979085504102  0.34746426631486566  0.5587424223679349  1.0000
  C   C33       1.0  0.5955976886707148  0.2901115567078776  0.020108870468888505  1.0000
  C   C34       1.0  0.4044027009909854  0.7901114697050672  0.9798917481133245  1.0000
  C   C35       1.0  0.9044023314219204  0.7901114697050672  0.5201076333044696  1.0000
  C   C36       1.0  0.0955991870396247  0.29010846052229766  0.47989236669553054  1.0000
  C   C37       1.0  0.4809059811792409  0.2216610859232304  0.062264010887048506  1.0000
  C   C38       1.0  0.5190932796826289  0.7216620309822801  0.9377359891129518  1.0000
  C   C39       1.0  0.019093649251694007  0.7216609989204201  0.5622633923048355  1.0000
  C   C40       1.0  0.9809067404100134  0.2216600538613704  0.4377359891129516  1.0000
  C   C41       1.0  0.3366769683393117  0.2041851824524485  0.0221118396634878  1.0000
  C   C42       1.0  0.6633245501222336  0.7041850954496311  0.9778887789187183  1.0000
  C   C43       1.0  0.16332379089146096  0.7041850954496311  0.5221112210812819  1.0000
  C   C44       1.0  0.8366765987702465  0.2041851824524485  0.4778887789187182  1.0000
  C   C45       1.0  0.508139406059307  0.17328628243402724  0.1485846839044882  1.0000
  C   C46       1.0  0.49186098360239333  0.673286195431217  0.851415316095512  1.0000
  C   C47       1.0  0.9918606140333283  0.673286195431217  0.6485846839044882  1.0000
  C   C48       1.0  0.008139775628372103  0.1732852503721674  0.3514153160955118  1.0000
  N   N1        1.0  0.127669519223474  0.37787190488804606  0.17344674007175345  1.0000
  N   N2        1.0  0.8723286128385581  0.8778707858233759  0.8265532599282468  1.0000
  N   N3        1.0  0.3723301112074609  0.8778707858233759  0.6734467400717534  1.0000
  N   N4        1.0  0.6276702784542466  0.37786984076432617  0.3265532599282466  1.0000
  N   N5        1.0  0.321882917668738  0.2708357373537282  0.9463083013732501  1.0000
  N   N6        1.0  0.678116343193125  0.7708356503509106  0.0536916986267499  1.0000
  N   N7        1.0  0.1781178415620346  0.7708356503509106  0.4463083013732502  1.0000
  N   N8        1.0  0.8218836768995106  0.2708367694155882  0.5536910800445369  1.0000
  O   O1        1.0  0.9144779987716447  0.1247721505937633  0.10330570332796901  1.0000
  O   O2        1.0  0.08551900449054273  0.6247730956528059  0.896693678089818  1.0000
  O   O3        1.0  0.5855197637213154  0.624772063590946  0.603306321910182  1.0000
  O   O4        1.0  0.4144783683407099  0.12477008647004337  0.3966942966720311  1.0000
  O   O5        1.0  0.1404136693891047  0.89495553784932  0.19779908449832825  1.0000
  O   O6        1.0  0.8595867202726026  0.3949576889758575  0.8022009155016718  1.0000
  O   O7        1.0  0.3595870898416678  0.3949587210377174  0.6977984659161223  1.0000
  O   O8        1.0  0.6404132998200396  0.8949565699111801  0.30220091550167183  1.0000
  O   O9        1.0  0.9553868336832992  0.8538309689247114  0.1042440925399006  1.0000
  O   O10       1.0  0.0446135559784011  0.3538310559275287  0.8957559074600996  1.0000
  O   O11       1.0  0.544613186409336  0.3538310559275287  0.6042434739576878  1.0000
  O   O12       1.0  0.45538720325236437  0.8538299368628514  0.39575590746009953  1.0000
  O   O13       1.0  0.2243275205106912  0.1355716458939611  0.0470029691946081  1.0000
  O   O14       1.0  0.7756717403511715  0.6355725909530108  0.9529970308053921  1.0000
  O   O15       1.0  0.2756721099202437  0.6355725909530108  0.5470029691946081  1.0000
  O   O16       1.0  0.7243282797414636  0.1355726779558211  0.4529970308053919  1.0000
  O   O17       1.0  0.4010038846802075  0.13962455281711778  0.1964419151305208  1.0000
  O   O18       1.0  0.5989953761816622  0.6396254978761603  0.8035580848694792  1.0000
  O   O19       1.0  0.0989957457507273  0.6396254978761603  0.6964412965483149  1.0000
  O   O20       1.0  0.9010046439109801  0.1396255848789778  0.3035580848694792  1.0000
  O   O21       1.0  0.6459884422175577  0.1718754538717775  0.1741346034888025  1.0000
  O   O22       1.0  0.35401194744414255  0.6718763989308272  0.8258647779289847  1.0000
  O   O23       1.0  0.854012706674915  0.6718763989308272  0.6741346034888025  1.0000
  O   O24       1.0  0.14598881178662992  0.1718764859336375  0.3258647779289845  1.0000
