data_image0
_chemical_formula_structural       CdH16C18N14O2
_chemical_formula_sum              "Cd1 H16 C18 N14 O2"
_cell_length_a       7.717217800832947
_cell_length_b       7.839630276316236
_cell_length_c       8.87388153623527
_cell_angle_alpha    98.89296699339373
_cell_angle_beta     95.87943640823899
_cell_angle_gamma    109.1147574114561

_space_group_name_H-M_alt    "P 1"
_space_group_IT_number       1

loop_
  _space_group_symop_operation_xyz
  'x, y, z'

loop_
  _atom_site_type_symbol
  _atom_site_label
  _atom_site_symmetry_multiplicity
  _atom_site_fract_x
  _atom_site_fract_y
  _atom_site_fract_z
  _atom_site_occupancy
  Cd  Cd1       1.0  0.0  0.0  0.0  1.0000
  H   H1        1.0  0.33090024715639293  0.24592673500968235  0.8778814577368906  1.0000
  H   H2        1.0  0.6690999457407684  0.754071814799751  0.12211776992359803  1.0000
  H   H3        1.0  0.2388708201419902  0.3824435660361162  0.9572851793418026  1.0000
  H   H4        1.0  0.7611298583547995  0.6175563616443965  0.04271428540852902  1.0000
  H   H5        1.0  0.8736286275617929  0.5430399104015109  0.7776297137132107  1.0000
  H   H6        1.0  0.1263707485070427  0.4569600173792381  0.22236961563181984  1.0000
  H   H7        1.0  0.8254031879046196  0.7882522638104562  0.38860213668254323  1.0000
  H   H8        1.0  0.17459320237040288  0.21175040619140623  0.6113995077533403  1.0000
  H   H9        1.0  0.6546484069496047  0.9744198083489978  0.4155484397202899  1.0000
  H   H10       1.0  0.34535359882975303  0.025580126142152403  0.5844500368718002  1.0000
  H   H11       1.0  0.8358078292130883  0.2724249567481892  0.5857559866285555  1.0000
  H   H12       1.0  0.16419665714911955  0.7275749429880846  0.41424837859180025  1.0000
  H   H13       1.0  0.5660563369259037  0.5427899884661828  0.2995695418804091  1.0000
  H   H14       1.0  0.4339430391429319  0.45720993931456644  0.7004297874646213  1.0000
  H   H15       1.0  0.39169186688424423  0.24443982921860652  0.12773445889386895  1.0000
  H   H16       1.0  0.6083070732941849  0.7555587345128247  0.8722623862342546  1.0000
  C   C1        1.0  0.3975081321325079  0.9096394873849364  0.16052082213477095  1.0000
  C   C2        1.0  0.6024902478824502  0.09035767774278011  0.8394791565941092  1.0000
  C   C3        1.0  0.8775894770167767  0.6429040595626105  0.7049843329417342  1.0000
  C   C4        1.0  0.12241038465169402  0.3570972460892179  0.2950152334931317  1.0000
  C   C5        1.0  0.8470900737685201  0.7711491735486862  0.5074177017695974  1.0000
  C   C6        1.0  0.15290713333482134  0.22885211848186063  0.4925838409817446  1.0000
  C   C7        1.0  0.5099682009009356  0.08740434322945842  0.2589419294593043  1.0000
  C   C8        1.0  0.4900297981761173  0.912595563918892  0.7410606351710243  1.0000
  C   C9        1.0  0.6371884647089202  0.09889077578947791  0.38847125294024926  1.0000
  C   C10       1.0  0.3628139769608509  0.9011105227509904  0.6115297078687478  1.0000
  C   C11       1.0  0.7389303176880375  0.26754025290862427  0.48547829201164217  1.0000
  C   C12       1.0  0.2610747536922562  0.7324610523422453  0.5145218160444217  1.0000
  C   C13       1.0  0.714448196979319  0.42758092056057256  0.4524484516581709  1.0000
  C   C14       1.0  0.2855511293802947  0.5724189933984148  0.5475531248139305  1.0000
  C   C15       1.0  0.5883208168610352  0.4188403333582401  0.3241180635829154  1.0000
  C   C16       1.0  0.41168251620089086  0.5811596079435548  0.6758794248509403  1.0000
  C   C17       1.0  0.4883943773020861  0.2499134318946261  0.22798917904454902  1.0000
  C   C18       1.0  0.5116018834566064  0.7500851113046423  0.7720107659635789  1.0000
  N   N1        1.0  0.23237795051358026  0.8737038587001535  0.0697530999432843  1.0000
  N   N2        1.0  0.7676235448115276  0.12629469100903631  0.9302462631224984  1.0000
  N   N3        1.0  0.1732568444147802  0.6941558750834459  0.0031269005685174837  1.0000
  N   N4        1.0  0.8267438589366238  0.3058440595079476  0.9968714406182785  1.0000
  N   N5        1.0  0.2971685366856747  0.623803092412608  0.05023290524110279  1.0000
  N   N6        1.0  0.7028316810661012  0.3761954643077062  0.9497651988558503  1.0000
  N   N7        1.0  0.4404839339254353  0.7551956420304293  0.14930986387228273  1.0000
  N   N8        1.0  0.5595163086809479  0.2448029216007584  0.850687116661135  1.0000
  N   N9        1.0  0.9412540594261785  0.8235113477982169  0.7531234528519022  1.0000
  N   N10       1.0  0.05874577738768491  0.17648995094272382  0.24687723714650642  1.0000
  N   N11       1.0  0.9226504286841575  0.9054387682681622  0.6288882955485563  1.0000
  N   N12       1.0  0.0773476201021168  0.09456115270194232  0.3711120219547084  1.0000
  N   N13       1.0  0.8135190099292589  0.6027231236123073  0.5496377824347436  1.0000
  N   N14       1.0  0.18647952445665084  0.39727817522887693  0.4503627721583641  1.0000
  O   O1        1.0  0.20975114617132112  0.25221401047316044  0.9031725123141711  1.0000
  O   O2        1.0  0.7902503242991801  0.747784532325156  0.09682797431514707  1.0000
