data_image0
_chemical_formula_structural       Cd2H32C34O14
_chemical_formula_sum              "Cd2 H32 C34 O14"
_cell_length_a       6.058609178489438
_cell_length_b       9.46234521385534
_cell_length_c       15.221653846101075
_cell_angle_alpha    97.36869586418062
_cell_angle_beta     90.08189511518398
_cell_angle_gamma    108.62750713525429

_space_group_name_H-M_alt    "P 1"
_space_group_IT_number       1

loop_
  _space_group_symop_operation_xyz
  'x, y, z'

loop_
  _atom_site_type_symbol
  _atom_site_label
  _atom_site_symmetry_multiplicity
  _atom_site_fract_x
  _atom_site_fract_y
  _atom_site_fract_z
  _atom_site_occupancy
  Cd  Cd1       1.0  0.5054761527732766  0.5522051229908769  0.9370857703962514  1.0000
  Cd  Cd2       1.0  0.9537953799297014  0.44768096256070333  0.06308095788151043  1.0000
  H   H1        1.0  0.8973842088287969  0.9277902893836871  0.23060241055711836  1.0000
  H   H2        1.0  0.9697355007584181  0.07202933274254524  0.7689687437740176  1.0000
  H   H3        1.0  0.02468627509799862  0.14422975846375866  0.35173557402644223  1.0000
  H   H4        1.0  0.8815713449544874  0.8556607379548853  0.6477698987446132  1.0000
  H   H5        1.0  0.6360277748587962  0.02585267889234901  0.40646932791283774  1.0000
  H   H6        1.0  0.611292023242406  0.9747779748514206  0.5941033023072821  1.0000
  H   H7        1.0  0.504342806469822  0.8079101815592014  0.2858678263155668  1.0000
  H   H8        1.0  0.6965303443384202  0.1926869864068905  0.7146453061463307  1.0000
  H   H9        1.0  0.5425607174922648  0.21319130020784635  0.505638967244174  1.0000
  H   H10       1.0  0.331551236158191  0.7876194682894069  0.4945111491104656  1.0000
  H   H11       1.0  0.5259330016509907  0.33415464862796546  0.4267193928465005  1.0000
  H   H12       1.0  0.19508245338167285  0.6663882591829023  0.5733356154332939  1.0000
  H   H13       1.0  0.9169925090616078  0.3035666623525587  0.6014992030211064  1.0000
  H   H14       1.0  0.6154013931346258  0.696113248567592  0.3981106211059355  1.0000
  H   H15       1.0  0.974414906517957  0.47923503366622816  0.741733254974669  1.0000
  H   H16       1.0  0.49699939262292503  0.5202027393220521  0.2579800564842217  1.0000
  H   H17       1.0  0.7135422170743697  0.6340704466923913  0.7039899975291208  1.0000
  H   H18       1.0  0.08297331909980701  0.36643552371648275  0.29581537088387944  1.0000
  H   H19       1.0  0.6572336236510595  0.458132557309746  0.5640708772777643  1.0000
  H   H20       1.0  0.20271283153174835  0.5426489419985361  0.4356766551995151  1.0000
  H   H21       1.0  0.15028168877655904  0.760184374330436  0.7799144752263844  1.0000
  H   H22       1.0  0.39235770570977724  0.23956493979994778  0.22020583867659846  1.0000
  H   H23       1.0  0.5162139558608133  0.9612856336811934  0.843143180354126  1.0000
  H   H24       1.0  0.5561403081228987  0.038108384395968614  0.15694023689374603  1.0000
  H   H25       1.0  0.48366050486333034  0.8848593822411462  0.9453546441082283  1.0000
  H   H26       1.0  0.5994331177470401  0.11445061391346915  0.05471112975984482  1.0000
  H   H27       1.0  0.2755955691144863  0.9655768965816096  0.9094555490911561  1.0000
  H   H28       1.0  0.3109939938757691  0.0341945412903399  0.09065425808925913  1.0000
  H   H29       1.0  0.4592235854616575  0.7137151264760393  0.09643243068398995  1.0000
  H   H30       1.0  0.745654244213469  0.28626964899640944  0.9037144493975975  1.0000
  H   H31       1.0  0.7259533648493176  0.7488526382882555  0.08427707710666973  1.0000
  H   H32       1.0  0.9772381132641926  0.25095245303946  0.9159154599491262  1.0000
  C   C1        1.0  0.11639027445306746  0.7222432741759449  0.18010333571707096  1.0000
  C   C2        1.0  0.3937297196212626  0.2777828483989921  0.8200286425231129  1.0000
  C   C3        1.0  0.192743779538553  0.8539607221886457  0.2512457883616294  1.0000
  C   C4        1.0  0.3388083842852367  0.14623404596299142  0.7487826456292839  1.0000
  C   C5        1.0  0.05806512226421772  0.9491903168040571  0.26986871780462013  1.0000
  C   C6        1.0  0.10918363574105429  0.050826659409921114  0.7298651126365459  1.0000
  C   C7        1.0  0.1302904865189731  0.07078001947571982  0.3371746657468223  1.0000
  C   C8        1.0  0.06039237205381924  0.9292859641244182  0.6625356363711036  1.0000
  C   C9        1.0  0.3389869750814897  0.09982980384761221  0.38670081181945193  1.0000
  C   C10       1.0  0.24038389546056765  0.9004756795275671  0.6133075643368217  1.0000
  C   C11       1.0  0.4736321304531472  0.004546823462654002  0.3679529364133956  1.0000
  C   C12       1.0  0.4700010229058976  0.9959962157862067  0.6323513533550341  1.0000
  C   C13       1.0  0.4011435835941628  0.8827367187762083  0.3008541802802399  1.0000
  C   C14       1.0  0.5187091253272058  0.11774807334503386  0.69943856543091  1.0000
  C   C15       1.0  0.4256552089900012  0.23388194495994707  0.45684010692782817  1.0000
  C   C16       1.0  0.19398371831510275  0.7664989789532869  0.5431752623310402  1.0000
  C   C17       1.0  0.2808820450223024  0.3678336492984117  0.5740305286082903  1.0000
  C   C18       1.0  0.9155916864677069  0.6321336830408556  0.42573804491047446  1.0000
  C   C19       1.0  0.09088727929941601  0.3784832716657931  0.6237583461399226  1.0000
  C   C20       1.0  0.714617490009431  0.6212835657708455  0.3759377042256276  1.0000
  C   C21       1.0  0.12396999455234702  0.47857237001179015  0.7020247365831125  1.0000
  C   C22       1.0  0.6475003868048149  0.5210484925317688  0.29773206288162873  1.0000
  C   C23       1.0  0.35044225514265315  0.5705050101117239  0.7300150756657332  1.0000
  C   C24       1.0  0.782258503430697  0.429222251906083  0.26984064524512524  1.0000
  C   C25       1.0  0.5393276151846111  0.5625169559010532  0.6798557931340101  1.0000
  C   C26       1.0  0.9798582406034698  0.43771329489523236  0.31996122061738674  1.0000
  C   C27       1.0  0.5064704663750277  0.46185069924727873  0.6018513775867902  1.0000
  C   C28       1.0  0.047745094301113566  0.538529655839419  0.39792224972027423  1.0000
  C   C29       1.0  0.24454633220701558  0.7476220617923774  0.83851431280322  1.0000
  C   C30       1.0  0.4985785946021011  0.25201944094042983  0.16155203012326783  1.0000
  C   C31       1.0  0.38973201985961486  0.8995829453554407  0.887365729647769  1.0000
  C   C32       1.0  0.49124657663173116  0.09993009097294701  0.1127008590820111  1.0000
  C   C33       1.0  0.06626258308676834  0.662876574661752  0.9007498601196248  1.0000
  C   C34       1.0  0.4043490977339417  0.3369031713933453  0.09939378414613745  1.0000
  O   O1        1.0  0.9255229506269771  0.6934764228720028  0.13590879269734302  1.0000
  O   O2        1.0  0.23160434535258648  0.30621395675318314  0.8641559170930364  1.0000
  O   O3        1.0  0.24483612607835423  0.6374859041829167  0.16586810835667623  1.0000
  O   O4        1.0  0.6067355815871665  0.36270221367020394  0.8344162285578492  1.0000
  O   O5        1.0  0.23037964032465652  0.26119697838036876  0.5003640963073153  1.0000
  O   O6        1.0  0.971270659003558  0.7386321917848095  0.4994784618760308  1.0000
  O   O7        1.0  0.4054826925385272  0.6678148320069611  0.8094026622992986  1.0000
  O   O8        1.0  0.7394635770039032  0.33160158683274704  0.19056696122737554  1.0000
  O   O9        1.0  0.8738496841780975  0.6865971620112179  0.901473292202475  1.0000
  O   O10       1.0  0.18836037800258512  0.3133152296461149  0.09876144992896492  1.0000
  O   O11       1.0  0.1318267850611293  0.5809561496278095  0.9491490017698825  1.0000
  O   O12       1.0  0.5513128354736596  0.4188709418161169  0.05100488981366171  1.0000
  O   O13       1.0  0.5818874818697921  0.7504663262000123  0.05373083240476721  1.0000
  O   O14       1.0  0.8317702134928879  0.24942100568221565  0.9464263302261602  1.0000
