data_image0
_chemical_formula_structural       Hf12H52C52N4O64
_chemical_formula_sum              "Hf12 H52 C52 N4 O64"
_cell_length_a       11.930327752820375
_cell_length_b       13.736599272318115
_cell_length_c       23.157255771169947
_cell_angle_alpha    82.12935813542383
_cell_angle_beta     75.09848717827319
_cell_angle_gamma    64.22449700388725

_space_group_name_H-M_alt    "P 1"
_space_group_IT_number       1

loop_
  _space_group_symop_operation_xyz
  'x, y, z'

loop_
  _atom_site_type_symbol
  _atom_site_label
  _atom_site_symmetry_multiplicity
  _atom_site_fract_x
  _atom_site_fract_y
  _atom_site_fract_z
  _atom_site_occupancy
  Hf  Hf1       1.0  0.2745396033352492  0.385231935853419  0.5557210229103546  1.0000
  Hf  Hf2       1.0  0.4531018210278858  0.6520220073742706  0.513906261626083  1.0000
  Hf  Hf3       1.0  0.5180079736219554  0.41675598013641496  0.4431142739633173  1.0000
  Hf  Hf4       1.0  0.2093331700755598  0.6224484651095497  0.6265014401802348  1.0000
  Hf  Hf5       1.0  0.522822843816094  0.40847465855354403  0.5991649258768987  1.0000
  Hf  Hf6       1.0  0.2040681490257156  0.6298408834139766  0.4731148188531692  1.0000
  Hf  Hf7       1.0  0.6541975199200536  0.1688291582400795  0.012978798688465111  1.0000
  Hf  Hf8       1.0  0.058344039464053116  0.9018405578487576  0.054546227812316814  1.0000
  Hf  Hf9       1.0  0.8168197833212576  0.1368464129005957  0.12560656398848377  1.0000
  Hf  Hf10      1.0  0.8971328170969243  0.9318199071915602  0.9419608180216342  1.0000
  Hf  Hf11      1.0  0.9691751947186307  0.14555212119779534  0.9695516894831402  1.0000
  Hf  Hf12      1.0  0.7463759519902665  0.9239161653875603  0.09533971763235631  1.0000
  H   H1        1.0  0.46357499079425685  0.21189171465808698  0.24275104086817123  1.0000
  H   H2        1.0  0.33739665984639094  0.17520485945638606  0.17127642660182832  1.0000
  H   H3        1.0  0.2892825141189874  0.4116926999164506  0.6722052124658691  1.0000
  H   H4        1.0  0.687237763780189  0.4591872317795236  0.5013632863978259  1.0000
  H   H5        1.0  0.19463544115722428  0.7919244148785088  0.5437842739843859  1.0000
  H   H6        1.0  0.2833271229300891  0.4257217283047154  0.42901814372513764  1.0000
  H   H7        1.0  0.705223489679703  0.2023830267739584  0.5673118437146344  1.0000
  H   H8        1.0  0.539743366571095  0.45001498903959464  0.3258739104392633  1.0000
  H   H9        1.0  0.27229913691194696  0.6693571785533481  0.35151880175413197  1.0000
  H   H10       1.0  0.5266266680031747  0.45291802322226743  0.7063711987586458  1.0000
  H   H11       1.0  0.17149691882991638  0.5880118573189608  0.7465757090791385  1.0000
  H   H12       1.0  0.9589893818432385  0.7360858996989635  0.6474948259870885  1.0000
  H   H13       1.0  0.9977929993097018  0.8350096029679437  0.4981842604387199  1.0000
  H   H14       1.0  0.7528423910453554  0.38372625739961574  0.6081015127797612  1.0000
  H   H15       1.0  0.683558580331706  0.6729892980490176  0.5025567771183361  1.0000
  H   H16       1.0  0.10707255384344443  0.354694768505148  0.5002920863926406  1.0000
  H   H17       1.0  0.07661464238391594  0.5731051735783625  0.4150422574510487  1.0000
  H   H18       1.0  0.37184451528805346  0.503916274524194  0.7107880520931927  1.0000
  H   H19       1.0  0.578494659495064  0.739179035733656  0.5576757895226623  1.0000
  H   H20       1.0  0.7183032593869287  0.23242331325447912  0.42275544795668213  1.0000
  H   H21       1.0  0.7117079498018696  0.2728167471923727  0.5043977141475722  1.0000
  H   H22       1.0  0.012904617306062903  0.7623398947847665  0.5629945596732568  1.0000
  H   H23       1.0  0.3552665165293121  0.538043412662468  0.36124702832527333  1.0000
  H   H24       1.0  0.07729938697313085  0.48693082572668106  0.4917140812815006  1.0000
  H   H25       1.0  0.22953622717623295  0.8613327655763428  0.8302997803474242  1.0000
  H   H26       1.0  0.31848331201062036  0.9267709416779726  0.9082865180708454  1.0000
  H   H27       1.0  0.3604588147684708  0.6919746204989251  0.7378999389253592  1.0000
  H   H28       1.0  0.5933681802793062  0.6272890510637908  0.6604023775503408  1.0000
  H   H29       1.0  0.8114721855968128  0.14269941362523045  0.896448803933751  1.0000
  H   H30       1.0  0.08682015934083148  0.09446689124672504  0.06729689494741112  1.0000
  H   H31       1.0  0.9697857970094576  0.7620198065493113  0.024543147789472686  1.0000
  H   H32       1.0  0.5771787597588086  0.12802350432075124  0.1396319672146973  1.0000
  H   H33       1.0  0.9136081111639031  0.35135749373348807  0.0017150717056325076  1.0000
  H   H34       1.0  0.7540401892595271  0.10383625194599941  0.24286551412706103  1.0000
  H   H35       1.0  0.7334588653309879  0.8840125509105407  0.2168544975318555  1.0000
  H   H36       1.0  0.12450925390447048  0.1012258952567109  0.8622760137895754  1.0000
  H   H37       1.0  0.9442880421064784  0.9666009857083895  0.8218992124892351  1.0000
  H   H38       1.0  0.7815253863068818  0.8184001189761648  0.9208457579796416  1.0000
  H   H39       1.0  0.7707655813424027  0.7189694463075399  0.07002445970458382  1.0000
  H   H40       1.0  0.1834714637504007  0.1700958784554629  0.960665343684809  1.0000
  H   H41       1.0  0.2982436929254178  0.8810408890781289  0.0661359142842031  1.0000
  H   H42       1.0  0.40075907577280395  0.19921087859548697  0.06847037126536999  1.0000
  H   H43       1.0  0.5044201716036836  0.9805061136375531  0.1536300226212006  1.0000
  H   H44       1.0  0.02499958669368849  0.05058072411904392  0.8577669201688992  1.0000
  H   H45       1.0  0.31507172296039715  0.8150143756825586  0.01084113228080951  1.0000
  H   H46       1.0  0.8129294394261068  0.32078424443227505  0.14634153504533742  1.0000
  H   H47       1.0  0.9278088286151346  0.2807038182282612  0.06456753426616756  1.0000
  H   H48       1.0  0.7775503535408959  0.7918487820057932  0.005248862631290794  1.0000
  H   H49       1.0  0.6939011394247958  0.015419136393170203  0.20729019114174463  1.0000
  H   H50       1.0  0.49495105794180466  0.0670056609144538  0.07700623143682608  1.0000
  H   H51       1.0  0.35691516167457144  0.34156155204522787  0.326399875723979  1.0000
  H   H52       1.0  0.12224524404196303  0.3788576107337108  0.3975890352286839  1.0000
  C   C1        1.0  0.39091992630434186  0.10992790753115862  0.3081820521877319  1.0000
  C   C2        1.0  0.40960177352727106  0.16299833004005393  0.2533479989420542  1.0000
  C   C3        1.0  0.34649362655157734  0.14230771839462625  0.21596278973883903  1.0000
  C   C4        1.0  0.2913694962451601  0.07371004980041823  0.24688020528337523  1.0000
  C   C5        1.0  0.4468680610222577  0.20712548174471127  0.6392018311738495  1.0000
  C   C6        1.0  0.03881575513400994  0.48046314129763357  0.6667505771483775  1.0000
  C   C7        1.0  0.42726375199827527  0.22093505660062365  0.44860579740112183  1.0000
  C   C8        1.0  0.6769448558221569  0.5659438445465171  0.39390288481233426  1.0000
  C   C9        1.0  0.29312858279980253  0.8243329977362421  0.4238594910246931  1.0000
  C   C10       1.0  0.31102997487734285  0.8104821084019066  0.6251466009720019  1.0000
  C   C11       1.0  0.3306652593781577  0.9408827133256853  0.7625251735457398  1.0000
  C   C12       1.0  0.28934246971783734  0.9052358073041732  0.8198113336005903  1.0000
  C   C13       1.0  0.33602903684785435  0.9381083380425895  0.8600962603978174  1.0000
  C   C14       1.0  0.4065007128966869  0.994265801420568  0.8278809038160873  1.0000
  C   C15       1.0  0.47288430707592266  0.6126739313516226  0.8059977915967238  1.0000
  C   C16       1.0  0.4535826709841616  0.6482569993558159  0.748625404031415  1.0000
  C   C17       1.0  0.5736913115420991  0.6157550806972268  0.708580753713072  1.0000
  C   C18       1.0  0.6678725943888253  0.5597659981905353  0.741023861681171  1.0000
  C   C19       1.0  0.7317115502922321  0.3470990697727886  0.9297349530373679  1.0000
  C   C20       1.0  0.6240584454734092  0.07384178447654931  0.9020313391731847  1.0000
  C   C21       1.0  0.5356974287268912  0.3328708767671742  0.1202635275896995  1.0000
  C   C22       1.0  0.07575233953843954  0.9875153424004923  0.17476957071814783  1.0000
  C   C23       1.0  0.9813235399798612  0.7294766598369266  0.14453129542496168  1.0000
  C   C24       1.0  0.18571779397539961  0.7435623914358943  0.9432884013059634  1.0000
  C   C25       1.0  0.24816363734836225  0.4438626473845774  0.2608246901082865  1.0000
  C   C26       1.0  0.26471344807975317  0.3907670429213114  0.3157084829462776  1.0000
  C   C27       1.0  0.14334028929712156  0.41182108157568126  0.3529477882386659  1.0000
  C   C28       1.0  0.05073586981550446  0.48066909838883026  0.321902361550329  1.0000
  C   C29       1.0  0.6927857278527582  0.4358694178723043  0.8876657762315433  1.0000
  C   C30       1.0  0.6582967250546474  0.4941639460082359  0.8452849333522465  1.0000
  C   C31       1.0  0.022722078826390622  0.6397184451143546  0.18566873910766188  1.0000
  C   C32       1.0  0.06239171681499301  0.5727607159863056  0.224106977105869  1.0000
  C   C33       1.0  0.33800703966954876  0.42970991027620203  0.20697247916438502  1.0000
  C   C34       1.0  0.42484656185325786  0.4005326581501549  0.1625019103105103  1.0000
  C   C35       1.0  0.29745162058611646  0.6725507371064836  0.9038532555234086  1.0000
  C   C36       1.0  0.38489504466546975  0.6369602062197047  0.8602834767504106  1.0000
  C   C37       1.0  0.15726901060399  0.0001431456940679  0.20737221387199156  1.0000
  C   C38       1.0  0.22031894368869584  0.03064319109735441  0.2281180428308431  1.0000
  C   C39       1.0  0.2853266222851686  0.9144230733605527  0.3829165639405048  1.0000
  C   C40       1.0  0.29677163440573656  0.9814674371653215  0.3446301456512657  1.0000
  C   C41       1.0  0.803542886972913  0.553721498690834  0.3612542417335405  1.0000
  C   C42       1.0  0.917776158707973  0.5237983746942023  0.340493917398959  1.0000
  C   C43       1.0  0.8003386958766682  0.5163416403613328  0.7205574384767959  1.0000
  C   C44       1.0  0.913595707097059  0.487951560466037  0.697864500517376  1.0000
  C   C45       1.0  0.43590802280329655  0.05998733438205763  0.7236279939037403  1.0000
  C   C46       1.0  0.4542945892786534  0.11856599484930543  0.6813976076410951  1.0000
  C   C47       1.0  0.47471281969059487  0.037746791376910914  0.8486110714151778  1.0000
  C   C48       1.0  0.5370376257107736  0.06612481842718412  0.8712161627494551  1.0000
  C   C49       1.0  0.31294980965378727  0.88108864518977  0.6646299742834858  1.0000
  C   C50       1.0  0.3215390411496697  0.9165954689967396  0.7081503102050777  1.0000
  C   C51       1.0  0.4129119023431612  0.12388879044372914  0.3620448517566858  1.0000
  C   C52       1.0  0.4261978924840619  0.1531588135924764  0.4064740124083457  1.0000
  N   N1        1.0  0.318881962813613  0.05327330055453672  0.3038307671485896  1.0000
  N   N2        1.0  0.4027884435295093  0.9971804939948399  0.7674518531007806  1.0000
  N   N3        1.0  0.6062603812570088  0.5566896262004449  0.801347359438772  1.0000
  N   N4        1.0  0.11511796129825301  0.5009582268061693  0.2650336313387954  1.0000
  O   O1        1.0  0.10029557607715836  0.4153777126240358  0.5202405532010062  1.0000
  O   O2        1.0  0.3601216485031032  0.23744672556981788  0.6095761314357944  1.0000
  O   O3        1.0  0.3384321134355587  0.24647183233278727  0.49616652969395153  1.0000
  O   O4        1.0  0.061101089725447276  0.5598405180094732  0.6748283771416936  1.0000
  O   O5        1.0  0.5133157877859347  0.25615136465471283  0.43115035013087777  1.0000
  O   O6        1.0  0.11246089472685128  0.4000471352654388  0.6337593905577634  1.0000
  O   O7        1.0  0.524377286359133  0.24983071773416307  0.6365275291840646  1.0000
  O   O8        1.0  0.4537879900343497  0.37763980852076884  0.5311796460169235  1.0000
  O   O9        1.0  0.3139152740110446  0.4394518098089436  0.6324556871502763  1.0000
  O   O10       1.0  0.3099024463117246  0.4491314929758517  0.458790296916817  1.0000
  O   O11       1.0  0.1917416008376945  0.5516977027862142  0.5544888427321126  1.0000
  O   O12       1.0  0.028874489027146018  0.7493451349608479  0.6208902693565435  1.0000
  O   O13       1.0  0.7080939964902413  0.27021156054282613  0.5501868543301995  1.0000
  O   O14       1.0  0.40811254962758176  0.5745713044674262  0.5917070877858279  1.0000
  O   O15       1.0  0.5963371571013951  0.47797906192630535  0.509608244655162  1.0000
  O   O16       1.0  0.4009600192779602  0.5802199200055682  0.4622241194399592  1.0000
  O   O17       1.0  0.24213457351679307  0.7145041312712126  0.5390159563617871  1.0000
  O   O18       1.0  0.7031262538804768  0.29847766969620454  0.44044294824659863  1.0000
  O   O19       1.0  0.6412672523286884  0.49727306699204404  0.3833189003496997  1.0000
  O   O20       1.0  0.6177995630285906  0.6392607029330579  0.4329312949663731  1.0000
  O   O21       1.0  0.06599044609117045  0.5849128676354595  0.4569501812541077  1.0000
  O   O22       1.0  0.37713838016522777  0.7957954230165786  0.4547048680126338  1.0000
  O   O23       1.0  0.47323529446020973  0.44172667013130973  0.3578820962894013  1.0000
  O   O24       1.0  0.2636969232910716  0.6051694574856726  0.3716501313055005  1.0000
  O   O25       1.0  0.01693309709251168  0.7623056578881136  0.5150183584173931  1.0000
  O   O26       1.0  0.21684811842604287  0.7807247694657848  0.42489912400028373  1.0000
  O   O27       1.0  0.6226129335263337  0.6683200008654214  0.5390248650366516  1.0000
  O   O28       1.0  0.23583269170360668  0.5963450160241948  0.7134466350787818  1.0000
  O   O29       1.0  0.39191158911373936  0.7901083698810328  0.5741967085768422  1.0000
  O   O30       1.0  0.2309356025300459  0.7700853310576791  0.6456761956599593  1.0000
  O   O31       1.0  0.4582903880610017  0.43845306371876813  0.6989925907977081  1.0000
  O   O32       1.0  0.6630767840154944  0.4213225370069652  0.6263508924671584  1.0000
  O   O33       1.0  0.47477121763738944  0.13857482027441395  0.04852462585009933  1.0000
  O   O34       1.0  0.6456629723681144  0.3167878773192428  0.9592431456589879  1.0000
  O   O35       1.0  0.5197289553717966  0.30747257520489063  0.07271001794088512  1.0000
  O   O36       1.0  0.7339969943788204  0.9945690333680663  0.8937778574061568  1.0000
  O   O37       1.0  0.6397350741159187  0.29767620763571057  0.13757651939020832  1.0000
  O   O38       1.0  0.5844839014154104  0.15426848939668503  0.9349752241891663  1.0000
  O   O39       1.0  0.8493233885139232  0.30429417064940634  0.9323889748082054  1.0000
  O   O40       1.0  0.8013775265644654  0.17624915281616899  0.03754327794575123  1.0000
  O   O41       1.0  0.8243538824104916  0.11483095532810243  0.9361724813748182  1.0000
  O   O42       1.0  0.6568754033472148  0.10464454668058923  0.10983687645097011  1.0000
  O   O43       1.0  0.7369282994032531  0.002398007632152101  0.014044815706014926  1.0000
  O   O44       1.0  0.8381937396846693  0.8049363115004982  0.9474465461106121  1.0000
  O   O45       1.0  0.9672376678714869  0.28342264646049403  0.018775120001222983  1.0000
  O   O46       1.0  0.013257609315822002  0.9795101029644545  0.976807848940311  1.0000
  O   O47       1.0  0.022914470478703194  0.07573314750299433  0.0590610635156068  1.0000
  O   O48       1.0  0.8826777552251033  0.9734443632512964  0.10630685992386191  1.0000
  O   O49       1.0  0.9349414251825366  0.839417158704144  0.02938981585275965  1.0000
  O   O50       1.0  0.8812830433261498  0.2547540094181997  0.12849068305386172  1.0000
  O   O51       1.0  0.9605688800785045  0.055770438252402195  0.18547477939395662  1.0000
  O   O52       1.0  0.1293198512722356  0.9143879103148151  0.1356272101954517  1.0000
  O   O53       1.0  0.5471354242972094  0.968874771625963  0.11167685297657215  1.0000
  O   O54       1.0  0.06754775964588325  0.7579576867310963  0.11361485116677986  1.0000
  O   O55       1.0  0.7115415746211582  0.11194982781304931  0.21074387596288352  1.0000
  O   O56       1.0  0.6802980527932899  0.9481451285083866  0.19683363916971794  1.0000
  O   O57       1.0  0.7336654110963181  0.7917166567053755  0.053271959606909974  1.0000
  O   O58       1.0  0.8624648167060798  0.7728286106575839  0.14337127240330722  1.0000
  O   O59       1.0  0.2691591852825681  0.8857342916356645  0.029629541187531992  1.0000
  O   O60       1.0  0.9839710873278945  0.9581668231063036  0.8550217207867306  1.0000
  O   O61       1.0  0.19562665327903514  0.7641185963826729  0.9941166238835139  1.0000
  O   O62       1.0  0.08563285814989291  0.7841053590517221  0.9227699778642631  1.0000
  O   O63       1.0  0.034274134761808656  0.11586588548872367  0.869660408005757  1.0000
  O   O64       1.0  0.14942508769374288  0.1327069047150644  0.942359273397379  1.0000
