data_image0
_chemical_formula_structural       Zn6H24C72S4O60
_chemical_formula_sum              "Zn6 H24 C72 S4 O60"
_cell_length_a       19.10694978454
_cell_length_b       19.106940601976
_cell_length_c       19.161465946734342
_cell_angle_alpha    111.29109867214355
_cell_angle_beta     111.29107697359173
_cell_angle_gamma    104.81808581529278

_space_group_name_H-M_alt    "P 1"
_space_group_IT_number       1

loop_
  _space_group_symop_operation_xyz
  'x, y, z'

loop_
  _atom_site_type_symbol
  _atom_site_label
  _atom_site_symmetry_multiplicity
  _atom_site_fract_x
  _atom_site_fract_y
  _atom_site_fract_z
  _atom_site_occupancy
  Zn  Zn1       1.0  0.0085194812372151  0.43418928837545684  0.9412112079139803  1.0000
  Zn  Zn2       1.0  0.5696220602003662  0.5465868499287795  0.5036787111694637  1.0000
  Zn  Zn3       1.0  0.45341484277509636  0.43037961056054996  0.4963234569746006  1.0000
  Zn  Zn4       1.0  0.008613915457246398  0.5599050704059536  0.07179041976772281  1.0000
  Zn  Zn5       1.0  0.5658076117542591  0.9914846468320918  0.058790678904394274  1.0000
  Zn  Zn6       1.0  0.44009131290503223  0.991387377241054  0.9282076561837015  1.0000
  H   H1        1.0  0.9719080680475043  0.6362566698404565  0.9097184101949551  1.0000
  H   H2        1.0  0.9997893713382098  0.3127835002496867  0.20030484922672556  1.0000
  H   H3        1.0  0.30494954223905785  0.9852493019190689  0.17256327975550084  1.0000
  H   H4        1.0  0.6872162977839905  0.00021123285770137132  0.7996946194613201  1.0000
  H   H5        1.0  0.014751398793251297  0.6950531607813557  0.8274384468581103  1.0000
  H   H6        1.0  0.733085923306156  0.426798933578418  0.964855637824549  1.0000
  H   H7        1.0  0.28263086968634343  0.6931607524679535  0.16707442348735674  1.0000
  H   H8        1.0  0.5732057124024551  0.26691332680024976  0.03514513095159094  1.0000
  H   H9        1.0  0.04305860694702799  0.43102468778609193  0.17597469262562274  1.0000
  H   H10       1.0  0.30683700993676405  0.7173682561826881  0.8329238760863974  1.0000
  H   H11       1.0  0.9373722602413396  0.5962482396598718  0.5606505021192875  1.0000
  H   H12       1.0  0.04427837521253509  0.17800190094427387  0.29090044212576055  1.0000
  H   H13       1.0  0.4037591153850713  0.06262778499468175  0.43934996598039083  1.0000
  H   H14       1.0  0.8220000751942534  0.9557218067879845  0.7091018263324997  1.0000
  H   H15       1.0  0.3637393597706692  0.028093767543083587  0.090279651280504  1.0000
  H   H16       1.0  0.7777005947762915  0.6300723295812104  0.5871879913582916  1.0000
  H   H17       1.0  0.2778405819775572  0.22316386426944493  0.289671298285036  1.0000
  H   H18       1.0  0.36993153448436533  0.22229916739266292  0.4128132164725642  1.0000
  H   H19       1.0  0.7768327493464399  0.7221573200916892  0.7103287085080511  1.0000
  H   H20       1.0  0.5689751492793461  0.9569424244556046  0.8240245234533531  1.0000
  H   H21       1.0  0.5008013159088165  0.4501920540200217  0.7042070309655699  1.0000
  H   H22       1.0  0.473143452413332  0.6850187462857704  0.33498960594893384  1.0000
  H   H23       1.0  0.5498080925485168  0.49920186715409887  0.2957966879973526  1.0000
  H   H24       1.0  0.31498063759047307  0.5268570732115734  0.6650087247155697  1.0000
  C   C1        1.0  0.8899275030559435  0.5217286296357955  0.9208727723210117  1.0000
  C   C2        1.0  0.17347387844318257  0.4528215620437379  0.22645188873860184  1.0000
  C   C3        1.0  0.6885100914231329  0.8787289236313354  0.7567790111990647  1.0000
  C   C4        1.0  0.8920938978904545  0.6173900496914085  0.7104614324752063  1.0000
  C   C5        1.0  0.1212716240527882  0.3114899408126419  0.2432221694791536  1.0000
  C   C6        1.0  0.3826120334449001  0.10790806267412022  0.28953991455937  1.0000
  C   C7        1.0  0.8081958466909639  0.5623611298812322  0.6723335275919949  1.0000
  C   C8        1.0  0.20437174705660507  0.3511978839628895  0.2657347722041905  1.0000
  C   C9        1.0  0.4376416053508833  0.19180578343566168  0.3276679385555425  1.0000
  C   C10       1.0  0.6488022609074022  0.7956290309073496  0.7342675722836915  1.0000
  C   C11       1.0  0.4420422855463926  0.15821475692023776  0.1944046171961702  1.0000
  C   C12       1.0  0.7790919487626695  0.5359629451636324  0.7222290785037302  1.0000
  C   C13       1.0  0.2341864528576068  0.42847776650212666  0.2664891012641988  1.0000
  C   C14       1.0  0.46403578788961397  0.22090919658312916  0.2777702421135401  1.0000
  C   C15       1.0  0.5715213041574144  0.765814983365445  0.7335120533616433  1.0000
  C   C16       1.0  0.5471780986268867  0.8265280491505254  0.7735501870919634  1.0000
  C   C17       1.0  0.7246218246965198  0.41211979227704626  0.8587685138372975  1.0000
  C   C18       1.0  0.3128424456204257  0.6373420160665404  0.22814116987890293  1.0000
  C   C19       1.0  0.5878797122961429  0.27537965989944274  0.14123276793993264  1.0000
  C   C20       1.0  0.36265711525498995  0.6871575748424803  0.7718584627307833  1.0000
  C   C21       1.0  0.9250388994657397  0.6431287235188774  0.6590442775386831  1.0000
  C   C22       1.0  0.8417887032145329  0.557953468616347  0.8055928936231638  1.0000
  C   C23       1.0  0.0847355662545155  0.22747877966597232  0.23536807728609693  1.0000
  C   C24       1.0  0.3568766395399692  0.07496260565639555  0.3409580910464385  1.0000
  C   C25       1.0  0.7725224238942944  0.9152652319669558  0.7646351791890639  1.0000
  C   C26       1.0  0.7546688007086642  0.5201021911150292  0.5753205577241757  1.0000
  C   C27       1.0  0.25582800275132195  0.3038647226309337  0.26542440542461776  1.0000
  C   C28       1.0  0.4799038885176756  0.24533466486693817  0.4246822622669981  1.0000
  C   C29       1.0  0.6961332269818071  0.7441718914851377  0.7345773373711069  1.0000
  C   C30       1.0  0.818977499991895  0.5171023585147977  0.848319372329655  1.0000
  C   C31       1.0  0.1983910262253943  0.5186222578116926  0.20889080517881098  1.0000
  C   C32       1.0  0.48289190052008024  0.18102526588783271  0.15167682254903536  1.0000
  C   C33       1.0  0.12903417793424407  0.5273949578299123  0.14824662140201636  1.0000
  C   C34       1.0  0.4813779264402029  0.8016101726391227  0.791110678348076  1.0000
  C   C35       1.0  0.7370317433177573  0.4613621285086608  0.8141158034795096  1.0000
  C   C36       1.0  0.28099937772245903  0.5588874280447554  0.23092713560274084  1.0000
  C   C37       1.0  0.5386337883242261  0.2629702116069552  0.18588174409743635  1.0000
  C   C38       1.0  0.44111331130763887  0.7190016691020277  0.7690739679574251  1.0000
  C   C39       1.0  0.4782633543462609  0.11007496551265926  0.07912091973302891  1.0000
  C   C40       1.0  0.6717972733657263  0.44841096689881244  0.7368312676959121  1.0000
  C   C41       1.0  0.34056429220488127  0.5331338761246299  0.26990778604803717  1.0000
  C   C42       1.0  0.5515889311000207  0.32820486260120424  0.2631683130211258  1.0000
  C   C43       1.0  0.46686600171966564  0.6594357850471511  0.7300931687163866  1.0000
  C   C44       1.0  0.4726035918549556  0.8709667640237768  0.8517541848770733  1.0000
  C   C45       1.0  0.6922101234709787  0.48630291544606763  0.6920812737594773  1.0000
  C   C46       1.0  0.32143220504524816  0.47734080178155835  0.29847532202872173  1.0000
  C   C47       1.0  0.5136970199830414  0.30779146073010827  0.30791812244590494  1.0000
  C   C48       1.0  0.5226580755074081  0.6785681200657476  0.7015253568942937  1.0000
  C   C49       1.0  0.5192736208343048  0.6106941754663494  0.6262912464918102  1.0000
  C   C50       1.0  0.5135956061567197  0.37335999137343373  0.3806747800236322  1.0000
  C   C51       1.0  0.38930785229106846  0.48072761208610615  0.37371037327522316  1.0000
  C   C52       1.0  0.6266421398503469  0.4864067604611862  0.6193272658281758  1.0000
  C   C53       1.0  0.909734381284288  0.362631723402366  0.9875250643372981  1.0000
  C   C54       1.0  0.11540597999287167  0.5795301726605047  0.9786721738111978  1.0000
  C   C55       1.0  0.6373592378782931  0.09026324407255261  0.012469097421032353  1.0000
  C   C56       1.0  0.4204659209070769  0.8845946568754924  0.021327117412397446  1.0000
  C   C57       1.0  0.8539006378080459  0.2988210286971623  0.9903690412873232  1.0000
  C   C58       1.0  0.18160062019875767  0.6400043958374653  0.9823670113085115  1.0000
  C   C59       1.0  0.7011680055547628  0.14609128278028996  0.009619748251111565  1.0000
  C   C60       1.0  0.3599982602878597  0.8184026009850244  0.01762828344935495  1.0000
  C   C61       1.0  0.8057560181000339  0.24843438254751507  0.9966055830132492  1.0000
  C   C62       1.0  0.23993403610272418  0.6968817043099946  0.9938618591397556  1.0000
  C   C63       1.0  0.7515556818010011  0.19423559795655626  0.0033777282205989492  1.0000
  C   C64       1.0  0.303114260184671  0.7600614343224165  0.00612925231100557  1.0000
  C   C65       1.0  0.9262678025493328  0.6167486846907692  0.8437253987644836  1.0000
  C   C66       1.0  0.08882244257293338  0.4104138632410183  0.20350818703991538  1.0000
  C   C67       1.0  0.383249671951667  0.07373490147576693  0.15627329976440765  1.0000
  C   C68       1.0  0.5895853899639647  0.9111785036659584  0.7964918244625991  1.0000
  C   C69       1.0  0.9504662397172365  0.6490043326631677  0.7984407685914263  1.0000
  C   C70       1.0  0.06438612909847309  0.3441809948889015  0.2163591641608136  1.0000
  C   C71       1.0  0.3509960236890777  0.04953517738367452  0.20156027618244116  1.0000
  C   C72       1.0  0.6558179843202582  0.9356140448410741  0.7836415085233384  1.0000
  S   S1        1.0  0.5682267429081094  0.3745235160192735  0.7074967169456698  1.0000
  S   S2        1.0  0.42888714599771294  0.5580206865985744  0.2527781476160555  1.0000
  S   S3        1.0  0.6254779494497099  0.4317770120683093  0.2925061073085259  1.0000
  S   S4        1.0  0.4419776323563979  0.5711124440163361  0.7472204950472161  1.0000
  O   O1        1.0  0.9168402786327547  0.46928226834965875  0.8947222955785391  1.0000
  O   O2        1.0  0.10037473695704337  0.4756774529856074  0.06946969007997694  1.0000
  O   O3        1.0  0.4604783140630743  0.4969028131919017  0.24920466782217687  1.0000
  O   O4        1.0  0.3975087159300585  0.5653903641151814  0.1765158751472101  1.0000
  O   O5        1.0  0.4997110355282857  0.6460345297854317  0.33530704281686513  1.0000
  O   O6        1.0  0.7064309216387629  0.44964686170292373  0.35562083068135325  1.0000
  O   O7        1.0  0.6093109168181243  0.4236000373520526  0.20947947904723924  1.0000
  O   O8        1.0  0.6033347678621226  0.5028771484835631  0.3371592073118351  1.0000
  O   O9        1.0  0.5030953259333374  0.5395220986094742  0.7507952425824698  1.0000
  O   O10       1.0  0.4346039627882589  0.6024872370255849  0.8234800100425446  1.0000
  O   O11       1.0  0.35396469790380536  0.5002900515296957  0.6646893408591908  1.0000
  O   O12       1.0  0.5503562316326336  0.29356930431944755  0.6443807777351792  1.0000
  O   O13       1.0  0.4240030178771477  0.08067623575109913  0.9996704543533211  1.0000
  O   O14       1.0  0.5764037046354104  0.3906899274785119  0.7905220726794864  1.0000
  O   O15       1.0  0.4971261364679974  0.39666633171972165  0.6628428012518484  1.0000
  O   O16       1.0  0.5243212379338756  0.899627090281264  0.9305320074357225  1.0000
  O   O17       1.0  0.919321901235179  0.5759859671858367  0.00032424016514912934  1.0000
  O   O18       1.0  0.9352109568590166  0.33765597804281827  0.933589372608651  1.0000
  O   O19       1.0  0.08860420948988691  0.6093248269395914  0.028542587414556102  1.0000
  O   O20       1.0  0.6623392553831663  0.06479350140755707  0.06641141293287228  1.0000
  O   O21       1.0  0.10137318752280322  0.5794771242523141  0.17621823318609842  1.0000
  O   O22       1.0  0.3906745026807953  0.9113971337371538  0.9714576140430824  1.0000
  O   O23       1.0  0.9296854435381048  0.4382183251037048  0.03937462679517259  1.0000
  O   O24       1.0  0.09014531156999077  0.5015552298642518  0.9261061167949265  1.0000
  O   O25       1.0  0.5617739660794497  0.0703116570451954  0.9606198315552561  1.0000
  O   O26       1.0  0.49844189321809307  0.9098617895422547  0.07389692537205424  1.0000
  O   O27       1.0  0.5307144823849157  0.08316647072597061  0.10527257598151615  1.0000
  O   O28       1.0  0.47444526080600724  0.5346395388134225  0.5997752956329095  1.0000
  O   O29       1.0  0.5750904518707641  0.4455280111059068  0.4290333378123634  1.0000
  O   O30       1.0  0.46536175031218346  0.5255567354858144  0.4002268520483057  1.0000
  O   O31       1.0  0.5544744497932115  0.42491113805320435  0.5709690691351172  1.0000
  O   O32       1.0  0.42052110493167305  0.8986270997138773  0.8237806619597806  1.0000
  O   O33       1.0  0.5545020016014847  0.635559008305563  0.5887308045963309  1.0000
  O   O34       1.0  0.44774772877569546  0.3515798709937314  0.3867580181665318  1.0000
  O   O35       1.0  0.36444225435842265  0.44549719926877873  0.4112698018702901  1.0000
  O   O36       1.0  0.6484224920327506  0.5522549923464198  0.6132452877619486  1.0000
  O   O37       1.0  0.714694615280017  0.33987877608534245  0.8308899728740969  1.0000
  O   O38       1.0  0.7382511824987718  0.46182992778148  0.9384795061561064  1.0000
  O   O39       1.0  0.3801295612109071  0.6992033531086506  0.2865393174476907  1.0000
  O   O40       1.0  0.25859107548847493  0.6375315937563851  0.1601797733036533  1.0000
  O   O41       1.0  0.6601201972612358  0.28530882371800464  0.16911442754945225  1.0000
  O   O42       1.0  0.5381722698921435  0.2617473558507654  0.06151855609298442  1.0000
  O   O43       1.0  0.30079442558538727  0.619871153028285  0.7134569449212549  1.0000
  O   O44       1.0  0.36246752385710573  0.741408741202164  0.8398218732108516  1.0000
  O   O45       1.0  0.9526389239240345  0.7150604356725054  0.6732815432595346  1.0000
  O   O46       1.0  0.9211959417185154  0.5773192655486097  0.5961378907403868  1.0000
  O   O47       1.0  0.0671944922315646  0.16117979868911184  0.175589373091448  1.0000
  O   O48       1.0  0.0697900655813299  0.23491877301169944  0.30112455876462  1.0000
  O   O49       1.0  0.2849460128473637  0.04736270776277958  0.32672387752685944  1.0000
  O   O50       1.0  0.4226864818652699  0.0788047758540884  0.4038622386038853  1.0000
  O   O51       1.0  0.8388207102253842  0.9328060633886537  0.8244135396191155  1.0000
  O   O52       1.0  0.7650830755662098  0.9302093520497648  0.6988779117076261  1.0000
  O   O53       1.0  0.7221892931801364  0.44473834296885423  0.529371741671369  1.0000
  O   O54       1.0  0.7487775047304055  0.5715161867001086  0.5405597897577508  1.0000
  O   O55       1.0  0.29252714528961116  0.3000335670726457  0.2247184492593419  1.0000
  O   O56       1.0  0.2518257165363523  0.2594816590677739  0.30671797189707223  1.0000
  O   O57       1.0  0.5552620465826336  0.2778125768605831  0.4706263500049842  1.0000
  O   O58       1.0  0.42848791194944624  0.25122272358739656  0.4594411470274906  1.0000
  O   O59       1.0  0.6999632032815412  0.7074726814211375  0.7752828385147765  1.0000
  O   O60       1.0  0.7405168100743467  0.7481744672876189  0.6932840599545785  1.0000
