data_image0
_chemical_formula_structural       Cd2H52C44I4N8
_chemical_formula_sum              "Cd2 H52 C44 I4 N8"
_cell_length_a       9.21363617107711
_cell_length_b       10.460219045196528
_cell_length_c       14.038651070889353
_cell_angle_alpha    86.2694432312079
_cell_angle_beta     76.68427025179507
_cell_angle_gamma    70.73825600736184

_space_group_name_H-M_alt    "P 1"
_space_group_IT_number       1

loop_
  _space_group_symop_operation_xyz
  'x, y, z'

loop_
  _atom_site_type_symbol
  _atom_site_label
  _atom_site_symmetry_multiplicity
  _atom_site_fract_x
  _atom_site_fract_y
  _atom_site_fract_z
  _atom_site_occupancy
  Cd  Cd1       1.0  0.768804820005961  0.3636117795475258  0.21320083400358675  1.0000
  Cd  Cd2       1.0  0.23119443843379622  0.6363855261717646  0.7868015675202358  1.0000
  H   H1        1.0  0.6287824557624829  0.2860975237599773  0.029456969171277984  1.0000
  H   H2        1.0  0.3712234597310412  0.7139028296886565  0.9705428644544868  1.0000
  H   H3        1.0  0.9480277441054454  0.03217747219485291  0.2697691355562526  1.0000
  H   H4        1.0  0.05197667791988882  0.96782388717201  0.730230156919454  1.0000
  H   H5        1.0  0.90012840505085  0.7811069012748109  0.991346549821465  1.0000
  H   H6        1.0  0.09987602905189157  0.21889444956865134  0.008651316627407393  1.0000
  H   H7        1.0  0.7896639364393038  0.9841733644535394  0.8739604025034851  1.0000
  H   H8        1.0  0.2103389981565371  0.015828996569844392  0.1260376358087427  1.0000
  H   H9        1.0  0.6313304841044952  0.14004150088861417  0.8971340046694465  1.0000
  H   H10       1.0  0.3686694394001505  0.8599628890180072  0.10286580339633392  1.0000
  H   H11       1.0  0.41703336547858777  0.5579002798496404  0.3346811088578506  1.0000
  H   H12       1.0  0.5829604046054442  0.44209394235632954  0.6653172776971275  1.0000
  H   H13       1.0  0.8184288403969474  0.1238661272158978  0.401073001283578  1.0000
  H   H14       1.0  0.18156080424617463  0.8761301213020048  0.5989273207710895  1.0000
  H   H15       1.0  0.29768672638444826  0.2934323255259769  0.6416288489429435  1.0000
  H   H16       1.0  0.7023118089014985  0.7065639606090954  0.3583729991963693  1.0000
  H   H17       1.0  0.3784888800222036  0.11124928188608148  0.7447938787014934  1.0000
  H   H18       1.0  0.6215062710927555  0.8887500373600545  0.25520831928175614  1.0000
  H   H19       1.0  0.583007351589245  0.0204798920709237  0.7312195029794992  1.0000
  H   H20       1.0  0.4169874554903925  0.979517399101482  0.26878284851542134  1.0000
  H   H21       1.0  0.467266776692149  0.95920407278728  0.6736413732788122  1.0000
  H   H22       1.0  0.5327279892656165  0.040796259210075916  0.32636083082166323  1.0000
  H   H23       1.0  0.10971363440486202  0.3578629497869842  0.5167777353054888  1.0000
  H   H24       1.0  0.8902826733307306  0.6421363421985689  0.48321930583769307  1.0000
  H   H25       1.0  0.11263803328748166  0.43895821968387594  0.4027105678495673  1.0000
  H   H26       1.0  0.8873615642979544  0.5610441293639212  0.5972872546876217  1.0000
  H   H27       1.0  0.1759165925672263  0.6281938432702602  0.4715927576340065  1.0000
  H   H28       1.0  0.8240841484123748  0.3718054760472711  0.5284064725783395  1.0000
  H   H29       1.0  0.17860709437787384  0.5421894417451938  0.5837468910140303  1.0000
  H   H30       1.0  0.8213858110706268  0.45781289613650955  0.41625263901335796  1.0000
  H   H31       1.0  0.07003402021376101  0.5791427957223759  0.03908357590940878  1.0000
  H   H32       1.0  0.9299629985982351  0.42085752437078827  0.9609154446451313  1.0000
  H   H33       1.0  0.03580169406657765  0.5600252125467478  0.16767151543060524  1.0000
  H   H34       1.0  0.964196041860525  0.4399761313923277  0.8323287715218727  1.0000
  H   H35       1.0  0.2084445313648828  0.5918413879080688  0.1042746614998649  1.0000
  H   H36       1.0  0.7915570391670883  0.40815285229697906  0.8957225648322196  1.0000
  H   H37       1.0  0.06378148248953854  0.6786444254994636  0.30467124692988534  1.0000
  H   H38       1.0  0.9362210488330049  0.321358961060227  0.6953289365398234  1.0000
  H   H39       1.0  0.10020538586494604  0.829347124363835  0.3291180442069006  1.0000
  H   H40       1.0  0.899796784455219  0.17065725790028816  0.6708792933263581  1.0000
  H   H41       1.0  0.23012068213567727  0.7151043103458006  0.2341361985511696  1.0000
  H   H42       1.0  0.7698833366163529  0.2848980745573683  0.7658652390820251  1.0000
  H   H43       1.0  0.8975969768039107  0.93205343548275  0.4952263568780425  1.0000
  H   H44       1.0  0.10240005293643857  0.0679438650939446  0.5047763761380396  1.0000
  H   H45       1.0  0.7399580598812039  0.8673566978178827  0.5428099999398555  1.0000
  H   H46       1.0  0.26004048144344694  0.13263958405549664  0.4571911351860365  1.0000
  H   H47       1.0  0.8126402698534108  0.9401589153049059  0.622920986962491  1.0000
  H   H48       1.0  0.18735488730025907  0.059840399679529796  0.37708049800733795  1.0000
  H   H49       1.0  0.5305332127785577  0.950449578592483  0.8938930311686378  1.0000
  H   H50       1.0  0.4694689745086578  0.049551779893477  0.1061073058127491  1.0000
  H   H51       1.0  0.6309428738186753  0.8613593909873883  0.982947305558227  1.0000
  H   H52       1.0  0.36906223023859747  0.13864602878863508  0.017052392907551485  1.0000
  C   C1        1.0  0.7013539902050782  0.19278468383968314  0.05658504651231055  1.0000
  C   C2        1.0  0.29865305775426537  0.8072156593951545  0.9434124823270693  1.0000
  C   C3        1.0  0.8337588279516338  0.9747796418497784  0.06560760623251838  1.0000
  C   C4        1.0  0.1662526834452365  0.0252207074085504  0.934388546608929  1.0000
  C   C5        1.0  0.846202007127623  0.0468499405771112  0.14329063234328018  1.0000
  C   C6        1.0  0.1538094982305368  0.9531504129429178  0.8567062335115877  1.0000
  C   C7        1.0  0.9341983342578426  0.977662919774062  0.2107698970044183  1.0000
  C   C8        1.0  0.0658057146877127  0.022339443820619902  0.7892279755616798  1.0000
  C   C9        1.0  0.008618285786312295  0.8380518438547707  0.1994345671991269  1.0000
  C   C10       1.0  0.991388377015845  0.1619495121312866  0.8005629677574859  1.0000
  C   C11       1.0  0.9970719315434804  0.766878776895055  0.11954443831261596  1.0000
  C   C12       1.0  0.00293511037715889  0.23312157060147598  0.8804538035401919  1.0000
  C   C13       1.0  0.9083722536152049  0.8355322495554917  0.05251767221415806  1.0000
  C   C14       1.0  0.09163702304354619  0.164468098821942  0.9474795251329696  1.0000
  C   C15       1.0  0.686584264638526  0.0421187941667256  0.9288565375380886  1.0000
  C   C16       1.0  0.3134190079539394  0.9578855991920887  0.07114206027587498  1.0000
  C   C17       1.0  0.4533983488098201  0.4702341096514146  0.3802642616093905  1.0000
  C   C18       1.0  0.5465979287322539  0.5297652036426257  0.6197363446008951  1.0000
  C   C19       1.0  0.44464009112035535  0.326853896285037  0.5031502387262137  1.0000
  C   C20       1.0  0.5553539456449031  0.6731454203898009  0.4968521250031657  1.0000
  C   C21       1.0  0.5907727786871034  0.2804043183225033  0.4352775722085553  1.0000
  C   C22       1.0  0.40922087895966536  0.7195960068418542  0.5647240846246291  1.0000
  C   C23       1.0  0.7043401268023856  0.15958133259049836  0.45208125718644254  1.0000
  C   C24       1.0  0.2956509641483577  0.8404169550958329  0.5479201716372586  1.0000
  C   C25       1.0  0.6690058033382583  0.0847684246510596  0.5349481954050007  1.0000
  C   C26       1.0  0.33098902185749784  0.9152288537362451  0.46505201704966476  1.0000
  C   C27       1.0  0.5213793532926445  0.1332919132929007  0.6036818462314314  1.0000
  C   C28       1.0  0.4786158570603048  0.8667043523431915  0.3963183601060082  1.0000
  C   C29       1.0  0.40886506229908554  0.25560316005785916  0.5879700355014421  1.0000
  C   C30       1.0  0.5911312563648606  0.744393112411224  0.41203071810328146  1.0000
  C   C31       1.0  0.48524004199441606  0.0523805497474257  0.6931301115696586  1.0000
  C   C32       1.0  0.5147539947708422  0.9476187669274126  0.3068722521597138  1.0000
  C   C33       1.0  0.08618920432132171  0.4580269954942011  0.48207560360548035  1.0000
  C   C34       1.0  0.9138089348790855  0.5419733229085606  0.5179225381895094  1.0000
  C   C35       1.0  0.19670472223438645  0.5273656611370684  0.504544671093548  1.0000
  C   C36       1.0  0.8032922905389057  0.47263466321778935  0.49545506247441307  1.0000
  C   C37       1.0  0.08166407766412928  0.6177225964270077  0.1067033177121388  1.0000
  C   C38       1.0  0.918337048472658  0.3822757101393037  0.8932959063829814  1.0000
  C   C39       1.0  0.105266218976638  0.7619556231700811  0.2707745854183088  1.0000
  C   C40       1.0  0.8947374387730135  0.2380477574375135  0.7292240062784359  1.0000
  C   C41       1.0  0.7861764395453932  0.9500890756906488  0.5498149526272513  1.0000
  C   C42       1.0  0.21382133750357468  0.04990922742346979  0.4501854817196715  1.0000
  C   C43       1.0  0.570203685375496  0.9638744905556393  0.9595904074037237  1.0000
  C   C44       1.0  0.4297991899823685  0.0361309240777885  0.040409622554307086  1.0000
  I   I1        1.0  0.07360125863230141  0.2875763789981107  0.23918631520623282  1.0000
  I   I2        1.0  0.9263927660555494  0.7124229462001209  0.7608174745499809  1.0000
  I   I3        1.0  0.6168094807509944  0.6014898984742771  0.12923512418988986  1.0000
  I   I4        1.0  0.383191591037459  0.39850844644730893  0.8707705170260028  1.0000
  N   N1        1.0  0.7617245427844495  0.1834898197497665  0.13535385902989813  1.0000
  N   N2        1.0  0.23828211397899668  0.8165115404979915  0.8646443889401355  1.0000
  N   N3        1.0  0.741517898500021  0.07078517904667339  0.011978917670440075  1.0000
  N   N4        1.0  0.2584906078443508  0.9292171948332  0.9880182919111392  1.0000
  N   N5        1.0  0.5922639802122874  0.37277739337038435  0.35924089513370205  1.0000
  N   N6        1.0  0.4077293394378642  0.6272208994585426  0.6407602021977398  1.0000
  N   N7        1.0  0.36095137191213655  0.4485214561847713  0.46602178075067263  1.0000
  N   N8        1.0  0.6390445083953366  0.5514788783838824  0.5339802576036732  1.0000
