data_image0
_chemical_formula_structural       Al4H40C48O24
_chemical_formula_sum              "Al4 H40 C48 O24"
_cell_length_a       6.660173250239221
_cell_length_b       17.02794016270768
_cell_length_c       16.076547299406663
_cell_angle_alpha    78.71850401566063
_cell_angle_beta     86.27486898397781
_cell_angle_gamma    86.48522491207535

_space_group_name_H-M_alt    "P 1"
_space_group_IT_number       1

loop_
  _space_group_symop_operation_xyz
  'x, y, z'

loop_
  _atom_site_type_symbol
  _atom_site_label
  _atom_site_symmetry_multiplicity
  _atom_site_fract_x
  _atom_site_fract_y
  _atom_site_fract_z
  _atom_site_occupancy
  Al  Al1       1.0  0.1293631194361708  0.5010038767906194  0.49738482503169473  1.0000
  Al  Al2       1.0  0.629368378584701  0.5006051718907188  0.49835543738380034  1.0000
  Al  Al3       1.0  0.6422484438334025  0.9971721200502371  0.998882427591326  1.0000
  Al  Al4       1.0  0.142688218444988  0.9970718102965037  0.9969408566698236  1.0000
  H   H1        1.0  0.641800458197075  0.862749304079898  0.8146466420440605  1.0000
  H   H2        1.0  0.6310470521411703  0.1321862718220714  0.1897980563855555  1.0000
  H   H3        1.0  0.49274124938008174  0.7974514988425623  0.7093226887777249  1.0000
  H   H4        1.0  0.7721106082220148  0.19949135591195952  0.2949140037892164  1.0000
  H   H5        1.0  0.2626372918643582  0.6847242506599613  0.8073726653524248  1.0000
  H   H6        1.0  0.007640801761560595  0.3097902955369917  0.18774238248804664  1.0000
  H   H7        1.0  0.5242125270683005  0.6969298206161126  0.6142599528413799  1.0000
  H   H8        1.0  0.7345551245936761  0.3028054255714707  0.3865240558793915  1.0000
  H   H9        1.0  0.1280958459050652  0.6286970947703594  0.6890564759325529  1.0000
  H   H10       1.0  0.1362748761250216  0.3699464702987143  0.3039764399435186  1.0000
  H   H11       1.0  0.6028095950975472  0.16140270438713597  0.7650077781363792  1.0000
  H   H12       1.0  0.13022348375415055  0.753735261704172  0.14850517414086536  1.0000
  H   H13       1.0  0.5755580144722429  0.22240824451814936  0.8422242580120027  1.0000
  H   H14       1.0  0.36095936920724375  0.7240910351606686  0.0992639553447177  1.0000
  H   H15       1.0  0.5776738025461371  0.337359122212284  0.7368923711647996  1.0000
  H   H16       1.0  0.4290389596113685  0.6195089411082506  0.21126738635641124  1.0000
  H   H17       1.0  0.5883251871949968  0.27703453220282637  0.6593885898102912  1.0000
  H   H18       1.0  0.17294352826448997  0.6325325302799953  0.24576983865433993  1.0000
  H   H19       1.0  0.9554921443766206  0.11463194355063422  0.7151266186383793  1.0000
  H   H20       1.0  0.12278855438729154  0.8605608992644774  0.23888149951416446  1.0000
  H   H21       1.0  0.9261995294543582  0.22505545265681803  0.6048118848200874  1.0000
  H   H22       1.0  0.0866123730025592  0.7398421215676194  0.336762727710834  1.0000
  H   H23       1.0  0.12632632633990687  0.24191070763814085  0.8605227961625418  1.0000
  H   H24       1.0  0.6952633576912677  0.8315091894022472  0.21144294542831696  1.0000
  H   H25       1.0  0.8807312325852763  0.27702637926172  0.8912840157147033  1.0000
  H   H26       1.0  0.6809844214350066  0.7506012255610415  0.15834388040124028  1.0000
  H   H27       1.0  0.14083180088267974  0.3447940182174705  0.7412560420608543  1.0000
  H   H28       1.0  0.625954284756567  0.7517969154082778  0.3458593210625693  1.0000
  H   H29       1.0  0.16777018367726984  0.15317147651320787  0.750935310858786  1.0000
  H   H30       1.0  0.34978698283390497  0.8792495684307794  0.2817496404180204  1.0000
  H   H31       1.0  0.15148944058574187  0.2595596685575288  0.634018890042718  1.0000
  H   H32       1.0  0.2754980067759902  0.7721075439309218  0.3927823725794611  1.0000
  H   H33       1.0  0.925988871329402  0.46452270663111517  0.7390990685443626  1.0000
  H   H34       1.0  0.8705620868305389  0.6492323226956599  0.34823994195089375  1.0000
  H   H35       1.0  0.2199847823109593  0.8003698607980854  0.9808056839547916  1.0000
  H   H36       1.0  0.06929822138884133  0.19807071877946916  0.012945472149837703  1.0000
  H   H37       1.0  0.3682118685680606  0.459650382009805  0.6059448590053337  1.0000
  H   H38       1.0  0.8958328453272061  0.4996484116373309  0.3872027928709016  1.0000
  H   H39       1.0  0.40430400780758907  0.0436087814525123  0.8919468462307735  1.0000
  H   H40       1.0  0.8770606478195547  0.023621218277526206  0.09706736529598461  1.0000
  C   C1        1.0  0.3749002627463014  0.6179384139631879  0.3849339962317515  1.0000
  C   C2        1.0  0.8829079414059252  0.38425204748646996  0.6131406936948524  1.0000
  C   C3        1.0  0.41283787181841103  0.4027494102801371  0.4057924551024641  1.0000
  C   C4        1.0  0.8460340945421053  0.5985052198052542  0.5890431424105457  1.0000
  C   C5        1.0  0.933754866192267  0.8304812175927837  0.8618585315603013  1.0000
  C   C6        1.0  0.3434400570751706  0.16383903353962387  0.13795801514054773  1.0000
  C   C7        1.0  0.8300787199732512  0.658277057616985  0.6458237789225124  1.0000
  C   C8        1.0  0.43105540839892614  0.34114457859162434  0.351000550786118  1.0000
  C   C9        1.0  0.631469548155046  0.7606878443414614  0.7045630121689116  1.0000
  C   C10       1.0  0.6330769927201061  0.23652689447357025  0.29730148817458973  1.0000
  C   C11       1.0  0.648368790882742  0.705570588626365  0.6519696746883525  1.0000
  C   C12       1.0  0.6128255289129784  0.2932768618395869  0.3479796909508934  1.0000
  C   C13       1.0  0.9899499735700843  0.6657339311290259  0.6942138201564845  1.0000
  C   C14       1.0  0.27425242049012166  0.3323218613211906  0.3016351483200026  1.0000
  C   C15       1.0  0.9738451850546569  0.719901858062805  0.7510996795491991  1.0000
  C   C16       1.0  0.29376931625397174  0.2763572234621705  0.24671983776815412  1.0000
  C   C17       1.0  0.7921866478151145  0.7692948316937773  0.7553674694398185  1.0000
  C   C18       1.0  0.47581745340678344  0.22676519419655256  0.24527432762710077  1.0000
  C   C19       1.0  0.7778802034004644  0.8242944333966234  0.811232091091796  1.0000
  C   C20       1.0  0.49452504495341293  0.1707074505614159  0.19060596002427846  1.0000
  C   C21       1.0  0.11081000463055089  0.7784327186042647  0.8611059465898308  1.0000
  C   C22       1.0  0.1652266639096851  0.21550932192997863  0.13659488788770346  1.0000
  C   C23       1.0  0.1284690442440564  0.7250840323531307  0.8058650377292764  1.0000
  C   C24       1.0  0.1424173411909138  0.26964945329010703  0.1909444043334148  1.0000
  C   C25       1.0  0.6672586417206999  0.2117651186951406  0.785841148870567  1.0000
  C   C26       1.0  0.2900252656476851  0.7373102838178767  0.15896423015588826  1.0000
  C   C27       1.0  0.663524144053916  0.2874797805152767  0.7148186905187404  1.0000
  C   C28       1.0  0.3153247527515788  0.662787331855661  0.23076775740271677  1.0000
  C   C29       1.0  0.01160662157347761  0.1681167820200216  0.7330221084207409  1.0000
  C   C30       1.0  0.2694233517072107  0.833243028927285  0.2596147351319189  1.0000
  C   C31       1.0  0.9746418102957719  0.25952655327683516  0.8383285033780157  1.0000
  C   C32       1.0  0.6064527180848813  0.7802531798517336  0.2078367075338292  1.0000
  C   C33       1.0  0.8844800376849735  0.1877726490592693  0.8110391646590784  1.0000
  C   C34       1.0  0.391458597386709  0.8085648857790276  0.18256617935055167  1.0000
  C   C35       1.0  0.8790822981364811  0.31210392771957624  0.6862245835882634  1.0000
  C   C36       1.0  0.3838180053279956  0.6886558340922021  0.3112688017800522  1.0000
  C   C37       1.0  0.0005688467216487055  0.24059897212961798  0.6581945690096944  1.0000
  C   C38       1.0  0.2423473459046477  0.7587820084815037  0.3309348887310861  1.0000
  C   C39       1.0  0.9841349771839492  0.33185548089348066  0.7638201860248941  1.0000
  C   C40       1.0  0.5993960709500925  0.7204602179049573  0.29404059379364617  1.0000
  C   C41       1.0  0.3665822853540491  0.0990532186193036  0.0869951797133055  1.0000
  C   C42       1.0  0.9146292006236934  0.8952003591415831  0.9128653656106709  1.0000
  C   C43       1.0  0.38992014855334395  0.8807488725915034  0.11014100876784735  1.0000
  C   C44       1.0  0.892849446405265  0.11437460325508647  0.8823958275243698  1.0000
  C   C45       1.0  0.8877593640605215  0.40888121167582636  0.7858112482857466  1.0000
  C   C46       1.0  0.7657402670372591  0.6549096764302931  0.29608637139009636  1.0000
  C   C47       1.0  0.26504660722591916  0.7725761949865487  0.9251880399350157  1.0000
  C   C48       1.0  0.0146011742514105  0.22022724920037715  0.0712404807456863  1.0000
  O   O1        1.0  0.5762352871180527  0.42123964942676645  0.4326793349988733  1.0000
  O   O2        1.0  0.021037288683132305  0.5684155518117393  0.5731650414382444  1.0000
  O   O3        1.0  0.20313361370010347  0.5947223698121463  0.41567540283239884  1.0000
  O   O4        1.0  0.7139698285533314  0.41685453788385723  0.589201634899652  1.0000
  O   O5        1.0  0.23700524996648656  0.43270430021993894  0.42080170989913773  1.0000
  O   O6        1.0  0.6827754096441865  0.5806253965751295  0.5617977208636376  1.0000
  O   O7        1.0  0.05513444708198281  0.4071515558122982  0.5820409518060856  1.0000
  O   O8        1.0  0.5424210144802899  0.5849421652595054  0.41052639666216356  1.0000
  O   O9        1.0  0.37184059706752504  0.49383909650104835  0.5501330915079593  1.0000
  O   O10       1.0  0.8865083974108217  0.5045921970987874  0.4464370335016596  1.0000
  O   O11       1.0  0.22193436705707376  0.9036294085446529  0.07731577407034247  1.0000
  O   O12       1.0  0.7288837894722422  0.0799421710662287  0.9061503933146255  1.0000
  O   O13       1.0  0.5448338605587324  0.07789624972489412  0.0639356622038108  1.0000
  O   O14       1.0  0.0759854040495327  0.9276160157993375  0.9241374553574531  1.0000
  O   O15       1.0  0.5538512598917508  0.9155474102221461  0.08864008922203234  1.0000
  O   O16       1.0  0.06442633909183831  0.09140998828199538  0.9120784257145402  1.0000
  O   O17       1.0  0.7383981204993546  0.9156297824432117  0.9384658724887275  1.0000
  O   O18       1.0  0.20511594103910374  0.06811582273878261  0.0726013897463602  1.0000
  O   O19       1.0  0.3994112824709789  0.005208919677194498  0.9451711661284464  1.0000
  O   O20       1.0  0.8863739566803801  0.9957363924980385  0.049755007849014994  1.0000
  O   O21       1.0  0.7729877108940856  0.41296593170236656  0.8471783613223067  1.0000
  O   O22       1.0  0.7952068176590216  0.612681966835666  0.2423663295724836  1.0000
  O   O23       1.0  0.42995359579062864  0.7368853612561849  0.9202669640958306  1.0000
  O   O24       1.0  0.8426600528653694  0.2494877156606492  0.0776987877260282  1.0000
