data_image0
_chemical_formula_structural       Zn8H110C126N18O34
_chemical_formula_sum              "Zn8 H110 C126 N18 O34"
_cell_length_a       12.332084141541715
_cell_length_b       19.955083046588914
_cell_length_c       19.95508726896842
_cell_angle_alpha    102.56105305387557
_cell_angle_beta     94.21293061863356
_cell_angle_gamma    94.21289951345193

_space_group_name_H-M_alt    "P 1"
_space_group_IT_number       1

loop_
  _space_group_symop_operation_xyz
  'x, y, z'

loop_
  _atom_site_type_symbol
  _atom_site_label
  _atom_site_symmetry_multiplicity
  _atom_site_fract_x
  _atom_site_fract_y
  _atom_site_fract_z
  _atom_site_occupancy
  Zn  Zn1       1.0  0.6148218692491911  0.5640556908540616  0.0762769667059615  1.0000
  Zn  Zn2       1.0  0.11482233350646003  0.0762774860884008  0.5640558124753525  1.0000
  Zn  Zn3       1.0  0.8064194218773649  0.5268716663625953  0.017439340317849925  1.0000
  Zn  Zn4       1.0  0.30641885981980016  0.0174398978058505  0.5268716675651106  1.0000
  Zn  Zn5       1.0  0.40797856444515906  0.6116969559725689  0.3369632202468367  1.0000
  Zn  Zn6       1.0  0.9079774438555861  0.33696375964568404  0.6116968537477732  1.0000
  Zn  Zn7       1.0  0.49982027687247677  0.7489711471182829  0.48788422371438855  1.0000
  Zn  Zn8       1.0  0.9998203962032266  0.48788340143990905  0.7489707654957556  1.0000
  H   H1        1.0  0.33921383162456215  0.6359935432214243  0.5386515074730909  1.0000
  H   H2        1.0  0.8392141634400616  0.5386517097777244  0.6359934123127289  1.0000
  H   H3        1.0  0.37179185665112874  0.4723615042266049  0.5855341308284636  1.0000
  H   H4        1.0  0.8717917074659953  0.5855342499472157  0.4723613815034966  1.0000
  H   H5        1.0  0.26307785895527763  0.5080362981919888  0.5466459230488496  1.0000
  H   H6        1.0  0.7630777949256499  0.5466457444595108  0.508035369412049  1.0000
  H   H7        1.0  0.337436673688167  0.5555777511058863  0.6250834827993117  1.0000
  H   H8        1.0  0.8374353384663423  0.6250828904387616  0.5555771752467678  1.0000
  H   H9        1.0  0.5165236249751715  0.4662158856389241  0.5331509517012947  1.0000
  H   H10       1.0  0.016523610079985877  0.5331507694529803  0.466216090699163  1.0000
  H   H11       1.0  0.5918111526746234  0.5456291213758035  0.5301208181905821  1.0000
  H   H12       1.0  0.09181125165938651  0.5301203338555283  0.5456286999040499  1.0000
  H   H13       1.0  0.5100423706339825  0.497729165354187  0.4556387161893909  1.0000
  H   H14       1.0  0.010042910139063074  0.45563853866882903  0.49772895688648333  1.0000
  H   H15       1.0  0.49437492138224576  0.5386287682889516  0.20123525327354488  1.0000
  H   H16       1.0  0.994375058814967  0.2012353156038955  0.5386291842982516  1.0000
  H   H17       1.0  0.5605598795136687  0.624025852393032  0.2211240424128391  1.0000
  H   H18       1.0  0.0605593637960169  0.2211236526691137  0.6240263107521784  1.0000
  H   H19       1.0  0.5351584931835802  0.6993820585473356  0.1423700450178558  1.0000
  H   H20       1.0  0.03515827181263381  0.1423701608731918  0.6993826520830382  1.0000
  H   H21       1.0  0.4516093822275594  0.6688208542215153  0.06300703369982592  1.0000
  H   H22       1.0  0.9516092065893461  0.06300706679865435  0.6688213825346168  1.0000
  H   H23       1.0  0.36268100328061353  0.5534717494651034  0.03487794412286859  1.0000
  H   H24       1.0  0.8626804701834629  0.0348778551235824  0.5534718019901064  1.0000
  H   H25       1.0  0.38214069295852954  0.49743497371699164  0.0929031321132499  1.0000
  H   H26       1.0  0.8821397388959942  0.09290295223539148  0.4974354933392178  1.0000
  H   H27       1.0  0.30866019889131735  0.707416606499443  0.2502036564221441  1.0000
  H   H28       1.0  0.8086582013233325  0.2502034497072216  0.7074166334491283  1.0000
  H   H29       1.0  0.4532839381334029  0.7215524588515977  0.24909844149252083  1.0000
  H   H30       1.0  0.9532826902561524  0.24909833060124237  0.7215520978924914  1.0000
  H   H31       1.0  0.1962163943101984  0.6659599329388897  0.14288139357804402  1.0000
  H   H32       1.0  0.6962165163557902  0.1428809958369968  0.6659600685288538  1.0000
  H   H33       1.0  0.2575377020027148  0.6486404310779219  0.06302105079228672  1.0000
  H   H34       1.0  0.7575368661053831  0.0630212281106211  0.6486409038921864  1.0000
  H   H35       1.0  0.3004657207842882  0.5197776927332215  0.20105837351085404  1.0000
  H   H36       1.0  0.8004651895907458  0.20105829784364454  0.5197775442554756  1.0000
  H   H37       1.0  0.2197713458366124  0.591627354068116  0.22155846777919663  1.0000
  H   H38       1.0  0.7197700815173533  0.2215585759242913  0.5916276557651017  1.0000
  H   H39       1.0  0.8600261093312656  0.4678001399796726  0.871585070833035  1.0000
  H   H40       1.0  0.36002543939350323  0.8715848312160616  0.46779980177061725  1.0000
  H   H41       1.0  0.9156048151053826  0.5554570684559366  0.8904344753554839  1.0000
  H   H42       1.0  0.41560482638169566  0.8904342241844102  0.5554573155232773  1.0000
  H   H43       1.0  0.9845777399808429  0.42995849303354544  0.029459931713802193  1.0000
  H   H44       1.0  0.4845775515893039  0.0294601746214624  0.4299587648747832  1.0000
  H   H45       1.0  0.9003051565705749  0.3952312669843537  0.9511520166384387  1.0000
  H   H46       1.0  0.4003051439908917  0.951152583434741  0.3952311987388129  1.0000
  H   H47       1.0  0.029346811085325376  0.6026238964511562  0.9968267907969236  1.0000
  H   H48       1.0  0.5293458516717634  0.9968270205084835  0.6026242132717385  1.0000
  H   H49       1.0  0.06042840543592829  0.5488428384760126  0.055373256920667295  1.0000
  H   H50       1.0  0.5604284261912726  0.055373348145657496  0.5488427037087079  1.0000
  H   H51       1.0  0.9792685765548514  0.3762846239507808  0.8427847701241691  1.0000
  H   H52       1.0  0.4792689468290804  0.8427854188652192  0.37628490904973694  1.0000
  H   H53       1.0  0.1220063217057827  0.39748944386726487  0.8403215420713153  1.0000
  H   H54       1.0  0.6220062440881335  0.8403215495569896  0.3974893651345042  1.0000
  H   H55       1.0  0.17632171680661915  0.4593968036057206  0.026506906257886036  1.0000
  H   H56       1.0  0.6763215428647129  0.0265069248863483  0.45939705343471365  1.0000
  H   H57       1.0  0.2345754964854336  0.44489216712719326  0.9452863987602598  1.0000
  H   H58       1.0  0.7345757755762676  0.9452871317463757  0.4448926879862256  1.0000
  H   H59       1.0  0.1961983147940388  0.5163618685940465  0.8660610618438868  1.0000
  H   H60       1.0  0.6961983160689371  0.866060573247964  0.516361820043734  1.0000
  H   H61       1.0  0.10791442784253748  0.5834380536169163  0.8871460527208512  1.0000
  H   H62       1.0  0.6079149856821928  0.8871454271714185  0.5834376456631247  1.0000
  H   H63       1.0  0.6700489995108327  0.34528302922988974  0.8565826183861631  1.0000
  H   H64       1.0  0.1700493866536661  0.8565830394438122  0.3452838024696661  1.0000
  H   H65       1.0  0.2657001727133946  0.3206198089311769  0.8642740504585262  1.0000
  H   H66       1.0  0.7656998070785621  0.8642738138373784  0.3206193314523631  1.0000
  H   H67       1.0  0.3842711760546748  0.40903557730410967  0.9528906420383478  1.0000
  H   H68       1.0  0.8842700214748124  0.9528907680138022  0.40903545314831297  1.0000
  H   H69       1.0  0.6541412395267943  0.24679188714026876  0.7555419202411855  1.0000
  H   H70       1.0  0.1541427636616888  0.7555426826182907  0.24679213804935776  1.0000
  H   H71       1.0  0.5361186733552331  0.15814000446290064  0.6660205346656767  1.0000
  H   H72       1.0  0.03611948607653662  0.6660203787465095  0.15814023143427394  1.0000
  H   H73       1.0  0.24870243966513075  0.22666470366326755  0.757150137051852  1.0000
  H   H74       1.0  0.7487036206658219  0.7571495833715501  0.22666478410540947  1.0000
  H   H75       1.0  0.9315352563577549  0.4025465638688104  0.1530446951114399  1.0000
  H   H76       1.0  0.43153308700768633  0.15304448598099898  0.40254590472806484  1.0000
  H   H77       1.0  0.9853044136898675  0.34856946530913296  0.2508598054737305  1.0000
  H   H78       1.0  0.4853037746685019  0.2508590485713427  0.3485698058560303  1.0000
  H   H79       1.0  0.6416934807930306  0.4660322027046959  0.2469339072475023  1.0000
  H   H80       1.0  0.1416923639179259  0.2469355148379648  0.46603180487925755  1.0000
  H   H81       1.0  0.9466669410009774  0.32183518652382753  0.3637902626440592  1.0000
  H   H82       1.0  0.44666719004960953  0.3637899626481341  0.3218340947869223  1.0000
  H   H83       1.0  0.667553963078163  0.3967565514571376  0.4624892036176361  1.0000
  H   H84       1.0  0.1675563791618444  0.4624905198730501  0.3967564078714716  1.0000
  H   H85       1.0  0.6077099157265736  0.44382406486529646  0.3600945227398782  1.0000
  H   H86       1.0  0.10771076109087832  0.3600957785835491  0.4438243573851963  1.0000
  H   H87       1.0  0.1234268761249027  0.6292849183070359  0.3361882293389584  1.0000
  H   H88       1.0  0.6234266788840658  0.3361884946090825  0.6292849419936604  1.0000
  H   H89       1.0  0.9658429490212299  0.8040524708830005  0.5121193326848399  1.0000
  H   H90       1.0  0.4658426935681207  0.5121188510322057  0.8040527982405551  1.0000
  H   H91       1.0  0.16711648270291593  0.803534513773009  0.5087556486375746  1.0000
  H   H92       1.0  0.6671160204208206  0.5087561991625195  0.8035346446758993  1.0000
  H   H93       1.0  0.9358676832615416  0.5759059908598375  0.29030524653906303  1.0000
  H   H94       1.0  0.4358679412305265  0.29030480254519386  0.5759059917574234  1.0000
  H   H95       1.0  0.7349335331013762  0.5774112986527271  0.2926155760032074  1.0000
  H   H96       1.0  0.23493390825578336  0.29261485454541974  0.5774105878213335  1.0000
  H   H97       1.0  0.7781041895749257  0.7546109363169008  0.4623064647633157  1.0000
  H   H98       1.0  0.27810389918168  0.46230597829060127  0.7546105155662062  1.0000
  H   H99       1.0  0.7857144863322604  0.6253270057739826  0.850592667833503  1.0000
  H   H100      1.0  0.28571500369703523  0.850592861297052  0.6253266035818399  1.0000
  H   H101      1.0  0.4287954813259702  0.7242395632218076  0.8255458324015236  1.0000
  H   H102      1.0  0.9287966089009675  0.8255454595071257  0.7242404382233261  1.0000
  H   H103      1.0  0.4779303244322222  0.6750768122233382  0.9273674336119412  1.0000
  H   H104      1.0  0.9779309942721428  0.9273680781843368  0.6750781402410126  1.0000
  H   H105      1.0  0.8316274556115388  0.6488173822065946  0.7400825666490434  1.0000
  H   H106      1.0  0.3316278153087424  0.7400817582108276  0.6488166484509605  1.0000
  H   H107      1.0  0.782630514291327  0.6984302384239243  0.6371364278808187  1.0000
  H   H108      1.0  0.28263111405013325  0.6371359581423447  0.6984302170061697  1.0000
  H   H109      1.0  0.4766818365186509  0.7502287926533172  0.7140359364081165  1.0000
  H   H110      1.0  0.976683915706964  0.7140354744385391  0.750228323614742  1.0000
  C   C1        1.0  0.4102801522255889  0.6100729363530846  0.5188784435060043  1.0000
  C   C2        1.0  0.9102810581249798  0.518878380947889  0.6100730373955372  1.0000
  C   C3        1.0  0.34402006647223976  0.5202859464045488  0.5753792024115825  1.0000
  C   C4        1.0  0.8440200881347694  0.5753786435351953  0.5202860189325165  1.0000
  C   C5        1.0  0.5156046615687445  0.5124770746879433  0.5121756375574337  1.0000
  C   C6        1.0  0.015604398446328086  0.5121756403279889  0.5124765786043355  1.0000
  C   C7        1.0  0.48647858001455563  0.591772540713059  0.1964276778470762  1.0000
  C   C8        1.0  0.9864780605065067  0.1964278194099336  0.5917730236859882  1.0000
  C   C9        1.0  0.46041100990979805  0.6676006589166973  0.11778922656048957  1.0000
  C   C10       1.0  0.9604105136173973  0.11778886612538741  0.667601509136624  1.0000
  C   C11       1.0  0.3722573494665156  0.5508324144712661  0.0893385018934865  1.0000
  C   C12       1.0  0.8722565996065942  0.0893390167686974  0.5508326754616633  1.0000
  C   C13       1.0  0.3792608541291003  0.689266137610595  0.2236403883305584  1.0000
  C   C14       1.0  0.8792602219811272  0.22363990367212236  0.6892666208975982  1.0000
  C   C15       1.0  0.2678941371453121  0.6471962102015852  0.11783273595535348  1.0000
  C   C16       1.0  0.7678940129189301  0.11783293811486573  0.6471965601114674  1.0000
  C   C17       1.0  0.2907646794396684  0.5726659549086578  0.19562022638559282  1.0000
  C   C18       1.0  0.7907645050600962  0.1956203279227964  0.5726661642585711  1.0000
  C   C19       1.0  0.9315015162625288  0.5032328328330564  0.8950171380925838  1.0000
  C   C20       1.0  0.43150220954602514  0.8950172387938838  0.5032333349243174  1.0000
  C   C21       1.0  0.9722778122494591  0.4305172641655942  0.974592493960678  1.0000
  C   C22       1.0  0.47227746661282316  0.9745924244144247  0.4305174341462319  1.0000
  C   C23       1.0  0.0467621239776292  0.5503546320167346  0.0007840152701205874  1.0000
  C   C24       1.0  0.546761437776823  0.0007838504103716992  0.55035447680595  1.0000
  C   C25       1.0  0.050112912876919304  0.41220325629816296  0.8672531429941799  1.0000
  C   C26       1.0  0.5501132114293342  0.867252859698688  0.41220312045600593  1.0000
  C   C27       1.0  0.16212062940553554  0.459940945296836  0.9716194201386018  1.0000
  C   C28       1.0  0.6621202942764342  0.9716193729170114  0.4599410545821598  1.0000
  C   C29       1.0  0.12422739026417423  0.531517341771732  0.8928703601592362  1.0000
  C   C30       1.0  0.6242268794938042  0.8928713587472717  0.5315179981185096  1.0000
  C   C31       1.0  0.6010809728207749  0.43925643125975  0.9601829574807397  1.0000
  C   C32       1.0  0.1010804113837267  0.9601833551338501  0.4392567552163484  1.0000
  C   C33       1.0  0.5337280198857783  0.3826787787495789  0.9088818582858808  1.0000
  C   C34       1.0  0.033728047606928165  0.9088820385697998  0.38267924758362437  1.0000
  C   C35       1.0  0.581747517933451  0.3391861254969442  0.8581326525962751  1.0000
  C   C36       1.0  0.08174766986351045  0.8581332575431374  0.3391862701716661  1.0000
  C   C37       1.0  0.5178203290560006  0.2876122301948101  0.8079812727986776  1.0000
  C   C38       1.0  0.017819545323405357  0.8079811100692281  0.28761321865940204  1.0000
  C   C39       1.0  0.4012476195581699  0.2814451928786141  0.8091271445974755  1.0000
  C   C40       1.0  0.9012472796403374  0.8091269255502666  0.2814447119678719  1.0000
  C   C41       1.0  0.3541443240159623  0.32610855007671086  0.8624681141345433  1.0000
  C   C42       1.0  0.8541454407366161  0.8624686680182663  0.32610801241574444  1.0000
  C   C43       1.0  0.418813722804238  0.3749493729310842  0.9112269248906203  1.0000
  C   C44       1.0  0.9188140608607541  0.9112272590738185  0.3749494804691551  1.0000
  C   C45       1.0  0.5654419694223449  0.24199254439531606  0.7557730969927832  1.0000
  C   C46       1.0  0.06544346133765797  0.755773496509782  0.2419930680864013  1.0000
  C   C47       1.0  0.5013113171191396  0.19338240574597168  0.7066764463064601  1.0000
  C   C48       1.0  0.0013123048818854753  0.7066756539981967  0.19338328188734272  1.0000
  C   C49       1.0  0.3859121383709834  0.1877722309390606  0.7068027938955623  1.0000
  C   C50       1.0  0.8859127890060351  0.7068014295801958  0.1877732463091704  1.0000
  C   C51       1.0  0.33740397607873274  0.2312126904358323  0.7574006564199678  1.0000
  C   C52       1.0  0.8374045275315042  0.7574002672251794  0.23121321586988589  1.0000
  C   C53       1.0  0.3188744212661235  0.1352675314493368  0.6510517130272504  1.0000
  C   C54       1.0  0.8188760745653738  0.6510508654157475  0.13526783676749687  1.0000
  C   C55       1.0  0.7553235458852114  0.4729931713000894  0.13774433583483162  1.0000
  C   C56       1.0  0.2553224497162248  0.13774466186824696  0.4729931421574207  1.0000
  C   C57       1.0  0.7835628739430052  0.4378627486332859  0.19479881315895398  1.0000
  C   C58       1.0  0.2835599729016209  0.19479861057258316  0.43786209158214723  1.0000
  C   C59       1.0  0.8809610505039631  0.404059612480296  0.19575607171312734  1.0000
  C   C60       1.0  0.3809607657731178  0.1957555765105425  0.40405909790152356  1.0000
  C   C61       1.0  0.9103104403813165  0.3743204786825771  0.2496705116464426  1.0000
  C   C62       1.0  0.4103106272782427  0.24966981608739056  0.3743192735428877  1.0000
  C   C63       1.0  0.844288832318327  0.3774723119255228  0.3055243932631626  1.0000
  C   C64       1.0  0.34428868185053574  0.30552502242252894  0.3774722941006843  1.0000
  C   C65       1.0  0.7459885220522653  0.41172763558726905  0.304748869023193  1.0000
  C   C66       1.0  0.2459885406906253  0.30474923413918015  0.41172696544850856  1.0000
  C   C67       1.0  0.7169090774284116  0.44063843750415543  0.24805468033689954  1.0000
  C   C68       1.0  0.21690887359726221  0.24805480346241643  0.4406373841533409  1.0000
  C   C69       1.0  0.8732224319253634  0.34899665929950874  0.3625416304126574  1.0000
  C   C70       1.0  0.3732241645075264  0.3625413407419201  0.3489954699417481  1.0000
  C   C71       1.0  0.8110014003896213  0.35653620403887487  0.41818658550865007  1.0000
  C   C72       1.0  0.311002826491432  0.4181869901562649  0.3565355472893259  1.0000
  C   C73       1.0  0.7145400409629233  0.39141136989847786  0.4177688513233022  1.0000
  C   C74       1.0  0.2145427012354943  0.41776985721634213  0.3914115055108454  1.0000
  C   C75       1.0  0.6819318946514913  0.417374526761378  0.36177462101668567  1.0000
  C   C76       1.0  0.18193500579555186  0.36177601098196277  0.41737492293057704  1.0000
  C   C77       1.0  0.8511916310349436  0.3311774339709856  0.4798755278900302  1.0000
  C   C78       1.0  0.3511931725047291  0.4798758878215423  0.331176727642756  1.0000
  C   C79       1.0  0.2761865151616973  0.7178541504390238  0.4184720500607781  1.0000
  C   C80       1.0  0.776185912660843  0.418472359464779  0.717854179149775  1.0000
  C   C81       1.0  0.1557268728098293  0.71678404089932  0.42108833005362106  1.0000
  C   C82       1.0  0.6557272219861972  0.421088239108748  0.7167831835357248  1.0000
  C   C83       1.0  0.08781602698114452  0.6672815389767806  0.3741432199280795  1.0000
  C   C84       1.0  0.5878157282446566  0.37414322445156495  0.6672813554873471  1.0000
  C   C85       1.0  0.9732882932886043  0.6652790780125952  0.37530897509968497  1.0000
  C   C86       1.0  0.4732879637224557  0.37530869764876934  0.6652795675739114  1.0000
  C   C87       1.0  0.9284171857590381  0.7165236261098258  0.4252967793431992  1.0000
  C   C88       1.0  0.4284169108056233  0.4252959674378616  0.7165236147979712  1.0000
  C   C89       1.0  0.0003172740488536954  0.7657984592838076  0.4737553771673647  1.0000
  C   C90       1.0  0.500316515934813  0.4737550309678013  0.7657980818785575  1.0000
  C   C91       1.0  0.11152769235400944  0.7657883341590266  0.4720659401200394  1.0000
  C   C92       1.0  0.6115280507090617  0.472066630977011  0.7657877775563406  1.0000
  C   C93       1.0  0.9014783679304873  0.6148947686647476  0.3279904109026646  1.0000
  C   C94       1.0  0.40147791582110415  0.3279902709364535  0.6148948984854884  1.0000
  C   C95       1.0  0.7902289407513337  0.6156284068151693  0.32901080114306325  1.0000
  C   C96       1.0  0.2902296282001658  0.3290093970766605  0.6156281598388205  1.0000
  C   C97       1.0  0.74589835261407  0.667493683119929  0.377074616542977  1.0000
  C   C98       1.0  0.24590030829298834  0.3770738660263433  0.6674929899781503  1.0000
  C   C99       1.0  0.8138010732969791  0.7166630118703737  0.4244083207637388  1.0000
  C   C100      1.0  0.31380129534673534  0.42440770161068303  0.7166631477002383  1.0000
  C   C101      1.0  0.6254459714500699  0.6690278217754013  0.3769834438030557  1.0000
  C   C102      1.0  0.1254419186994866  0.37698249975447595  0.6690280401634396  1.0000
  C   C103      1.0  0.6637239214155956  0.616300210477533  0.9546833406860883  1.0000
  C   C104      1.0  0.16372374330435954  0.9546830374987677  0.6163016554045768  1.0000
  C   C105      1.0  0.6356764434994419  0.6478151306450214  0.8949663629325143  1.0000
  C   C106      1.0  0.1356772945698026  0.8949672830584491  0.6478151841425158  1.0000
  C   C107      1.0  0.7081047670520135  0.6472636711593224  0.8451180923045101  1.0000
  C   C108      1.0  0.20810722724830552  0.845117083311095  0.6472645939587737  1.0000
  C   C109      1.0  0.6823581074013632  0.6738509677321501  0.7864870880624437  1.0000
  C   C110      1.0  0.1823556768505199  0.786487047677447  0.6738504748699583  1.0000
  C   C111      1.0  0.580064554339785  0.7027191637636393  0.7795849461306545  1.0000
  C   C112      1.0  0.0800629289258765  0.7795860968350112  0.702720249137009  1.0000
  C   C113      1.0  0.5069828331761175  0.7028314856172742  0.8314984235184752  1.0000
  C   C114      1.0  0.006982660014365584  0.8315008496596619  0.7028333545133663  1.0000
  C   C115      1.0  0.5338493243534614  0.6757624952171213  0.887681414881378  1.0000
  C   C116      1.0  0.03385111712903915  0.8876823432144929  0.6757639061010607  1.0000
  C   C117      1.0  0.7551209024192432  0.6722198692705845  0.7342540209496847  1.0000
  C   C118      1.0  0.25512164485748207  0.7342528591041882  0.6722202134470479  1.0000
  C   C119      1.0  0.728106962736085  0.6986625235664617  0.6777051995967156  1.0000
  C   C120      1.0  0.22810768277476964  0.6777046582988716  0.698661639214137  1.0000
  C   C121      1.0  0.6263847977610695  0.7265726967209004  0.6700963419713375  1.0000
  C   C122      1.0  0.1263844317464944  0.6700965265427712  0.7265729249190258  1.0000
  C   C123      1.0  0.5544980957921483  0.7288255981847553  0.7204992177242957  1.0000
  C   C124      1.0  0.05449972726894709  0.7205010409149893  0.7288248851379464  1.0000
  C   C125      1.0  0.5939596757696749  0.7476421814810905  0.6047244048193576  1.0000
  C   C126      1.0  0.09395961114958597  0.6047239707531842  0.7476419122614715  1.0000
  N   N1        1.0  0.42266138460875174  0.549588396426202  0.5355248928983016  1.0000
  N   N2        1.0  0.9226614953650982  0.5355244601258137  0.5495881936598437  1.0000
  N   N3        1.0  0.47424727036449343  0.5944300155105322  0.12249982232762587  1.0000
  N   N4        1.0  0.974247280722388  0.12249927647395956  0.5944303760970655  1.0000
  N   N5        1.0  0.39060047140075244  0.617075878184437  0.2316795586941893  1.0000
  N   N6        1.0  0.8906001513954251  0.23167975700209104  0.6170762328974035  1.0000
  N   N7        1.0  0.3654138788426311  0.6924626247999515  0.15127216443365651  1.0000
  N   N8        1.0  0.8654123765177388  0.15127233544471608  0.6924623411505166  1.0000
  N   N9        1.0  0.2763709696035122  0.5750027082837407  0.12290729266848642  1.0000
  N   N10       1.0  0.7763697951053816  0.12290762561576676  0.575003103717755  1.0000
  N   N11       1.0  0.9482082965644878  0.502093381207878  0.9694351393694659  1.0000
  N   N12       1.0  0.44820798792877536  0.9694351241083652  0.5020938481785748  1.0000
  N   N13       1.0  0.028264789112384395  0.4827459828140093  0.8585265723013721  1.0000
  N   N14       1.0  0.5282651318179391  0.8585264040406245  0.4827457108218099  1.0000
  N   N15       1.0  0.06856453222344071  0.4101822522204444  0.9399297577155679  1.0000
  N   N16       1.0  0.5685648208716003  0.9399296243170095  0.41018266075651866  1.0000
  N   N17       1.0  0.143564738124347  0.5307984696184106  0.9659300795236304  1.0000
  N   N18       1.0  0.6435645437710705  0.9659296679018327  0.5307988044618172  1.0000
  O   O1        1.0  0.4746729730895326  0.6361967817032833  0.4836209828827123  1.0000
  O   O2        1.0  0.9746728269496999  0.4836209790811308  0.6361962267093801  1.0000
  O   O3        1.0  0.5516318625590132  0.47353186795660895  0.008393298139019081  1.0000
  O   O4        1.0  0.05163120445434541  0.008393506169653599  0.4735326352804279  1.0000
  O   O5        1.0  0.7017895535852505  0.4498750690668131  0.951375474689037  1.0000
  O   O6        1.0  0.20179063564697947  0.9513764611703622  0.449875350508222  1.0000
  O   O7        1.0  0.371794844699899  0.09614053587876008  0.6083668700364981  1.0000
  O   O8        1.0  0.8717973267970578  0.6083676914473912  0.0961399622370394  1.0000
  O   O9        1.0  0.21520345156198326  0.133674861280852  0.6495128187052188  1.0000
  O   O10       1.0  0.7152052950972632  0.649510947418598  0.13367637506391367  1.0000
  O   O11       1.0  0.6738489113886175  0.5090362520860692  0.14385525347978498  1.0000
  O   O12       1.0  0.1738483022592519  0.1438560843274743  0.5090370363639352  1.0000
  O   O13       1.0  0.8158573703911571  0.4658123507774192  0.0879819255302223  1.0000
  O   O14       1.0  0.31585567628501826  0.0879823246542202  0.46581138932995  1.0000
  O   O15       1.0  0.9186506210379408  0.28672407952255696  0.4754041174701981  1.0000
  O   O16       1.0  0.4186524077645046  0.4754041550221614  0.2867241480320502  1.0000
  O   O17       1.0  0.8145619111571989  0.3605021164665699  0.5378586115496304  1.0000
  O   O18       1.0  0.31456136644235505  0.5378594306524959  0.36050214689286975  1.0000
  O   O19       1.0  0.5907153082087362  0.6123328194773733  0.9960984871450903  1.0000
  O   O20       1.0  0.09071449532321199  0.9960982526773776  0.6123331436318082  1.0000
  O   O21       1.0  0.3356896812723989  0.7499758876919812  0.47221846752100305  1.0000
  O   O22       1.0  0.8356895248312527  0.4722181842150589  0.7499757027789045  1.0000
  O   O23       1.0  0.31181155888710077  0.6874829779860647  0.36221843655644653  1.0000
  O   O24       1.0  0.8118110527637441  0.3622180710100764  0.6874827099846073  1.0000
  O   O25       1.0  0.5672834403258449  0.613356340950638  0.3468544263764954  1.0000
  O   O26       1.0  0.06728422934983061  0.34685433220685985  0.6133565287471825  1.0000
  O   O27       1.0  0.5868857135667938  0.7249350596081217  0.4042929388038631  1.0000
  O   O28       1.0  0.08688671387922399  0.4042908670724401  0.7249338270934729  1.0000
  O   O29       1.0  0.7579076097723603  0.5943629477605229  0.9593493443040799  1.0000
  O   O30       1.0  0.2579072467534118  0.9593498522250812  0.5943631278486592  1.0000
  O   O31       1.0  0.6587997968030025  0.7428601726912945  0.5577445284340001  1.0000
  O   O32       1.0  0.1587994196386404  0.5577436781942993  0.7428601956437718  1.0000
  O   O33       1.0  0.4967166030661404  0.7661029641366993  0.5956012014631683  1.0000
  O   O34       1.0  0.9967164756113578  0.5956014744006668  0.7661027305252547  1.0000
