data_image0
_chemical_formula_structural       K2H26C30S4N4O2
_chemical_formula_sum              "K2 H26 C30 S4 N4 O2"
_cell_length_a       6.633792141828831
_cell_length_b       10.473302835757742
_cell_length_c       12.221863053397815
_cell_angle_alpha    64.71371991718237
_cell_angle_beta     90.09394919974304
_cell_angle_gamma    80.8154259523596

_space_group_name_H-M_alt    "P 1"
_space_group_IT_number       1

loop_
  _space_group_symop_operation_xyz
  'x, y, z'

loop_
  _atom_site_type_symbol
  _atom_site_label
  _atom_site_symmetry_multiplicity
  _atom_site_fract_x
  _atom_site_fract_y
  _atom_site_fract_z
  _atom_site_occupancy
  K   K1        1.0  0.3026431972006236  0.05631774441258129  0.8493606423695965  1.0000
  K   K2        1.0  0.697356414158861  0.9436859359194826  0.15063649423991873  1.0000
  H   H1        1.0  0.24250541492931899  0.8914182255477385  0.6487378420017437  1.0000
  H   H2        1.0  0.7574869240003395  0.10858437730161802  0.3512588897874949  1.0000
  H   H3        1.0  0.24293141015257894  0.913444268478628  0.43554683038892256  1.0000
  H   H4        1.0  0.7570669937905309  0.08655833998293622  0.5644531575269411  1.0000
  H   H5        1.0  0.2592393573821353  0.1521945062630721  0.2654307994691578  1.0000
  H   H6        1.0  0.7407706696323401  0.8478038143951991  0.73456909882394  1.0000
  H   H7        1.0  0.256418790721149  0.4108545462491334  0.19578232208674962  1.0000
  H   H8        1.0  0.7435905470888711  0.5891405546716015  0.8042187605423053  1.0000
  H   H9        1.0  0.2406203128358868  0.6219423209051553  0.24292729286497675  1.0000
  H   H10       1.0  0.7593847850510257  0.3780517053389758  0.7570750130071106  1.0000
  H   H11       1.0  0.2277854577888263  0.7214656511018164  0.3923425148768657  1.0000
  H   H12       1.0  0.7722169698748117  0.2785326612808134  0.6076516773222452  1.0000
  H   H13       1.0  0.23637238527912532  0.6784316169901742  0.6122267855592086  1.0000
  H   H14       1.0  0.7636254190740246  0.32157313366667495  0.3877675076163599  1.0000
  H   H15       1.0  0.2607620135172724  0.4269625608935428  0.7727337666840911  1.0000
  H   H16       1.0  0.7392343017085281  0.5730421902508384  0.22726216636338145  1.0000
  H   H17       1.0  0.7267163275614833  0.3153048119256567  0.9620968807573291  1.0000
  H   H18       1.0  0.2732864541491793  0.6846924331404907  0.037905066619067986  1.0000
  H   H19       1.0  0.9660927387021372  0.3694243732201912  0.9756283039186683  1.0000
  H   H20       1.0  0.0339050122045492  0.6305750180246079  0.024376140204573564  1.0000
  H   H21       1.0  0.6945847847996021  0.4790782819251404  0.06758440276066588  1.0000
  H   H22       1.0  0.30541142272769417  0.5209211060260299  0.9324167734273561  1.0000
  H   H23       1.0  0.8812809351277479  0.35230282009495534  0.18305454367213517  1.0000
  H   H24       1.0  0.11871406498318038  0.6476954959857153  0.8169494838222349  1.0000
  H   H25       1.0  0.6391911463155606  0.30645323936224134  0.16329356042412263  1.0000
  H   H26       1.0  0.3608050521697307  0.6935461479587345  0.8367067977960404  1.0000
  C   C1        1.0  0.2485909034963711  0.9946750682543735  0.5722273762433902  1.0000
  C   C2        1.0  0.7514155818414634  0.0053253980950174  0.4277733789246483  1.0000
  C   C3        1.0  0.24825939227290658  0.006278455255859699  0.4532546611659143  1.0000
  C   C4        1.0  0.7517410642194946  0.9937220080021091  0.5467461097469198  1.0000
  C   C5        1.0  0.25571483415745894  0.13834727481125236  0.3590514816398098  1.0000
  C   C6        1.0  0.7442891640115832  0.8616510427555893  0.6409484323980907  1.0000
  C   C7        1.0  0.2590583463100272  0.2577399846231215  0.38414312846155957  1.0000
  C   C8        1.0  0.7409414119359139  0.7422572582671164  0.6158580088193802  1.0000
  C   C9        1.0  0.2561938517797841  0.39848585299458955  0.2891423842439026  1.0000
  C   C10       1.0  0.7438109643961537  0.6015092456075735  0.7108587101937474  1.0000
  C   C11       1.0  0.24815802342115487  0.5137416061212007  0.3149285957273096  1.0000
  C   C12       1.0  0.7518437783320664  0.4862534909352476  0.6850725065827418  1.0000
  C   C13       1.0  0.24871866858181585  0.4960060853193582  0.4376545857846922  1.0000
  C   C14       1.0  0.7512772572345127  0.5039943749898441  0.5623453789688925  1.0000
  C   C15       1.0  0.2391851692331172  0.6139307018828575  0.4662680168691012  1.0000
  C   C16       1.0  0.7608094949147954  0.38606868277467743  0.5337298913836934  1.0000
  C   C17       1.0  0.24287729661909904  0.5905967977213322  0.586299574093502  1.0000
  C   C18       1.0  0.757113262430238  0.40940687734339315  0.41369676816535883  1.0000
  C   C19       1.0  0.2565515249225215  0.44922714097091165  0.6766667464516871  1.0000
  C   C20       1.0  0.7434390612528289  0.5507765359843972  0.3233320497107358  1.0000
  C   C21       1.0  0.25877058154126326  0.35703620239432604  0.5355325518755338  1.0000
  C   C22       1.0  0.7412286404087496  0.6429631871025591  0.46446861644008663  1.0000
  C   C23       1.0  0.259551382595312  0.23491615046121694  0.5079814541024206  1.0000
  C   C24       1.0  0.7404490738970962  0.7650843127967518  0.4920193168104134  1.0000
  C   C25       1.0  0.14195184103704153  0.11063794654019427  0.08916549374294651  1.0000
  C   C26       1.0  0.8580528915464924  0.8893635939151494  0.9108373257982691  1.0000
  C   C27       1.0  0.8477694477461241  0.31059369291563843  0.026010385440599748  1.0000
  C   C28       1.0  0.15222826699253048  0.6894056958083892  0.9739907868112214  1.0000
  C   C29       1.0  0.7605162054925286  0.3643298480183218  0.11598204954356117  1.0000
  C   C30       1.0  0.23948028374574193  0.635668467574817  0.8840203380788979  1.0000
  S   S1        1.0  0.3086147856671956  0.22470351223051915  0.027155679285456813  1.0000
  S   S2        1.0  0.691386360029668  0.7753001707649788  0.9728439072914272  1.0000
  S   S3        1.0  0.20506441708460704  0.9297339612178985  0.15696977980688606  1.0000
  S   S4        1.0  0.7949390447885135  0.0702665029555902  0.8430301652656951  1.0000
  N   N1        1.0  0.2558360250346396  0.10365264971487419  0.5999896718044369  1.0000
  N   N2        1.0  0.7441608807391232  0.8963499586040271  0.4000111380154863  1.0000
  N   N3        1.0  0.2639200109697483  0.3357751196748069  0.6532175725215126  1.0000
  N   N4        1.0  0.7360726277548933  0.6642264120769068  0.3467820066378736  1.0000
  O   O1        1.0  0.9380239061624492  0.15936190195520078  0.08939223654443403  1.0000
  O   O2        1.0  0.06198137175901756  0.8406374925236902  0.9106113699299601  1.0000
