data_image0
_chemical_formula_structural       Zr6H24C57O42F6
_chemical_formula_sum              "Zr6 H24 C57 O42 F6"
_cell_length_a       14.750722716974842
_cell_length_b       14.76656211085743
_cell_length_c       14.761203683341588
_cell_angle_alpha    60.28853498033385
_cell_angle_beta     59.95718814674251
_cell_angle_gamma    59.96557926994662

_space_group_name_H-M_alt    "P 1"
_space_group_IT_number       1

loop_
  _space_group_symop_operation_xyz
  'x, y, z'

loop_
  _atom_site_type_symbol
  _atom_site_label
  _atom_site_symmetry_multiplicity
  _atom_site_fract_x
  _atom_site_fract_y
  _atom_site_fract_z
  _atom_site_occupancy
  Zr  Zr1       1.0  0.8710927024916661  0.8847850751784346  0.6232901373132336  1.0000
  Zr  Zr2       1.0  0.11274024501107503  0.12145416954998468  0.3845951805129459  1.0000
  Zr  Zr3       1.0  0.11155066359471251  0.8834780888355314  0.6230489061916131  1.0000
  Zr  Zr4       1.0  0.8721500806056213  0.12261055052029944  0.38429299066014994  1.0000
  Zr  Zr5       1.0  0.11152109981505717  0.8831332325907157  0.38372688861475984  1.0000
  Zr  Zr6       1.0  0.8711181961263181  0.12383538905530135  0.6235388411036666  1.0000
  H   H1        1.0  0.0856974687636125  0.7215441505766834  0.5967370561886582  1.0000
  H   H2        1.0  0.08780370938897157  0.09401652811308031  0.22207521891391482  1.0000
  H   H3        1.0  0.08548894434018446  0.09812876110287046  0.5981139747942521  1.0000
  H   H4        1.0  0.7084257742211335  0.09937734603982293  0.5984808589535504  1.0000
  H   H5        1.0  0.8367071323321158  0.596389321531383  0.6418107126823782  1.0000
  H   H6        1.0  0.12331410564465274  0.6028161030578544  0.34579164567450954  1.0000
  H   H7        1.0  0.8384515660564207  0.4270591542669137  0.6389292197811542  1.0000
  H   H8        1.0  0.5779322465281712  0.8573649751758692  0.9189934165345902  1.0000
  H   H9        1.0  0.5947497356370873  0.13025146333038848  0.9373484139052833  1.0000
  H   H10       1.0  0.41017263510020996  0.8554850263446526  0.0912288472420073  1.0000
  H   H11       1.0  0.13178563009520866  0.8510198420470374  0.09308855998133216  1.0000
  H   H12       1.0  0.8358445966145568  0.1374414588794365  0.10207376332571273  1.0000
  H   H13       1.0  0.12791963451385163  0.851799489792448  0.924662762187495  1.0000
  H   H14       1.0  0.5891145389373167  0.43440666753612317  0.634740544007677  1.0000
  H   H15       1.0  0.5873651159088737  0.4241824484610601  0.34967480232331377  1.0000
  H   H16       1.0  0.42022681752062135  0.6049712787351212  0.6318849023390882  1.0000
  H   H17       1.0  0.5755748634384263  0.14788532352118  0.35809623333230434  1.0000
  H   H18       1.0  0.5879552167643781  0.850218851576379  0.6394648400263563  1.0000
  H   H19       1.0  0.40810533576012636  0.1430729937778635  0.3586587992832193  1.0000
  H   H20       1.0  0.24094294865631832  0.3196198840612254  0.3965884498187435  1.0000
  H   H21       1.0  0.32979016422775237  0.25960340133728005  0.041058607841534825  1.0000
  H   H22       1.0  0.8971876212568548  0.2441160855069311  0.7995457774634717  1.0000
  H   H23       1.0  0.2961170795647874  0.5374757666417267  0.4201045468694956  1.0000
  H   H24       1.0  0.29503037191317827  0.9080873361523556  0.7541768848950454  1.0000
  C   C1        1.0  0.9850990288756168  0.7050552973031186  0.49909731261125523  1.0000
  C   C2        1.0  0.30230062416366366  0.995446214174805  0.2060382446126496  1.0000
  C   C3        1.0  0.9858438599521407  0.3133084020470277  0.4984919268347242  1.0000
  C   C4        1.0  0.6917744159336506  0.9996783872671385  0.8122122361737211  1.0000
  C   C5        1.0  0.992617991462396  0.6998906422629926  0.8059902824427354  1.0000
  C   C6        1.0  0.6900078108279292  0.001626012879874603  0.5008384888822803  1.0000
  C   C7        1.0  0.9946736155032597  0.30363868666670146  0.19955091323159727  1.0000
  C   C8        1.0  0.29877684523905396  0.9999760759134021  0.5020677927743975  1.0000
  C   C9        1.0  0.3013262178005649  0.7044192379307646  0.49795758373295473  1.0000
  C   C10       1.0  0.9868357019630805  0.9982460422023036  0.8130140929333576  1.0000
  C   C11       1.0  0.6941195611811182  0.31380914089291406  0.49727300985401973  1.0000
  C   C12       1.0  0.987250866448093  0.9977354049375718  0.20478302042388205  1.0000
  C   C13       1.0  0.9837838011413282  0.41793403904732424  0.49318825079487255  1.0000
  C   C14       1.0  0.9821088305971699  0.607107411988103  0.4956901824687064  1.0000
  C   C15       1.0  0.063655889334953  0.46848475334838474  0.4081326560303182  1.0000
  C   C16       1.0  0.9002293322570127  0.5592765524707702  0.5776801397016343  1.0000
  C   C17       1.0  0.06210100417817435  0.5627582177307532  0.410529060628022  1.0000
  C   C18       1.0  0.9014474553140064  0.4654208508097921  0.5760583461246681  1.0000
  C   C19       1.0  0.40585172962227006  0.9945407801998555  0.10760236311264752  1.0000
  C   C20       1.0  0.5934289339698393  0.9965341218365256  0.916004308037472  1.0000
  C   C21       1.0  0.4587991861500812  0.07153855947758092  0.06564132843799801  1.0000
  C   C22       1.0  0.543061808921834  0.9175540617206863  0.9600400789734279  1.0000
  C   C23       1.0  0.5520352859057667  0.07246463930638912  0.9694465858750193  1.0000
  C   C24       1.0  0.4497803935536382  0.9168609894236397  0.05515265516972073  1.0000
  C   C25       1.0  0.9833835913885877  0.9981462788053931  0.9158135344687325  1.0000
  C   C26       1.0  0.9852922017451676  0.996012170194433  0.10544308875338948  1.0000
  C   C27       1.0  0.8993153134294332  0.07928200770663084  0.9659036736088282  1.0000
  C   C28       1.0  0.06755294330771705  0.9143976021525974  0.05669032669236881  1.0000
  C   C29       1.0  0.900907189869969  0.07671639595338302  0.061044176417794915  1.0000
  C   C30       1.0  0.06578916087911302  0.9154044526550038  0.9629919099723308  1.0000
  C   C31       1.0  0.40552328671532223  0.6066205696541969  0.49317206279258835  1.0000
  C   C32       1.0  0.5960138051239525  0.4179628569942578  0.4939929559708743  1.0000
  C   C33       1.0  0.45346131886820024  0.5573607097783722  0.41121527369902827  1.0000
  C   C34       1.0  0.5501880276109644  0.4691078540015281  0.5731197019642096  1.0000
  C   C35       1.0  0.5488070512637153  0.4633816036061872  0.412294053738961  1.0000
  C   C36       1.0  0.4558000596908938  0.5630965978133985  0.5721856601448752  1.0000
  C   C37       1.0  0.9994831837193913  0.5929028017803258  0.9019883083969874  1.0000
  C   C38       1.0  0.04418601046637616  0.4872638086098036  0.8898251522144845  1.0000
  C   C39       1.0  0.959123055027568  0.5991640996103909  0.006071273540200666  1.0000
  C   C40       1.0  0.0895243448570398  0.4728192621700842  0.7856822703712253  1.0000
  C   C41       1.0  0.12980356025027348  0.37087398737356386  0.7746019375662314  1.0000
  C   C42       1.0  0.0006283033360787901  0.40031273072766277  0.09314255269882919  1.0000
  C   C43       1.0  0.959116333846723  0.503885315751276  0.10089365551335319  1.0000
  C   C44       1.0  0.044931462805266116  0.3894004963159431  0.9869432329769695  1.0000
  C   C45       1.0  0.09059869354392436  0.28567586679771745  0.9715037480156355  1.0000
  C   C46       1.0  0.13019321185323204  0.27558575201238267  0.8691193116769041  1.0000
  C   C47       1.0  0.40004008849719236  0.9981352426215649  0.5033270875960483  1.0000
  C   C48       1.0  0.5895699564273897  0.0005573672870369965  0.500550160070972  1.0000
  C   C49       1.0  0.4513227120171095  0.9133573085755202  0.5825561046556659  1.0000
  C   C50       1.0  0.5394072648484354  0.08361175449287117  0.4211186203619518  1.0000
  C   C51       1.0  0.5461583830989907  0.9154083022766741  0.5800411563813058  1.0000
  C   C52       1.0  0.44534724203346343  0.08200379240115296  0.4226176731045755  1.0000
  C   C53       1.0  0.14861939257068  0.43284302698967986  0.3080328021759512  1.0000
  C   C54       1.0  0.42758501709255375  0.1478581364479011  0.12421690672854885  1.0000
  C   C55       1.0  0.8010816679449564  0.16724479437436202  0.9293058264775806  1.0000
  C   C56       1.0  0.41166752314307326  0.6014278667459365  0.3174274382144517  1.0000
  C   C57       1.0  0.41575078546322425  0.8145193471662109  0.6682908730823768  1.0000
  O   O1        1.0  0.9092479089571488  0.7434460644135469  0.577444968291779  1.0000
  O   O2        1.0  0.26071274844048287  0.07327297611720947  0.2456087547741816  1.0000
  O   O3        1.0  0.06324582720324654  0.2718907648785064  0.42265643547797543  1.0000
  O   O4        1.0  0.7307006670442318  0.9239392188987879  0.7707717187359363  1.0000
  O   O5        1.0  0.06790259813350721  0.7395940657644786  0.7699345955963183  1.0000
  O   O6        1.0  0.7286151848973008  0.07912246498329963  0.4249228810794321  1.0000
  O   O7        1.0  0.9140547350082288  0.270007747803099  0.23933317436897994  1.0000
  O   O8        1.0  0.2590784540307636  0.9230018972889126  0.5779564273733726  1.0000
  O   O9        1.0  0.25927290337605047  0.7418952654098733  0.4234596727893064  1.0000
  O   O10       1.0  0.9113645462615597  0.07645342490943086  0.7719950928086093  1.0000
  O   O11       1.0  0.7312915878427545  0.2728689790676028  0.5761958153336693  1.0000
  O   O12       1.0  0.06569407950253475  0.9220977481095219  0.24244044623132044  1.0000
  O   O13       1.0  0.0659291990414701  0.9230141641491089  0.771839652909776  1.0000
  O   O14       1.0  0.7321780463139406  0.2717404385590926  0.4223619868951617  1.0000
  O   O15       1.0  0.9113303360789263  0.07584334658107372  0.2435517895574718  1.0000
  O   O16       1.0  0.26010460886371317  0.7420620577983996  0.5767012041808568  1.0000
  O   O17       1.0  0.9127139742301222  0.739219208492443  0.771582596713813  1.0000
  O   O18       1.0  0.2572598946463814  0.0789768782366522  0.4278739250606876  1.0000
  O   O19       1.0  0.07080862599001846  0.2665882390668486  0.23837235455913228  1.0000
  O   O20       1.0  0.7289015881126631  0.9257679044909395  0.5782040909951788  1.0000
  O   O21       1.0  0.7291883266387559  0.0785670233868813  0.7707046142774842  1.0000
  O   O22       1.0  0.06468656114865451  0.7415894641653793  0.4245569668333927  1.0000
  O   O23       1.0  0.26034226958319784  0.9215066712958873  0.24232281849226206  1.0000
  O   O24       1.0  0.9127711355867446  0.2709004134638062  0.5800159040425257  1.0000
  O   O25       1.0  0.789025498149151  0.07214147228706445  0.5711201287336393  1.0000
  O   O26       1.0  0.05861197085806684  0.07079109996888631  0.5719071033004823  1.0000
  O   O27       1.0  0.05974055297763671  0.06903701315803092  0.30239800538610234  1.0000
  O   O28       1.0  0.05865667311292807  0.8018206699836483  0.5708199317463923  1.0000
  O   O29       1.0  0.14138341021028814  0.9530144853724706  0.4544004167837061  1.0000
  O   O30       1.0  0.9414072026608128  0.9538356345457115  0.4543892418013442  1.0000
  O   O31       1.0  0.9425973962110136  0.15224631321640908  0.45411067425189333  1.0000
  O   O32       1.0  0.941725255414383  0.9541520246741866  0.6529899984800664  1.0000
  O   O33       1.0  0.24731180421299837  0.3536388851458411  0.31854840131576617  1.0000
  O   O34       1.0  0.13485457323329095  0.47977510663421435  0.21902332566938298  1.0000
  O   O35       1.0  0.35934808283711556  0.2533009208738335  0.09090732164688832  1.0000
  O   O36       1.0  0.468645094711242  0.12026829955624407  0.19147841976442245  1.0000
  O   O37       1.0  0.8179630601486919  0.26000910928343046  0.8423475940401559  1.0000
  O   O38       1.0  0.7077603000576431  0.16274706302177577  0.9816980613842505  1.0000
  O   O39       1.0  0.3279891359303022  0.5696540658365238  0.34004975169364127  1.0000
  O   O40       1.0  0.45614761049390057  0.6526665417911559  0.2234238314821582  1.0000
  O   O41       1.0  0.33148150934041365  0.829113137294854  0.7638840454266997  1.0000
  O   O42       1.0  0.4662145313571813  0.7227202114240184  0.6595537935895591  1.0000
  F   F1        1.0  0.914201838556281  0.5166694138974179  0.20042714591138402  1.0000
  F   F2        1.0  0.915699239741585  0.6982164775321986  0.01983684177866952  1.0000
  F   F3        1.0  0.09819554244836583  0.19005713546870595  0.05892168847898918  1.0000
  F   F4        1.0  0.17102150538998728  0.17583617363454357  0.8576221111877088  1.0000
  F   F5        1.0  0.1710257809500533  0.360651157827661  0.6739710732602332  1.0000
  F   F6        1.0  0.0967128479388819  0.5606300406731464  0.6902250734297298  1.0000
