data_image0
_chemical_formula_structural       Cd2H28C28N24O12
_chemical_formula_sum              "Cd2 H28 C28 N24 O12"
_cell_length_a       7.124778681307208
_cell_length_b       9.65736034005267
_cell_length_c       13.911638802829142
_cell_angle_alpha    90.00003690229664
_cell_angle_beta     100.50455857987758
_cell_angle_gamma    89.99962475797777

_space_group_name_H-M_alt    "P 1"
_space_group_IT_number       1

loop_
  _space_group_symop_operation_xyz
  'x, y, z'

loop_
  _atom_site_type_symbol
  _atom_site_label
  _atom_site_symmetry_multiplicity
  _atom_site_fract_x
  _atom_site_fract_y
  _atom_site_fract_z
  _atom_site_occupancy
  Cd  Cd1       1.0  0.4999986583037951  0.5000021149693125  0.4999976376578276  1.0000
  Cd  Cd2       1.0  0.5000015508207339  0.9999987629090726  7.191766826896298e-07  1.0000
  H   H1        1.0  0.6401811044762907  0.2904070444713014  0.0760440268397886  1.0000
  H   H2        1.0  0.3598167434220798  0.7904078594522091  0.42395184669031494  1.0000
  H   H3        1.0  0.3598232907031615  0.7095889016161295  0.9239576784035748  1.0000
  H   H4        1.0  0.6401848188419875  0.20959533499839017  0.576047430206664  1.0000
  H   H5        1.0  0.07751065152214659  0.16535808122598894  0.9933838835469331  1.0000
  H   H6        1.0  0.9224879106847794  0.6653589169587093  0.5066159747392902  1.0000
  H   H7        1.0  0.9224937656942485  0.8346368293807631  0.006615667314626662  1.0000
  H   H8        1.0  0.07751365892806208  0.33464324201190726  0.493382584030556  1.0000
  H   H9        1.0  0.967671480307473  0.3938848341291746  0.054307976080458786  1.0000
  H   H10       1.0  0.0323267913361391  0.8938872433545627  0.4456944570818635  1.0000
  H   H11       1.0  0.0323300599759406  0.606106970046433  0.9456934552007538  1.0000
  H   H12       1.0  0.9676747488909783  0.1061169865767155  0.554306974196912  1.0000
  H   H13       1.0  0.05833985780049739  0.7556505673128697  0.2665684150759873  1.0000
  H   H14       1.0  0.9416496962058644  0.25565362393570024  0.23343095893036292  1.0000
  H   H15       1.0  0.9416516828854141  0.2443526271626907  0.7334327754599457  1.0000
  H   H16       1.0  0.05834475082690459  0.7443443931325149  0.7665654786782101  1.0000
  H   H17       1.0  0.11036829883385477  0.6222889117888428  0.185926663258293  1.0000
  H   H18       1.0  0.8896239277429456  0.12229022112178708  0.3140693092829139  1.0000
  H   H19       1.0  0.8896275609165443  0.37772049555272247  0.8140713475842036  1.0000
  H   H20       1.0  0.1103747649134519  0.8777140088158788  0.6859311299055622  1.0000
  H   H21       1.0  0.801160438890349  0.4136827220901155  0.3886909040770448  1.0000
  H   H22       1.0  0.19883770476960183  0.913686096792709  0.11130649444604758  1.0000
  H   H23       1.0  0.19883826846829317  0.5863184014079436  0.6113080988573714  1.0000
  H   H24       1.0  0.8011638428250548  0.08631295574002712  0.8886942187064051  1.0000
  H   H25       1.0  0.6308994676728545  0.3005031267983824  0.36886669891285356  1.0000
  H   H26       1.0  0.3690967951925542  0.8005036300952356  0.1311354968308294  1.0000
  H   H27       1.0  0.3690978048796083  0.6994990321830273  0.6311328851672117  1.0000
  H   H28       1.0  0.6309033175959297  0.19949645792085852  0.8688657974672722  1.0000
  C   C1        1.0  0.42877323470478496  0.4397340851269079  0.10612912632591082  1.0000
  C   C2        1.0  0.5712232307614755  0.9397369627636251  0.3938695612755296  1.0000
  C   C3        1.0  0.5712340227335487  0.5602618609534317  0.8938721347530817  1.0000
  C   C4        1.0  0.4287754692390067  0.0602672671736997  0.6061301597856145  1.0000
  C   C5        1.0  0.4897124929313179  0.31416648443126854  0.071546230820843  1.0000
  C   C6        1.0  0.5102822774233786  0.8141676156200434  0.42845007757554754  1.0000
  C   C7        1.0  0.5102819320832666  0.6858284261990593  0.9284523611703364  1.0000
  C   C8        1.0  0.4897192848406887  0.18583557883056304  0.5715491993214243  1.0000
  C   C9        1.0  0.17766006506926854  0.24481182314126224  0.026287080711789205  1.0000
  C   C10       1.0  0.8223381739291327  0.7448135663605909  0.4737109650433524  1.0000
  C   C11       1.0  0.8223386423222078  0.7551820519993198  0.973711922224048  1.0000
  C   C12       1.0  0.1776633736373725  0.2551916990499805  0.5262897481078923  1.0000
  C   C13       1.0  0.11914359146050658  0.3712823555823235  0.0593873380186736  1.0000
  C   C14       1.0  0.8808520594539287  0.8712827518202885  0.4406119575169853  1.0000
  C   C15       1.0  0.8808608110583406  0.6287146259843936  0.9406136490971522  1.0000
  C   C16       1.0  0.1191480533110933  0.12872251359399198  0.5593893367801073  1.0000
  C   C17       1.0  0.5710398305600037  0.5398159779990054  0.15280302733114584  1.0000
  C   C18       1.0  0.4289559614896917  0.03981849674578801  0.34719684208439366  1.0000
  C   C19       1.0  0.4289559851821778  0.4601810035889642  0.847199292277786  1.0000
  C   C20       1.0  0.5710441586334909  0.9601836622292337  0.6528037340859711  1.0000
  C   C21       1.0  0.036085285351568096  0.6462511523673342  0.2466474550301427  1.0000
  C   C22       1.0  0.9639081442148053  0.14625308467955023  0.2533493632423856  1.0000
  C   C23       1.0  0.9639105670781944  0.35375307757638547  0.7533512739407016  1.0000
  C   C24       1.0  0.0360905558091318  0.853745967859581  0.7466503578197674  1.0000
  C   C25       1.0  0.12050440031378427  0.551935361608372  0.3335216628834061  1.0000
  C   C26       1.0  0.8794898985215553  0.05193969149047461  0.16647375604348721  1.0000
  C   C27       1.0  0.8794914668229193  0.4480647264160993  0.6664756298335774  1.0000
  C   C28       1.0  0.12050878683766798  0.9480541836511523  0.8335274012743525  1.0000
  N   N1        1.0  0.3642353425088841  0.2179323967730227  0.031960977827822  1.0000
  N   N2        1.0  0.6357645821938573  0.7179329608188282  0.4680357791733414  1.0000
  N   N3        1.0  0.6357762046363573  0.7820656202561479  0.9680399760678783  1.0000
  N   N4        1.0  0.36423698741429417  0.2820702336314227  0.5319627795963058  1.0000
  N   N5        1.0  0.2424372329240825  0.46924052184270704  0.0984338327237282  1.0000
  N   N6        1.0  0.7575589505013768  0.9692425106842818  0.4015662795855235  1.0000
  N   N7        1.0  0.7575557426102292  0.5307523178327501  0.9015667766683819  1.0000
  N   N8        1.0  0.24244260441860627  0.0307606837666654  0.5984337154387873  1.0000
  N   N9        1.0  0.7591625623800339  0.5126435117606718  0.1685366778034307  1.0000
  N   N10       1.0  0.24083065034050571  0.012645885087408701  0.3314600557734906  1.0000
  N   N11       1.0  0.24083613029982584  0.48735554077880755  0.8314637613860612  1.0000
  N   N12       1.0  0.759168042325278  0.9873562738909811  0.6685403834153902  1.0000
  N   N13       1.0  0.535680824327329  0.6675062503011304  0.1870242680648104  1.0000
  N   N14       1.0  0.46431236857181085  0.167510638813205  0.3129768506532855  1.0000
  N   N15       1.0  0.46431641887694036  0.3324896958038294  0.8129781885258112  1.0000
  N   N16       1.0  0.5356849113247435  0.8324915201678637  0.6870220152994477  1.0000
  N   N17       1.0  0.8330185191100979  0.6270131161674826  0.2130852762799549  1.0000
  N   N18       1.0  0.166975077419167  0.12701683940709071  0.2869122676481624  1.0000
  N   N19       1.0  0.16697875344705435  0.37298800733429266  0.7869143078003162  1.0000
  N   N20       1.0  0.8330221877892113  0.872985319574667  0.7130880345592346  1.0000
  N   N21       1.0  0.7026909561416729  0.7213187077501714  0.22547557138831562  1.0000
  N   N22       1.0  0.2973046114250053  0.22132282861252148  0.2745250821065142  1.0000
  N   N23       1.0  0.2973048742839808  0.2786793093167432  0.7745253119657464  1.0000
  N   N24       1.0  0.7026926684762316  0.7786782948889056  0.725473783846418  1.0000
  O   O1        1.0  0.0134017359254486  0.47411002219328685  0.3715335741461416  1.0000
  O   O2        1.0  0.986597353729465  0.974119980165902  0.12845747456353965  1.0000
  O   O3        1.0  0.9865984429691819  0.5258879948604192  0.6284612570063571  1.0000
  O   O4        1.0  0.013402715055491399  0.0258666466169473  0.8715481285012102  1.0000
  O   O5        1.0  0.3000858463914041  0.5652491381079513  0.3575785105851992  1.0000
  O   O6        1.0  0.6999083244838927  0.0652491319936956  0.1424176212596677  1.0000
  O   O7        1.0  0.699912882994802  0.43475302086871176  0.6424183379670083  1.0000
  O   O8        1.0  0.3000946726191884  0.9347457786160762  0.8575810744930763  1.0000
  O   O9        1.0  0.6977840744405626  0.36848636804029417  0.4166445289202159  1.0000
  O   O10       1.0  0.302217304291986  0.8684871492977206  0.0833560337628114  1.0000
  O   O11       1.0  0.3022160530360906  0.6315137199751036  0.5833553291232221  1.0000
  O   O12       1.0  0.6977856780994713  0.1315129387109408  0.9166440982435873  1.0000
