data_image0
_chemical_formula_structural       Zn8H40C88Br16O26
_chemical_formula_sum              "Zn8 H40 C88 Br16 O26"
_cell_length_a       24.007724434269974
_cell_length_b       24.00907690421266
_cell_length_c       24.007429073517937
_cell_angle_alpha    66.87755829647723
_cell_angle_beta     72.3285843190696
_cell_angle_gamma    107.68071232602777

_space_group_name_H-M_alt    "P 1"
_space_group_IT_number       1

loop_
  _space_group_symop_operation_xyz
  'x, y, z'

loop_
  _atom_site_type_symbol
  _atom_site_label
  _atom_site_symmetry_multiplicity
  _atom_site_fract_x
  _atom_site_fract_y
  _atom_site_fract_z
  _atom_site_occupancy
  Zn  Zn1       1.0  0.05635471925060661  0.9572598145718771  0.4864413378828729  1.0000
  Zn  Zn2       1.0  0.05635788097862362  0.0990975502742515  0.4572114287148565  1.0000
  Zn  Zn3       1.0  0.9436404208534558  0.9864386809275558  0.4572554050970082  1.0000
  Zn  Zn4       1.0  0.9436541286665732  0.9572082511706552  0.5990988518082858  1.0000
  Zn  Zn5       1.0  0.9436933280874559  0.5427881109411531  0.013559470161204842  1.0000
  Zn  Zn6       1.0  0.056313004540228986  0.5135648623013509  0.04279280121116351  1.0000
  Zn  Zn7       1.0  0.9436904997955154  0.4009019624788623  0.042743937582201845  1.0000
  Zn  Zn8       1.0  0.056295942077255676  0.5427406330088402  0.9009030527545221  1.0000
  H   H1        1.0  0.9242631993352717  0.714980990789442  0.17518516577307242  1.0000
  H   H2        1.0  0.0757208304929265  0.675168793765863  0.2150247961917202  1.0000
  H   H3        1.0  0.9242665089514052  0.8248267415029319  0.2850033814790224  1.0000
  H   H4        1.0  0.07566600977506982  0.7849451419995787  0.3249092114992891  1.0000
  H   H5        1.0  0.07574179559811274  0.40052634832422745  0.7092901472266534  1.0000
  H   H6        1.0  0.9242842991547634  0.20925618300364576  0.9005645144528104  1.0000
  H   H7        1.0  0.07567440095930784  0.29072041811758  0.5994448250709751  1.0000
  H   H8        1.0  0.9242683545415532  0.09943809712073215  0.79072214542024  1.0000
  H   H9        1.0  0.6098365731852269  0.4005506894317817  0.17514368192618684  1.0000
  H   H10       1.0  0.6098396440607559  0.20927508990702381  0.21501274995848266  1.0000
  H   H11       1.0  0.39018341712798593  0.2907394612593137  0.2849547721582156  1.0000
  H   H12       1.0  0.39018016978707243  0.0994672894175893  0.3247740019266843  1.0000
  H   H13       1.0  0.39017269831184376  0.6751208554420528  0.9005499944751492  1.0000
  H   H14       1.0  0.3901461674764735  0.7149953197855298  0.7092689823555105  1.0000
  H   H15       1.0  0.6098326817378068  0.7849740898974531  0.7907461080486586  1.0000
  H   H16       1.0  0.6098080684285566  0.8247946264347803  0.599470354972311  1.0000
  H   H17       1.0  0.8568683491511991  0.7569941012978562  0.8240998894674049  1.0000
  H   H18       1.0  0.9086333927272607  0.8416986981528183  0.7500874338976045  1.0000
  H   H19       1.0  0.9187396231975454  0.8186286546532668  0.824520960119024  1.0000
  H   H20       1.0  0.08111049238467437  0.6809825254847368  0.6758950558315675  1.0000
  H   H21       1.0  0.09180269577750994  0.6587341395858813  0.7499122828038055  1.0000
  H   H22       1.0  0.1431619286122229  0.7432691112529141  0.675483519448491  1.0000
  H   H23       1.0  0.91889250989167  0.7429941521880252  0.9001313546099181  1.0000
  H   H24       1.0  0.9082000939682048  0.6582913184970921  0.933067919996816  1.0000
  H   H25       1.0  0.8568399834603684  0.6813642899071368  0.8998870439215236  1.0000
  H   H26       1.0  0.14313629735195857  0.819026222429507  0.5998766539713145  1.0000
  H   H27       1.0  0.09137013302551393  0.8412771972286849  0.5669331728728294  1.0000
  H   H28       1.0  0.08126344699017116  0.7567436450731861  0.6001042278220866  1.0000
  H   H29       1.0  0.8568712156358983  0.09987403552447204  0.31900457722237263  1.0000
  H   H30       1.0  0.9086412976989919  0.06693962613648101  0.3412478200935142  1.0000
  H   H31       1.0  0.9187415989215424  0.10012177501429427  0.25670971073100896  1.0000
  H   H32       1.0  0.0811117890557541  0.4001214526423595  0.24302039618206092  1.0000
  H   H33       1.0  0.09180083685004092  0.43306151882226357  0.15831314625341256  1.0000
  H   H34       1.0  0.14316164794671965  0.3998872448154529  0.1813863502228371  1.0000
  H   H35       1.0  0.9188961742281166  0.17590836367234905  0.18095542388337543  1.0000
  H   H36       1.0  0.9082059395907578  0.24992018727208173  0.15870945771938233  1.0000
  H   H37       1.0  0.8568450442403588  0.17548761866279952  0.24324200201355947  1.0000
  H   H38       1.0  0.14312910955985106  0.32409270368916043  0.2570268337264494  1.0000
  H   H39       1.0  0.09135927491875157  0.25008099376130843  0.34172856939316887  1.0000
  H   H40       1.0  0.0812595839401738  0.3245144756167306  0.31865314260329564  1.0000
  C   C1        1.0  0.1807677310840461  0.09038757395218508  0.40962026386835504  1.0000
  C   C2        1.0  0.9999934167960163  0.13792973293064367  0.3620683084625614  1.0000
  C   C3        1.0  0.9999971866750601  0.9096398088326794  0.4096364846560759  1.0000
  C   C4        1.0  0.819235498577115  0.9096098172629256  0.5903917556529947  1.0000
  C   C5        1.0  5.832984605553235e-06  0.8620646950530354  0.6379327549846678  1.0000
  C   C6        1.0  0.999997603322136  0.09036257374373227  0.5903661271276519  1.0000
  C   C7        1.0  1.7665087952790817e-06  0.590377159989778  0.09038764325396184  1.0000
  C   C8        1.0  9.656457848481938e-06  0.36207212556310947  0.1379335955275138  1.0000
  C   C9        1.0  0.8192719055651667  0.4096342594192918  0.0903568628115607  1.0000
  C   C10       1.0  0.9999935242338226  0.4096086724957289  0.9096246711877995  1.0000
  C   C11       1.0  0.9999944269669077  0.6379317896309048  0.8620668471563914  1.0000
  C   C12       1.0  0.18072498308009713  0.5903619213091247  0.9096296462106537  1.0000
  C   C13       1.0  3.4943316365178765e-06  0.8043738217307207  0.695624429628424  1.0000
  C   C14       1.0  0.9999987120221693  0.6956251273917291  0.8043756945080747  1.0000
  C   C15       1.0  0.9566314089248993  0.7768955393003266  0.7664900034246995  1.0000
  C   C16       1.0  0.04339242599065339  0.7231255561189656  0.7335102545256902  1.0000
  C   C17       1.0  0.95660896614406  0.7231004433570973  0.8202649326786469  1.0000
  C   C18       1.0  0.04337244279570034  0.7768782253820133  0.6797353202106322  1.0000
  C   C19       1.0  0.999997461374143  0.1956233453093219  0.3043758708134802  1.0000
  C   C20       1.0  5.371396476163533e-06  0.3043787884654776  0.19562516445451186  1.0000
  C   C21       1.0  0.9566321960292825  0.17973872799745294  0.276866849975903  1.0000
  C   C22       1.0  0.04339210980531055  0.3202631232063595  0.22311238108547116  1.0000
  C   C23       1.0  0.95661300258962  0.2335149785313676  0.2231144570593954  1.0000
  C   C24       1.0  0.043368597612513285  0.26648716120699584  0.27690841857992876  1.0000
  C   C25       1.0  0.9999990794937901  0.6279337891547883  0.12795225162862794  1.0000
  C   C26       1.0  0.9577339061021705  0.6582127753813084  0.13570350334209982  1.0000
  C   C27       1.0  0.9575244739122369  0.6928432977303131  0.17050657224300647  1.0000
  C   C28       1.0  0.9999889117852523  0.6995052378205671  0.19954111372931735  1.0000
  C   C29       1.0  0.0424612688500262  0.6704857517667759  0.19288009883510426  1.0000
  C   C30       1.0  0.042259284274642664  0.6356892094747622  0.15824331970258496  1.0000
  C   C31       1.0  0.9999796049845671  0.7347612352371511  0.2348130947854798  1.0000
  C   C32       1.0  0.9999701261461594  0.7651913858965214  0.2652552112504128  1.0000
  C   C33       1.0  0.9999693701993168  0.8004554045472787  0.3005193587914051  1.0000
  C   C34       1.0  0.9575178037983888  0.8295005001848706  0.30715923944239165  1.0000
  C   C35       1.0  0.9577290395900562  0.8643098966622277  0.3417852353047622  1.0000
  C   C36       1.0  0.999980438825226  0.8720578866959414  0.37208997588862064  1.0000
  C   C37       1.0  0.04221942539849285  0.8417410596641303  0.36436556988697083  1.0000
  C   C38       1.0  0.04241986934280121  0.8071020798411225  0.3295710554265767  1.0000
  C   C39       1.0  4.103878097929158e-06  0.37204391800425196  0.8720687885675033  1.0000
  C   C40       1.0  0.04227233183273435  0.4065468164958687  0.7995267329404288  1.0000
  C   C41       1.0  0.04247855469361647  0.3719528493753472  0.7646881539536138  1.0000
  C   C42       1.0  7.491338287559323e-06  0.3004605395748712  0.8004937624313302  1.0000
  C   C43       1.0  0.957542373008515  0.2646562664344501  0.8719864569610253  1.0000
  C   C44       1.0  0.9577469876146694  0.29949674069074916  0.9065788850268178  1.0000
  C   C45       1.0  0.9999984151750922  0.26519683404231387  0.7652297168277687  1.0000
  C   C46       1.0  0.9999845845266649  0.23476716276535106  0.7347873901548994  1.0000
  C   C47       1.0  0.9999774914128139  0.19951028330232373  0.6995173915077332  1.0000
  C   C48       1.0  0.042426910233324164  0.23531850270514099  0.6280208156812604  1.0000
  C   C49       1.0  0.04222260223981781  0.20048143106316726  0.5934240380897862  1.0000
  C   C50       1.0  0.9999819943356202  0.12792748084952887  0.6279284713250205  1.0000
  C   C51       1.0  0.9577283069447164  0.09342103697301239  0.7004795997456341  1.0000
  C   C52       1.0  0.9575209251872536  0.12801539966552844  0.7353200399997135  1.0000
  C   C53       1.0  0.7441441800876663  0.3720699923227001  0.12792479325623432  1.0000
  C   C54       1.0  0.7060968493827744  0.40657308422934335  0.1356684541087176  1.0000
  C   C55       1.0  0.6366638606786951  0.3719763231643043  0.17046837680337742  1.0000
  C   C56       1.0  0.6009728933446541  0.3004810639100628  0.19950641554107298  1.0000
  C   C57       1.0  0.6366648867516175  0.2646778256438579  0.19286019132596985  1.0000
  C   C58       1.0  0.7060986461501886  0.29951663118992394  0.15823123539848885  1.0000
  C   C59       1.0  0.530445644889646  0.2652194806543591  0.2347577137169238  1.0000
  C   C60       1.0  0.4695749021602894  0.23479508912169686  0.26517682294264927  1.0000
  C   C61       1.0  0.3990464946924419  0.1995339140385752  0.3004378916808009  1.0000
  C   C62       1.0  0.36336012095566866  0.23533917736040166  0.30709994349113856  1.0000
  C   C63       1.0  0.2939277607411341  0.20049972218334483  0.3417412277913812  1.0000
  C   C64       1.0  0.25588843751152984  0.12795048684619556  0.3720374983736364  1.0000
  C   C65       1.0  0.2939241574239874  0.09344660704270785  0.36427058964751063  1.0000
  C   C66       1.0  0.3633569929532854  0.12804165254201647  0.3294638917239467  1.0000
  C   C67       1.0  0.25585270722477566  0.6279158503239585  0.8720657901733802  1.0000
  C   C68       1.0  0.29390779921902793  0.6356549779782412  0.906569909806727  1.0000
  C   C69       1.0  0.36334168387580257  0.670449485381667  0.8719737847484267  1.0000
  C   C70       1.0  0.39902668186184115  0.6994903892860265  0.8004773612806133  1.0000
  C   C71       1.0  0.36332806356016784  0.6928438004788545  0.7646727786629627  1.0000
  C   C72       1.0  0.293892796333239  0.6582158626700617  0.799511919418144  1.0000
  C   C73       1.0  0.46955493604477255  0.7347498607408266  0.7652170103298986  1.0000
  C   C74       1.0  0.5304243017899355  0.7651796050667343  0.7348020402779339  1.0000
  C   C75       1.0  0.6009541535145221  0.8004494638925977  0.6995404443501272  1.0000
  C   C76       1.0  0.6366491008835383  0.8071172040583791  0.7353440516022118  1.0000
  C   C77       1.0  0.7060826859382205  0.8417574201800164  0.7005030809587819  1.0000
  C   C78       1.0  0.7441141581980449  0.8720457188064188  0.6279531038353952  1.0000
  C   C79       1.0  0.7060688380362167  0.8642868857699283  0.5934496246235241  1.0000
  C   C80       1.0  0.6366366355884028  0.8294800960745263  0.6280450818979587  1.0000
  C   C81       1.0  0.9080312153326205  0.800679256014206  0.7913982004061498  1.0000
  C   C82       1.0  0.09209170823690731  0.699440411645085  0.7086015132692721  1.0000
  C   C83       1.0  0.9079097823607117  0.6993118017994535  0.8926497801475078  1.0000
  C   C84       1.0  0.09197341270252934  0.8005691678425177  0.6073499914447495  1.0000
  C   C85       1.0  0.908035318718653  0.10735591463983225  0.3005427455074426  1.0000
  C   C86       1.0  0.09209239474897411  0.3926462643030746  0.19933339227191033  1.0000
  C   C87       1.0  0.9079163587333101  0.20860884539892766  0.19941702004540932  1.0000
  C   C88       1.0  0.09196415161059693  0.29139217744592116  0.3007064751774494  1.0000
  Br  Br1       1.0  0.8960552793380646  0.6571066249075842  0.10065660129937706  1.0000
  Br  Br2       1.0  0.1039358601230091  0.6006500173694744  0.15715211109703378  1.0000
  Br  Br3       1.0  0.8960566407510486  0.8993527396450317  0.3428708243043206  1.0000
  Br  Br4       1.0  0.10386913962941004  0.8428090418274437  0.39944585045004993  1.0000
  Br  Br5       1.0  0.1039685424904705  0.5032590537347659  0.7389570713623925  1.0000
  Br  Br6       1.0  0.8960829178862042  0.2389217150578418  0.0032979549224591976  1.0000
  Br  Br7       1.0  0.1038760709052441  0.26106501973286106  0.49670410029023054  1.0000
  Br  Br8       1.0  0.8960469544927749  0.9967076929959758  0.7610538003017594  1.0000
  Br  Br9       1.0  0.7422321417978353  0.5032886616243316  0.10061999814197264  1.0000
  Br  Br10      1.0  0.7422354622060039  0.23893676444021125  0.15715336267339816  1.0000
  Br  Br11      1.0  0.25778589290461446  0.26107506424948923  0.342825329415767  1.0000
  Br  Br12      1.0  0.2577788404408638  0.9967349779086163  0.3992878916157137  1.0000
  Br  Br13      1.0  0.2577815625802203  0.6006021716438922  0.0032884986632595197  1.0000
  Br  Br14      1.0  0.25774493617205246  0.6571222334709431  0.738935030234913  1.0000
  Br  Br15      1.0  0.7422350732593874  0.8428571200481728  0.76107495705196  1.0000
  Br  Br16      1.0  0.7422021394799077  0.8993307545558764  0.496730464287289  1.0000
  O   O1        1.0  1.16849697919996e-06  1.41158884049977e-06  0.4999998584545081  1.0000
  O   O2        1.0  0.1515365188757869  0.025976233591521212  0.43309044689431186  1.0000
  O   O3        1.0  0.0397408979553688  0.15358809458585648  0.3852850032548218  1.0000
  O   O4        1.0  0.9591429140605998  0.9332275254030193  0.415279453102208  1.0000
  O   O5        1.0  0.15154155813159062  0.12555984303051557  0.4154007113745807  1.0000
  O   O6        1.0  0.04086102246309065  0.9153012417515924  0.4332102109864807  1.0000
  O   O7        1.0  0.9602390307257807  0.07496685017584759  0.3861517586604605  1.0000
  O   O8        1.0  0.8484593497635161  0.9330578063549594  0.5259828885992305  1.0000
  O   O9        1.0  0.9603177100987066  0.8853352269990892  0.6535928576852543  1.0000
  O   O10       1.0  0.8484689438734282  0.915392556197375  0.6255624707609118  1.0000
  O   O11       1.0  0.03969828015828374  0.8860950633858804  0.5749688842483351  1.0000
  O   O12       1.0  0.040845620714080204  0.12557243288802766  0.5259244183370556  1.0000
  O   O13       1.0  0.95916530261281  0.025920544323874004  0.6255747106975136  1.0000
  O   O14       1.0  0.9999992368620381  0.49999881295185816  1.831324681386004e-06  1.0000
  O   O15       1.0  0.9590507990899224  0.584599822309478  0.06693180153347804  1.0000
  O   O16       1.0  0.03894255470648042  0.42503608391923114  0.11467043629535559  1.0000
  O   O17       1.0  0.8485026209492474  0.37443158493757517  0.08471281612835921  1.0000
  O   O18       1.0  0.04095865501269485  0.5669270167338852  0.08461314478318366  1.0000
  O   O19       1.0  0.8485053103216345  0.47407862279526825  0.0667626194784105  1.0000
  O   O20       1.0  0.9610825042602259  0.34641307989942777  0.11389597336466997  1.0000
  O   O21       1.0  0.9590440514879576  0.37443176069708545  0.9740299744771549  1.0000
  O   O22       1.0  0.038897013237374364  0.613875707089029  0.8464060670986413  1.0000
  O   O23       1.0  0.040931915883398284  0.47401617228196363  0.8744450480501059  1.0000
  O   O24       1.0  0.9610859637928759  0.6146859338130853  0.9250297753530389  1.0000
  O   O25       1.0  0.15149838219990414  0.5667845282385856  0.9740703474197332  1.0000
  O   O26       1.0  0.151487247046589  0.5847129227779745  0.874426687353072  1.0000
