data_image0
_chemical_formula_structural       Cu2H28C32N8Cl4
_chemical_formula_sum              "Cu2 H28 C32 N8 Cl4"
_cell_length_a       7.567009940021692
_cell_length_b       7.932750039582859
_cell_length_c       13.828049194017447
_cell_angle_alpha    89.99992360716922
_cell_angle_beta     90.00018210062653
_cell_angle_gamma    111.65261938605985

_space_group_name_H-M_alt    "P 1"
_space_group_IT_number       1

loop_
  _space_group_symop_operation_xyz
  'x, y, z'

loop_
  _atom_site_type_symbol
  _atom_site_label
  _atom_site_symmetry_multiplicity
  _atom_site_fract_x
  _atom_site_fract_y
  _atom_site_fract_z
  _atom_site_occupancy
  Cu  Cu1       1.0  0.5200707271191262  0.6939729312348887  0.7500004114574281  1.0000
  Cu  Cu2       1.0  0.47992867345408274  0.30602627246726394  0.2500001345340479  1.0000
  H   H1        1.0  0.4834320967800635  0.29437319006824936  0.6869699499599164  1.0000
  H   H2        1.0  0.48343113186809455  0.29437316731923596  0.8130318387724671  1.0000
  H   H3        1.0  0.5165731159667786  0.7056273800009406  0.3130320423717095  1.0000
  H   H4        1.0  0.5165727583792756  0.7056274002327  0.18696943039020653  1.0000
  H   H5        1.0  0.025883264674007474  0.9629355782912936  0.7499991546073093  1.0000
  H   H6        1.0  0.9741203815230788  0.037060922885139305  0.24999922188548146  1.0000
  H   H7        1.0  0.7332905554257605  0.031181205338548103  0.7499986818890818  1.0000
  H   H8        1.0  0.26670703455766903  0.9688098630947763  0.24999897143271002  1.0000
  H   H9        1.0  0.7639825973654409  0.3636251763017028  0.7500000274727157  1.0000
  H   H10       1.0  0.2360160369817592  0.6363686047269397  0.24999907218456496  1.0000
  H   H11       1.0  0.08084436142465282  0.5992170208359582  0.7499993419740036  1.0000
  H   H12       1.0  0.9191529504230683  0.4007767576754376  0.24999903451431754  1.0000
  H   H13       1.0  0.275307050234602  0.1498648763688095  0.5855542172502483  1.0000
  H   H14       1.0  0.2753111503471287  0.14986618491712989  0.9144487660211527  1.0000
  H   H15       1.0  0.7246947172018563  0.8501370424459295  0.414448498245669  1.0000
  H   H16       1.0  0.7246919395805944  0.850135736415332  0.08555177997249791  1.0000
  H   H17       1.0  0.17886125154611676  0.9748363560252428  0.4375213669191638  1.0000
  H   H18       1.0  0.17886575583432315  0.9748337162069587  0.062479310937618514  1.0000
  H   H19       1.0  0.8211386371091931  0.025170980428953296  0.5624784559018181  1.0000
  H   H20       1.0  0.8211383784551173  0.025170917720941998  0.9375219582237122  1.0000
  H   H21       1.0  0.19915002025968678  0.6593873564033786  0.4283871730077067  1.0000
  H   H22       1.0  0.19915060887421984  0.6593847061011572  0.0716130589758066  1.0000
  H   H23       1.0  0.8008480237122125  0.34061862123601117  0.5716104803087632  1.0000
  H   H24       1.0  0.8008490357472193  0.34061856397661217  0.9283896565177443  1.0000
  H   H25       1.0  0.3492925406693672  0.5629871112815793  0.5658752809327439  1.0000
  H   H26       1.0  0.34929306305860297  0.5629856958836754  0.934123898548549  1.0000
  H   H27       1.0  0.6507015699079941  0.43701208235142985  0.43412309555070994  1.0000
  H   H28       1.0  0.6507036925197552  0.4370135027837349  0.0658766474406249  1.0000
  C   C1        1.0  0.4005549408356828  0.22342926034834676  0.7500004877868066  1.0000
  C   C2        1.0  0.5994471047323768  0.7765699483885553  0.25000005820697174  1.0000
  C   C3        1.0  0.21168047402419887  0.2479639583397102  0.7500003138303699  1.0000
  C   C4        1.0  0.7883192046867717  0.7520325352842643  0.2500002321623853  1.0000
  C   C5        1.0  0.036354666916110986  0.10357904981158579  0.7500002164575009  1.0000
  C   C6        1.0  0.9636444896129742  0.8964160875147229  0.24999960636751692  1.0000
  C   C7        1.0  0.8712838644042974  0.14216270959648364  0.7499994827157437  1.0000
  C   C8        1.0  0.12871424776101745  0.8578297151345068  0.24999889377379253  1.0000
  C   C9        1.0  0.8858086375255492  0.3222831277044022  0.750000149462096  1.0000
  C   C10       1.0  0.11419131932317575  0.6777106558413875  0.2500003965319451  1.0000
  C   C11       1.0  0.0661725999037657  0.45729962671966007  0.7499993836166964  1.0000
  C   C12       1.0  0.9338265566232662  0.5426955106067693  0.249999716040513  1.0000
  C   C13       1.0  0.35387355829799805  0.9453554816390619  0.6602998819136728  1.0000
  C   C14       1.0  0.3538753896827344  0.9453554553643642  0.8397011817802209  1.0000
  C   C15       1.0  0.6461250419576243  0.054645075843495795  0.3397006640765881  1.0000
  C   C16       1.0  0.6461258555677388  0.054645107152936086  0.1602993642123423  1.0000
  C   C17       1.0  0.28810698953395075  0.0183027948734065  0.5813223008530457  1.0000
  C   C18       1.0  0.2881084686542295  0.0183040970289525  0.9186786361223085  1.0000
  C   C19       1.0  0.7118953000802859  0.9817004802392261  0.4186796914749991  1.0000
  C   C20       1.0  0.7118961878047967  0.9817018931973035  0.0813190171999238  1.0000
  C   C21       1.0  0.23189348167124282  0.9173910931438485  0.4973867124858203  1.0000
  C   C22       1.0  0.23189367883698953  0.9173884649891942  0.002612655495021  1.0000
  C   C23       1.0  0.7681074854291621  0.08261217945234019  0.5026094944986284  1.0000
  C   C24       1.0  0.7681062439222044  0.08261209501038987  0.9973900599998089  1.0000
  C   C25       1.0  0.24433653559827204  0.7463103840913802  0.4916282036939848  1.0000
  C   C26       1.0  0.24433648729571902  0.7463104641665268  0.0083713171838795  1.0000
  C   C27       1.0  0.7556657540098114  0.2536928910216005  0.5083716191306422  1.0000
  C   C28       1.0  0.7556668466699816  0.2536955235421274  0.9916277824728115  1.0000
  C   C29       1.0  0.3240308492098335  0.6892397871965767  0.5688336900026414  1.0000
  C   C30       1.0  0.3240321551326985  0.6892370189678799  0.9311653486291078  1.0000
  C   C31       1.0  0.6759640275832836  0.3107648291105249  0.4311625169759807  1.0000
  C   C32       1.0  0.6759656448135373  0.3107648922946281  0.0688380900311643  1.0000
  N   N1        1.0  0.22659593420436142  0.4223508297019548  0.7500002599480737  1.0000
  N   N2        1.0  0.7734018998293519  0.5776443051068653  0.2500002860435941  1.0000
  N   N3        1.0  0.3906302657294061  0.0359732071788201  0.7500005510290535  1.0000
  N   N4        1.0  0.609372302018485  0.9640273578558548  0.24999999496466072  1.0000
  N   N5        1.0  0.38033826737746773  0.787229706458575  0.6507787382735586  1.0000
  N   N6        1.0  0.38033935245813666  0.7872310309082805  0.8492217696446575  1.0000
  N   N7        1.0  0.6196611331977946  0.21276949724346386  0.34922253088572575  1.0000
  N   N8        1.0  0.6196610924706432  0.21277088538966632  0.1507773300110813  1.0000
  Cl  Cl1       1.0  0.7103997879908873  0.6484826034508726  0.6324525604868187  1.0000
  Cl  Cl2       1.0  0.7104004548571223  0.6484825657205988  0.867547182613187  1.0000
  Cl  Cl3       1.0  0.2896019794373642  0.3515193153643281  0.3675472623378724  1.0000
  Cl  Cl4       1.0  0.28959946789591834  0.3515179942793338  0.1324533633782252  1.0000
