data_image0
_chemical_formula_structural       Cd2H24C40N20
_chemical_formula_sum              "Cd2 H24 C40 N20"
_cell_length_a       7.7975702862126335
_cell_length_b       9.711913606818142
_cell_length_c       14.555557465686498
_cell_angle_alpha    101.1080709559881
_cell_angle_beta     90.04164610736403
_cell_angle_gamma    113.65257300314002

_space_group_name_H-M_alt    "P 1"
_space_group_IT_number       1

loop_
  _space_group_symop_operation_xyz
  'x, y, z'

loop_
  _atom_site_type_symbol
  _atom_site_label
  _atom_site_symmetry_multiplicity
  _atom_site_fract_x
  _atom_site_fract_y
  _atom_site_fract_z
  _atom_site_occupancy
  Cd  Cd1       1.0  0.8865033306040648  0.9999426545834428  0.7499652696121046  1.0000
  Cd  Cd2       1.0  0.11349419856238542  5.567598447700038e-05  0.2500356989117023  1.0000
  H   H1        1.0  0.8120707547592475  0.876717629334877  0.9348928792354059  1.0000
  H   H2        1.0  0.9350533709732222  0.12321113999249184  0.5649966039147643  1.0000
  H   H3        1.0  0.18791792550877065  0.12327839441195472  0.06510642126025348  1.0000
  H   H4        1.0  0.06494575712469715  0.8767929513222444  0.4350071558921513  1.0000
  H   H5        1.0  0.6688623327008261  0.6406710363814981  0.00433759839581433  1.0000
  H   H6        1.0  0.028343235801713756  0.3592151802753137  0.495479095882601  1.0000
  H   H7        1.0  0.3311219231179764  0.3593238339547966  0.9956608680857715  1.0000
  H   H8        1.0  0.9716524384336297  0.640782004223766  0.504522414103036  1.0000
  H   H9        1.0  0.48014417136809584  0.22893580265763808  0.7525540394547932  1.0000
  H   H10       1.0  0.25128260998632634  0.7709801944643717  0.7471253281587239  1.0000
  H   H11       1.0  0.5198539162452748  0.7710636515840931  0.2474422623620853  1.0000
  H   H12       1.0  0.7487281901827388  0.22902159259035676  0.252877454905871  1.0000
  H   H13       1.0  0.48688101626488134  0.20170208731035902  0.5784865480694991  1.0000
  H   H14       1.0  0.28438997943845845  0.7983363830326059  0.9213224662315866  1.0000
  H   H15       1.0  0.513117913935318  0.7982939208652413  0.42151000431265123  1.0000
  H   H16       1.0  0.715612986521471  0.20166769308082888  0.07867854427919241  1.0000
  H   H17       1.0  0.619009362644427  0.4327707694660818  0.5092196363407027  1.0000
  H   H18       1.0  0.1848195451286331  0.5672683096305065  0.990630049292001  1.0000
  H   H19       1.0  0.3809908452797617  0.5672252311458622  0.4907755412751129  1.0000
  H   H20       1.0  0.8151835558661845  0.4327334703784518  0.009371357350588026  1.0000
  H   H21       1.0  0.743191849419404  0.6951482027226848  0.612150942548908  1.0000
  H   H22       1.0  0.04695990864829014  0.3048630147869247  0.8877104531093566  1.0000
  H   H23       1.0  0.256803671020876  0.30485124792217294  0.3878446712934932  1.0000
  H   H24       1.0  0.9530483149675892  0.6951387536915804  0.1122888919750551  1.0000
  C   C1        1.0  0.7530480180590902  0.7622377160212965  0.8896687266227019  1.0000
  C   C2        1.0  0.9904956856086073  0.23773249972940397  0.6101964662165145  1.0000
  C   C3        1.0  0.24694264279481368  0.23775714271055656  0.11032767853721741  1.0000
  C   C4        1.0  0.00950371021405538  0.7622669956315493  0.3898073983525947  1.0000
  C   C5        1.0  0.6746298302737517  0.6292672080699264  0.9284092025497799  1.0000
  C   C6        1.0  0.04530654361551005  0.3706928828427537  0.5714356868315775  1.0000
  C   C7        1.0  0.32535769558004557  0.3707265084119059  0.07158843133687753  1.0000
  C   C8        1.0  0.9546965597243259  0.6293089009110417  0.428566407312438  1.0000
  C   C9        1.0  0.6094993899881943  0.4765103614806848  0.7808959017732134  1.0000
  C   C10       1.0  0.13276768346825923  0.5234895948520943  0.7189136637471307  1.0000
  C   C11       1.0  0.39049684269407714  0.5234879466922069  0.21910094150550213  1.0000
  C   C12       1.0  0.8672398372857232  0.47651333107774013  0.28108720190667214  1.0000
  C   C13       1.0  0.5376078681534299  0.32898544356658743  0.7206370195325462  1.0000
  C   C14       1.0  0.2084095320303235  0.6710128918227485  0.7791263419225558  1.0000
  C   C15       1.0  0.46238708680485996  0.6710128721699605  0.27936119851249697  1.0000
  C   C16       1.0  0.7915999763446139  0.3289888803266123  0.2208736908998006  1.0000
  C   C17       1.0  0.541240218395899  0.31507883894227723  0.6247153070641999  1.0000
  C   C18       1.0  0.2254700371634188  0.6850000181646225  0.8750752779307974  1.0000
  C   C19       1.0  0.4587572990454305  0.6849194729014627  0.3752822239524605  1.0000
  C   C20       1.0  0.7745380631426999  0.31500406514255286  0.12492710852893651  1.0000
  C   C21       1.0  0.6160659018415515  0.44722859371365337  0.5852525145520815  1.0000
  C   C22       1.0  0.16773472545941118  0.5528459587241275  0.9145648479856803  1.0000
  C   C23       1.0  0.38393289566879235  0.5527697143112676  0.414744329199678  1.0000
  C   C24       1.0  0.8322736866740926  0.44716387791416423  0.08543895451779093  1.0000
  C   C25       1.0  0.6862012475327505  0.592666705023433  0.6416967919585019  1.0000
  C   C26       1.0  0.0925557465174834  0.4073518821512253  0.8581290012147208  1.0000
  C   C27       1.0  0.31379428228761713  0.4073327606007809  0.3583015718896121  1.0000
  C   C28       1.0  0.9074547812367941  0.5926544933676112  0.14187230208482052  1.0000
  C   C29       1.0  0.6853785696112527  0.6104073145397778  0.740486052365334  1.0000
  C   C30       1.0  0.07434627238244232  0.38956647866712785  0.7593496527185195  1.0000
  C   C31       1.0  0.3146115163805662  0.3895863943044093  0.2595102069915214  1.0000
  C   C32       1.0  0.9256613857514469  0.6104341549030681  0.24065229656852694  1.0000
  C   C33       1.0  0.2797000319546329  0.07680006038386722  0.8884795527894411  1.0000
  C   C34       1.0  0.20316937969944623  0.9231119560350154  0.611587912202225  1.0000
  C   C35       1.0  0.7203058945579247  0.9231971122888186  0.11151989658410608  1.0000
  C   C36       1.0  0.7968255893289754  0.07688638217055653  0.388414430851391  1.0000
  C   C37       1.0  0.5784533822882167  0.08289978511474064  0.8896181588312331  1.0000
  C   C38       1.0  0.49565153501221487  0.916730349604052  0.6102171098218251  1.0000
  C   C39       1.0  0.42155256298452337  0.9170974175166507  0.11038679055373993  1.0000
  C   C40       1.0  0.5043518825000322  0.08327719122571153  0.38978708786735444  1.0000
  N   N1        1.0  0.7576778611572981  0.7536101607171661  0.7979693715611306  1.0000
  N   N2        1.0  0.0034602095667680684  0.24635579736451532  0.7019198868738883  1.0000
  N   N3        1.0  0.24231523183481588  0.24638699771603004  0.2020273254414633  1.0000
  N   N4        1.0  0.9965447487041674  0.7536471324581271  0.29808166580829726  1.0000
  N   N5        1.0  0.6047430515294894  0.48873931604325827  0.875764604018549  1.0000
  N   N6        1.0  0.11609950613896561  0.5112377654286746  0.6240448253976679  1.0000
  N   N7        1.0  0.39524689942744845  0.5112566889054053  0.12423125920649623  1.0000
  N   N8        1.0  0.883908140269803  0.48876284941733433  0.375953686382239  1.0000
  N   N9        1.0  0.13509693939848696  0.07389311798005592  0.8618816940721956  1.0000
  N   N10       1.0  0.0616732350513233  0.9261627342900741  0.6383030304960827  1.0000
  N   N11       1.0  0.8649064058708336  0.9261040286267463  0.13811294231830837  1.0000
  N   N12       1.0  0.9383144258373552  0.07382868608728194  0.3616949995223848  1.0000
  N   N13       1.0  0.42926012272715763  0.08068182846244552  0.9286991968002455  1.0000
  N   N14       1.0  0.348585232068274  0.9191317169828039  0.5712364736588925  1.0000
  N   N15       1.0  0.5707411233365607  0.9193188054776799  0.07130275130418083  1.0000
  N   N16       1.0  0.6514150504438662  0.0808746815969386  0.4287689527570251  1.0000
  N   N17       1.0  0.7220047967318379  0.08552632561846002  0.8626190154474997  1.0000
  N   N18       1.0  0.6366297229308915  0.9139831970403096  0.6371263681067418  1.0000
  N   N19       1.0  0.278000008196827  0.914468592216949  0.13738839233704433  1.0000
  N   N20       1.0  0.3633749676153002  0.08602432873612291  0.3628750798132501  1.0000
