data_image0
_chemical_formula_structural       Al2H8C16O10F2
_chemical_formula_sum              "Al2 H8 C16 O10 F2"
_cell_length_a       6.716041745103163
_cell_length_b       11.20326217706594
_cell_length_c       11.138477372259048
_cell_angle_alpha    76.70671619910736
_cell_angle_beta     73.02758660904941
_cell_angle_gamma    71.97475972634192

_space_group_name_H-M_alt    "P 1"
_space_group_IT_number       1

loop_
  _space_group_symop_operation_xyz
  'x, y, z'

loop_
  _atom_site_type_symbol
  _atom_site_label
  _atom_site_symmetry_multiplicity
  _atom_site_fract_x
  _atom_site_fract_y
  _atom_site_fract_z
  _atom_site_occupancy
  Al  Al1       1.0  0.5009542552346673  0.4991230150280542  0.4989914202660869  1.0000
  Al  Al2       1.0  0.003956121105439089  0.4960851305770434  0.49605449311926003  1.0000
  H   H1        1.0  0.2172980820661365  0.4162420257202157  0.6508865697922843  1.0000
  H   H2        1.0  0.715944703694724  0.6508586704512924  0.41596147607404516  1.0000
  H   H3        1.0  0.12253791346716976  0.5093293114761934  0.1091446316326881  1.0000
  H   H4        1.0  0.7672770470827357  0.48220456195500105  0.12588340335596376  1.0000
  H   H5        1.0  0.251121763019583  0.5085492356401317  0.8741621967535167  1.0000
  H   H6        1.0  0.2586895814724243  0.10868049443643467  0.5106382640478698  1.0000
  H   H7        1.0  0.6249094645306882  0.1263565781970684  0.4818718477744638  1.0000
  H   H8        1.0  0.3655680361086198  0.8738475736328083  0.5093775199779242  1.0000
  C   C1        1.0  0.867672553678851  0.27167201673897523  0.49830205738851413  1.0000
  C   C2        1.0  0.6462820612379401  0.4919545058992654  0.7269878423288743  1.0000
  C   C3        1.0  0.1342934239086588  0.7271172266722205  0.49169912892664763  1.0000
  C   C4        1.0  0.3630667869857546  0.4980049824770277  0.27160823736844003  1.0000
  C   C5        1.0  0.5793032386363279  0.49359286152474635  0.8670690886723019  1.0000
  C   C6        1.0  0.43651015364144297  0.49617458206017767  0.13161913557805596  1.0000
  C   C7        1.0  0.7209911757402452  0.48600180339347787  0.941353608513772  1.0000
  C   C8        1.0  0.2907331254074845  0.503152040322668  0.06069683415112337  1.0000
  C   C9        1.0  0.6533272066369162  0.48778580682224504  0.07116918614744348  1.0000
  C   C10       1.0  0.36226613852369377  0.5024243699623272  0.9306360906493223  1.0000
  C   C11       1.0  0.059743948285770884  0.8671847682959566  0.4934468245564573  1.0000
  C   C12       1.0  0.9357036665692745  0.1316575934910773  0.49659354726347243  1.0000
  C   C13       1.0  0.8515913117701572  0.9416917512500262  0.4856430669077836  1.0000
  C   C14       1.0  0.14515132780378784  0.06049852733554673  0.5039834749162251  1.0000
  C   C15       1.0  0.7877697377768698  0.07147073966009292  0.48774802313267424  1.0000
  C   C16       1.0  0.20428620088622312  0.9304716509097376  0.5029489007881975  1.0000
  O   O1        1.0  0.6702882964335045  0.327216069918066  0.5017627405999077  1.0000
  O   O2        1.0  0.8421581168165773  0.48808913786412234  0.6711729365299417  1.0000
  O   O3        1.0  0.9974739383109327  0.6712611779025721  0.48882635037104166  1.0000
  O   O4        1.0  0.5019786286797654  0.5006028813712151  0.32716390313152016  1.0000
  O   O5        1.0  0.3319508252766353  0.6744119669963383  0.49259748710863943  1.0000
  O   O6        1.0  0.1674802889998118  0.4980358061063798  0.32387073843779746  1.0000
  O   O7        1.0  0.011527660799572506  0.3239375222225718  0.49728213629516904  1.0000
  O   O8        1.0  0.4998844137380091  0.4937786770236486  0.6742692540831923  1.0000
  O   O9        1.0  0.25169129858655037  0.44113300067306227  0.5593661695214605  1.0000
  O   O10       1.0  0.7479504352892475  0.5593664413803836  0.44096181009863494  1.0000
  F   F1        1.0  0.9345119781146566  0.47557398198485157  0.8880579800523518  1.0000
  F   F2        1.0  0.7019010415781041  0.8887398583078931  0.4744806694244943  1.0000
