data_image0
_chemical_formula_structural       Zn2H8C14N8O16
_chemical_formula_sum              "Zn2 H8 C14 N8 O16"
_cell_length_a       7.942347364539174
_cell_length_b       8.995034380393674
_cell_length_c       14.08083678737445
_cell_angle_alpha    85.04798938768552
_cell_angle_beta     74.85303852502607
_cell_angle_gamma    85.35410398502445

_space_group_name_H-M_alt    "P 1"
_space_group_IT_number       1

loop_
  _space_group_symop_operation_xyz
  'x, y, z'

loop_
  _atom_site_type_symbol
  _atom_site_label
  _atom_site_symmetry_multiplicity
  _atom_site_fract_x
  _atom_site_fract_y
  _atom_site_fract_z
  _atom_site_occupancy
  Zn  Zn1       1.0  0.6962347245967211  0.5076972232450743  0.47887935997712816  1.0000
  Zn  Zn2       1.0  0.303670544469675  0.49215353518943783  0.5212823553095731  1.0000
  H   H1        1.0  0.8676400807774842  0.30769113093850115  0.5648754801622573  1.0000
  H   H2        1.0  0.9400483076766905  0.20413901532926096  0.7083936005088703  1.0000
  H   H3        1.0  0.9090700552107549  0.3997164966765254  0.7299427037347853  1.0000
  H   H4        1.0  0.12366557856103814  0.31402722037872616  0.686442804126493  1.0000
  H   H5        1.0  0.1326362369816394  0.6917817539440351  0.4345814884087815  1.0000
  H   H6        1.0  0.06010310046591632  0.795234608379168  0.2910225233913266  1.0000
  H   H7        1.0  0.8765932590049702  0.6851431374965246  0.3130411079640966  1.0000
  H   H8        1.0  0.09127599348328634  0.5995090770822034  0.2696769627627447  1.0000
  C   C1        1.0  0.4567856625443197  0.7894160235491939  0.48842191810437896  1.0000
  C   C2        1.0  0.543130118795027  0.2103998643965781  0.5116905839328679  1.0000
  C   C3        1.0  0.5307666194231261  0.4884506724864933  0.3147775177422361  1.0000
  C   C4        1.0  0.4692644908329839  0.5116087894937208  0.685407484566987  1.0000
  C   C5        1.0  0.4530818297451731  0.509081182312059  0.7901077872519267  1.0000
  C   C6        1.0  0.5468662675698894  0.49136355124555564  0.2100763116439737  1.0000
  C   C7        1.0  0.4340406566270119  0.4951121267653563  0.978340388121616  1.0000
  C   C8        1.0  0.5664862324572368  0.5052925227478299  0.021796147435189546  1.0000
  C   C9        1.0  0.5554453588293883  0.49786481656573056  0.12209173654387231  1.0000
  C   C10       1.0  0.44467199301817584  0.5029690289684083  0.87806994920075  1.0000
  C   C11       1.0  0.4369267277275171  0.955336648496406  0.4984439739029298  1.0000
  C   C12       1.0  0.5629897565621748  0.0444913659679358  0.5016031176654963  1.0000
  C   C13       1.0  0.9876946154998909  0.3150528651073969  0.6824332087771693  1.0000
  C   C14       1.0  0.012554541790713419  0.6843053923181088  0.31708706021397853  1.0000
  N   N1        1.0  0.0425027089711705  0.4660997468958499  0.5295416125512205  1.0000
  N   N2        1.0  0.9576213789646318  0.5335507390664559  0.4701207203936377  1.0000
  N   N3        1.0  0.7454016534190445  0.5291355958994686  0.9545203082068595  1.0000
  N   N4        1.0  0.25489182294013807  0.4727192867267079  0.045926118457970184  1.0000
  N   N5        1.0  0.25509261230261876  0.0172987123227912  0.5077380657597317  1.0000
  N   N6        1.0  0.744770171132032  0.9825097349066284  0.4922861096415829  1.0000
  N   N7        1.0  0.976855887572967  0.3413730941476132  0.5806922575157714  1.0000
  N   N8        1.0  0.023283832707711793  0.658231182856092  0.41887533538494637  1.0000
  O   O1        1.0  0.610499032421359  0.730867710654188  0.47276798807418885  1.0000
  O   O2        1.0  0.38942280108908284  0.26893239509580263  0.5273140252319877  1.0000
  O   O3        1.0  0.3163145234073781  0.7246836946235434  0.49812456592227505  1.0000
  O   O4        1.0  0.6835618117107388  0.27515070445657847  0.5020696696183578  1.0000
  O   O5        1.0  0.6726646392130959  0.489022086362553  0.3406398829265029  1.0000
  O   O6        1.0  0.3273746282805092  0.5107657618734718  0.6595363399087971  1.0000
  O   O7        1.0  0.375960181047347  0.48670041018914395  0.3696235418923095  1.0000
  O   O8        1.0  0.6241124607893483  0.5132769969136888  0.6305490312256552  1.0000
  O   O9        1.0  0.7891746519476045  0.6588969244147407  0.9408699538811476  1.0000
  O   O10       1.0  0.8316954146841273  0.4166693712406655  0.9208911117611933  1.0000
  O   O11       1.0  0.21602923160260454  0.34238375429801243  0.06804821045821538  1.0000
  O   O12       1.0  0.16359977945800347  0.5869992499173833  0.071333626288471  1.0000
  O   O13       1.0  0.15787551136507724  0.0132304646284283  0.5916221985798629  1.0000
  O   O14       1.0  0.21602941619563865  0.05868003077229391  0.4300991749043845  1.0000
  O   O15       1.0  0.8420241171461033  0.9866267651891787  0.4084156059326958  1.0000
  O   O16       1.0  0.7838808907401714  0.9411625114040659  0.569920241765864  1.0000
