data_image0
_chemical_formula_structural       Nd4Cd4H28C20S4N8O44
_chemical_formula_sum              "Nd4 Cd4 H28 C20 S4 N8 O44"
_cell_length_a       8.698187653644226
_cell_length_b       10.60436424100076
_cell_length_c       13.872489637316507
_cell_angle_alpha    89.99995757243002
_cell_angle_beta     101.62116347452462
_cell_angle_gamma    89.99999856168594

_space_group_name_H-M_alt    "P 1"
_space_group_IT_number       1

loop_
  _space_group_symop_operation_xyz
  'x, y, z'

loop_
  _atom_site_type_symbol
  _atom_site_label
  _atom_site_symmetry_multiplicity
  _atom_site_fract_x
  _atom_site_fract_y
  _atom_site_fract_z
  _atom_site_occupancy
  Nd  Nd1       1.0  0.9340614999848501  0.893351934756282  0.11114080087482853  1.0000
  Nd  Nd2       1.0  0.0659380071254034  0.3933510663295507  0.3888588213440656  1.0000
  Nd  Nd3       1.0  0.06593827172901001  0.1066481093766782  0.8888588235637442  1.0000
  Nd  Nd4       1.0  0.9340617585014075  0.6066489778037578  0.6111400814842298  1.0000
  Cd  Cd1       1.0  0.6181493497342744  0.48604320953570823  0.1342241163947548  1.0000
  Cd  Cd2       1.0  0.3818501312219171  0.9860428994221946  0.3657747295452296  1.0000
  Cd  Cd3       1.0  0.3818504158925294  0.5139568345976002  0.8657747864335477  1.0000
  Cd  Cd4       1.0  0.6181484667826427  0.0139571447108437  0.6342247503867425  1.0000
  H   H1        1.0  0.6255709327958173  0.2625954864272799  0.336150686561858  1.0000
  H   H2        1.0  0.3744286026221247  0.7625953733386267  0.16384901277578479  1.0000
  H   H3        1.0  0.3744300065402868  0.7374045577059432  0.663848360773045  1.0000
  H   H4        1.0  0.6255699953824421  0.2374046707944188  0.8361504671561873  1.0000
  H   H5        1.0  0.010410757587948204  0.8993569073515884  0.3425255009941495  1.0000
  H   H6        1.0  0.9895922754370761  0.39935718625228134  0.15747527281278914  1.0000
  H   H7        1.0  0.9895901939223466  0.10064219377296268  0.6574749895615639  1.0000
  H   H8        1.0  0.010408669986070204  0.6006428578805939  0.842524496132377  1.0000
  H   H9        1.0  0.8247686427844629  0.9128702145945267  0.3170938379784046  1.0000
  H   H10       1.0  0.17523438731503663  0.41287048744023735  0.18290692785851087  1.0000
  H   H11       1.0  0.17523230872583895  0.08712888653002439  0.6829066525773085  1.0000
  H   H12       1.0  0.8247677318175093  0.5871286136845839  0.8170929855935326  1.0000
  H   H13       1.0  0.0157678076297856  0.6258846777322659  0.17460678318536074  1.0000
  H   H14       1.0  0.9842317573849757  0.12588479305586728  0.32539299678300887  1.0000
  H   H15       1.0  0.9842319579970256  0.3741153664010425  0.8253921196429417  1.0000
  H   H16       1.0  0.0157703678346124  0.8741143080685988  0.6746076382793047  1.0000
  H   H17       1.0  0.05554390422489771  0.6868434909963453  0.2782237113776347  1.0000
  H   H18       1.0  0.9444544677965043  0.18684276524189863  0.22177516652115506  1.0000
  H   H19       1.0  0.9444546816054784  0.31315749614536514  0.7217743253335199  1.0000
  H   H20       1.0  0.0555476635101257  0.8131563358822191  0.7782261901514289  1.0000
  H   H21       1.0  0.5543076676289332  0.8864604568335538  0.0702008537727892  1.0000
  H   H22       1.0  0.4456918531473662  0.3864595397566076  0.4298002157311842  1.0000
  H   H23       1.0  0.44569093037562624  0.11353958729949198  0.9297986261591831  1.0000
  H   H24       1.0  0.5543090983628289  0.6135405043759191  0.570200274824252  1.0000
  H   H25       1.0  0.6212337726334028  0.025263136182793692  0.0824641347124668  1.0000
  H   H26       1.0  0.3787670061357319  0.5252618326708074  0.4175380139393993  1.0000
  H   H27       1.0  0.3787671788767853  0.9747369079497259  0.9175363558429692  1.0000
  H   H28       1.0  0.6212327716652695  0.474737268453829  0.5824623321097206  1.0000
  C   C1        1.0  0.5300203433784393  0.24566192373644918  0.2739197963409836  1.0000
  C   C2        1.0  0.4699803694147847  0.7456617477813977  0.22608005749053459  1.0000
  C   C3        1.0  0.4699794283354138  0.7543381203965112  0.726079828097589  1.0000
  C   C4        1.0  0.5300194022990682  0.2543382963515625  0.773919566948038  1.0000
  C   C5        1.0  0.3320260715043021  0.15709183559955872  0.177115077470134  1.0000
  C   C6        1.0  0.6679758280857231  0.6570934467318139  0.3228842514950188  1.0000
  C   C7        1.0  0.6679748739189436  0.8429072655253479  0.8228846914753163  1.0000
  C   C8        1.0  0.33202393145403886  0.3429065974018498  0.6771139297230134  1.0000
  C   C9        1.0  0.3749378088988777  0.2655641786320898  0.1305244554979339  1.0000
  C   C10       1.0  0.6250628934984308  0.7655657453314927  0.3694746649846293  1.0000
  C   C11       1.0  0.6250619506409906  0.7344349224935981  0.8694737257203754  1.0000
  C   C12       1.0  0.3749380458377729  0.2344333557937617  0.6305243823505435  1.0000
  C   C13       1.0  0.21451877858275742  0.058760638027770484  0.14802643593496606  1.0000
  C   C14       1.0  0.7854819685860408  0.5587612750903616  0.3519728065187238  1.0000
  C   C15       1.0  0.7854809931310954  0.9412394061051828  0.8519731885036066  1.0000
  C   C16       1.0  0.2145177909536217  0.4412397120512707  0.6480253746990242  1.0000
  C   C17       1.0  0.31607383643054027  0.32651460350195544  0.034029513053681584  1.0000
  C   C18       1.0  0.6839280264808706  0.8265151317677492  0.465969715987775  1.0000
  C   C19       1.0  0.6839259291963701  0.6734844976233844  0.9659693897748908  1.0000
  C   C20       1.0  0.31607174523298204  0.17348491236521105  0.5340299084507976  1.0000
  S   S1        1.0  0.7888634222195422  0.22028663212562802  0.0424212279905944  1.0000
  S   S2        1.0  0.21113730215421372  0.7202871794503023  0.4575793624170926  1.0000
  S   S3        1.0  0.21113636166850824  0.7797124689986531  0.9575798396687956  1.0000
  S   S4        1.0  0.7888636432688331  0.2797138076905412  0.5424204065277962  1.0000
  N   N1        1.0  0.49996454748594504  0.31908833592611063  0.1934202468459816  1.0000
  N   N2        1.0  0.500036149410832  0.8190899668179197  0.3065795636787669  1.0000
  N   N3        1.0  0.5000340444316794  0.6809107651993145  0.8065785114759974  1.0000
  N   N4        1.0  0.49996362838996333  0.18091102032266088  0.6934207823697918  1.0000
  N   N5        1.0  0.42989031090091606  0.1480257114690744  0.2681567356428189  1.0000
  N   N6        1.0  0.5701104169427681  0.6480255275921037  0.23184245416337748  1.0000
  N   N7        1.0  0.5701094608129438  0.851974332663886  0.7318428887957467  1.0000
  N   N8        1.0  0.42988818106179855  0.35197451654093465  0.7681570257685948  1.0000
  O   O1        1.0  0.18648533960579536  0.9818588493454496  0.2138789923635045  1.0000
  O   O2        1.0  0.8135153159654182  0.48185994989125186  0.2861200005505609  1.0000
  O   O3        1.0  0.813514432108157  0.018140251779541896  0.7861206320753452  1.0000
  O   O4        1.0  0.1864844435743436  0.5181400942424118  0.7138781806674714  1.0000
  O   O5        1.0  0.13853824059646772  0.046452542010840085  0.0595269943320034  1.0000
  O   O6        1.0  0.8614625092369438  0.5464530910486757  0.4404722553809179  1.0000
  O   O7        1.0  0.861461531117385  0.9535475021221204  0.9404726301065691  1.0000
  O   O8        1.0  0.1385384300989543  0.4535488391004916  0.5595267919534237  1.0000
  O   O9        1.0  0.20630533044810312  0.2795391490727539  0.9708732908239739  1.0000
  O   O10       1.0  0.7936934886433136  0.7795410436921062  0.5291253677475324  1.0000
  O   O11       1.0  0.7936944412658563  0.7204599520522307  0.02912633361487588  1.0000
  O   O12       1.0  0.20630394782614303  0.22045805743234576  0.4708754108986567  1.0000
  O   O13       1.0  0.38247398404309524  0.4308367528118993  0.0189806685915954  1.0000
  O   O14       1.0  0.6175266825740807  0.930837267934791  0.4810183544150063  1.0000
  O   O15       1.0  0.6175257876708643  0.5691623483130855  0.9810189558472472  1.0000
  O   O16       1.0  0.3824742628490655  0.06916277619807691  0.5189814145301597  1.0000
  O   O17       1.0  0.6209407575147595  0.18612995590028447  0.014648352531814601  1.0000
  O   O18       1.0  0.37905996816660803  0.6861304722862371  0.4853515364109099  1.0000
  O   O19       1.0  0.37906018790838675  0.8138700882325904  0.9853514164133585  1.0000
  O   O20       1.0  0.6209398035472447  0.31386957184672326  0.5146480880276556  1.0000
  O   O21       1.0  0.8111004766552341  0.3462592704344516  0.09199766307992259  1.0000
  O   O22       1.0  0.18890022044639926  0.8462598666019755  0.4080028530302329  1.0000
  O   O23       1.0  0.18889930114576717  0.6537398306901848  0.9080026829691972  1.0000
  O   O24       1.0  0.8110995512674537  0.1537401775309846  0.5919967714083398  1.0000
  O   O25       1.0  0.8695905149440649  0.12452979387942516  0.11622284413246577  1.0000
  O   O26       1.0  0.1304102301604075  0.6245294720014201  0.3837778027520001  1.0000
  O   O27       1.0  0.130409268943886  0.8754702502528319  0.8837782235266471  1.0000
  O   O28       1.0  0.8695907152627387  0.37547057213145507  0.6162219661931729  1.0000
  O   O29       1.0  0.8633986798619164  0.2225428043379764  0.9553592290715398  1.0000
  O   O30       1.0  0.13660133745216288  0.7225446989514664  0.5446410508430332  1.0000
  O   O31       1.0  0.13660227164848496  0.7774553537786064  0.044641261484450495  1.0000
  O   O32       1.0  0.863398434261491  0.27745723119743093  0.4553585735949781  1.0000
  O   O33       1.0  0.9203067120528915  0.9387010981835575  0.2958323613066227  1.0000
  O   O34       1.0  0.0796951387452296  0.43870040949223454  0.2041682447891588  1.0000
  O   O35       1.0  0.0796942394574103  0.06129800294100111  0.7041681292490976  1.0000
  O   O36       1.0  0.9203058066780233  0.5612986916326648  0.7958315241562844  1.0000
  O   O37       1.0  0.0025612284665826003  0.7047172985632101  0.2087037520715  1.0000
  O   O38       1.0  0.9974371457722245  0.20471744682355109  0.2912958368954861  1.0000
  O   O39       1.0  0.9974373634510345  0.2952818025622149  0.791295006250479  1.0000
  O   O40       1.0  0.0025649794473637006  0.7952816543009149  0.7087047981668277  1.0000
  O   O41       1.0  0.6439330899100002  0.9373008280975342  0.1038697934542228  1.0000
  O   O42       1.0  0.356067593569037  0.43729994590597704  0.39613139057115637  1.0000
  O   O43       1.0  0.35606785551314607  0.062699216035341  0.8961299754909503  1.0000
  O   O44       1.0  0.6439321781449225  0.5626991552190077  0.6038682338676935  1.0000
