data_image0
_chemical_formula_structural       Cu2H36C32O20
_chemical_formula_sum              "Cu2 H36 C32 O20"
_cell_length_a       3.754969144003918
_cell_length_b       14.620263497443137
_cell_length_c       14.53242937909534
_cell_angle_alpha    95.67232794850104
_cell_angle_beta     90.00015333801659
_cell_angle_gamma    90.0000342030088

_space_group_name_H-M_alt    "P 1"
_space_group_IT_number       1

loop_
  _space_group_symop_operation_xyz
  'x, y, z'

loop_
  _atom_site_type_symbol
  _atom_site_label
  _atom_site_symmetry_multiplicity
  _atom_site_fract_x
  _atom_site_fract_y
  _atom_site_fract_z
  _atom_site_occupancy
  Cu  Cu1       1.0  6.485277829399997e-06  0.9999985039421516  1.3059864442791815e-06  1.0000
  Cu  Cu2       1.0  0.49999979294535984  0.9999989617480692  0.5000010979757548  1.0000
  H   H1        1.0  0.4925790204741957  0.12308114660297778  0.978936362514233  1.0000
  H   H2        1.0  0.9925737106489906  0.8769180465671836  0.521063553208954  1.0000
  H   H3        1.0  0.5074300589581213  0.8769162157761129  0.021063620334011494  1.0000
  H   H4        1.0  0.007424716237025599  0.12307999832545137  0.4789371904231956  1.0000
  H   H5        1.0  0.32905647783874764  0.08267690098332278  0.8769450852716503  1.0000
  H   H6        1.0  0.8290549507030248  0.9173215679267912  0.6230546372732277  1.0000
  H   H7        1.0  0.6709419490495988  0.9173225185712681  0.12305580469536889  1.0000
  H   H8        1.0  0.1709381499029163  0.08267579445048771  0.3769453455691547  1.0000
  H   H9        1.0  0.81752440854806  0.9148218505138459  0.7914884896526503  1.0000
  H   H10       1.0  0.3175162578556652  0.0851772886734352  0.7085133604547948  1.0000
  H   H11       1.0  0.18247401835180452  0.08517824192303179  0.20851453634297462  1.0000
  H   H12       1.0  0.6824821690326816  0.9148221308811557  0.2914875295122172  1.0000
  H   H13       1.0  0.6271248752918623  0.7572691518064472  0.5962679603604712  1.0000
  H   H14       1.0  0.1271084009006884  0.2427327177856426  0.9037306045738873  1.0000
  H   H15       1.0  0.37286289906520403  0.24273368513691196  0.403736045921363  1.0000
  H   H16       1.0  0.8728767102909886  0.7572680908780924  0.09626836886192788  1.0000
  H   H17       1.0  0.1606314149839747  0.539599667936578  0.7232451215586053  1.0000
  H   H18       1.0  0.6606303747098962  0.46039877738562035  0.7767524145149451  1.0000
  H   H19       1.0  0.8393643487413129  0.4603990980003517  0.27675088189725733  1.0000
  H   H20       1.0  0.3393680521727092  0.5396013391324104  0.22324717337871647  1.0000
  H   H21       1.0  0.29340562918807933  0.6498385079381563  0.8607985150481172  1.0000
  H   H22       1.0  0.7933922972238392  0.35015859270606603  0.6391989721315525  1.0000
  H   H23       1.0  0.7065927976875412  0.3501574845939999  0.1392006338409573  1.0000
  H   H24       1.0  0.20660346651987282  0.6498408364806846  0.3608005425937009  1.0000
  H   H25       1.0  0.3981450531123302  0.6308122998314614  0.5106686746394615  1.0000
  H   H26       1.0  0.8981459396626973  0.3691903086675836  0.9893315376162946  1.0000
  H   H27       1.0  0.6018533737599583  0.3691898979444375  0.4893283822749268  1.0000
  H   H28       1.0  0.10186047664578268  0.6308111680646177  0.010670259476341898  1.0000
  H   H29       1.0  0.6804558683537323  0.5498342871836429  0.4446197069464333  1.0000
  H   H30       1.0  0.1804576759368928  0.45016818087061233  0.05537776358481489  1.0000
  H   H31       1.0  0.3195532110729289  0.4501679057772279  0.5553780375922557  1.0000
  H   H32       1.0  0.8195514034966678  0.5498340024577928  0.9446213561946522  1.0000
  H   H33       1.0  0.8258448271591234  0.6665975017678676  0.4735336089280437  1.0000
  H   H34       1.0  0.3258407469788692  0.3334049943037414  0.026464655925131805  1.0000
  H   H35       1.0  0.17416158912867982  0.3334060706708897  0.5264635943241345  1.0000
  H   H36       1.0  0.6741683324546983  0.6665971890246636  0.9735344638543424  1.0000
  C   C1        1.0  0.11805434214628717  0.8281216028628792  0.890023261833264  1.0000
  C   C2        1.0  0.6180323135651306  0.171876121429321  0.6099776079189992  1.0000
  C   C3        1.0  0.8819547372941016  0.17187643721472765  0.1099781694231865  1.0000
  C   C4        1.0  0.3819634501831572  0.8281219234630087  0.39002313571217684  1.0000
  C   C5        1.0  0.03462840243585671  0.7646236160332051  0.8077845207141793  1.0000
  C   C6        1.0  0.5346046851022309  0.2353775549703983  0.6922125279243971  1.0000
  C   C7        1.0  0.9653780138691344  0.235375798706059  0.19221705687616011  1.0000
  C   C8        1.0  0.4653910786369053  0.7646232585107738  0.30778575789493356  1.0000
  C   C9        1.0  0.8501367479904474  0.7936651534861027  0.730889800428983  1.0000
  C   C10       1.0  0.35011883511753433  0.20633469966106327  0.769109396295555  1.0000
  C   C11       1.0  0.149864342037958  0.2063356407307495  0.2691112358738721  1.0000
  C   C12       1.0  0.6498742654896146  0.7936654168563705  0.23089019159615282  1.0000
  C   C13       1.0  0.7771316913745494  0.7328382895485318  0.6530380575819877  1.0000
  C   C14       1.0  0.2771173657125415  0.2671650030316002  0.8469587009196715  1.0000
  C   C15       1.0  0.22285874611562653  0.2671638648803807  0.3469651879129999  1.0000
  C   C16       1.0  0.7228730717522965  0.7328364977799566  0.1530396580651399  1.0000
  C   C17       1.0  0.8874920046657307  0.6414939966230688  0.6513785891163197  1.0000
  C   C18       1.0  0.3874805705717677  0.35850449511531207  0.8486198010710666  1.0000
  C   C19       1.0  0.1124984328060137  0.3585074945560223  0.34862114510927  1.0000
  C   C20       1.0  0.6125151931650804  0.6414970105130705  0.1513778702953061  1.0000
  C   C21       1.0  0.0701540755814634  0.6106377601441578  0.7271188093499887  1.0000
  C   C22       1.0  0.5701501685323433  0.38936274118618996  0.7728768169606042  1.0000
  C   C23       1.0  0.9298496775754757  0.3893637358526618  0.2728802372600967  1.0000
  C   C24       1.0  0.42984825833990925  0.6106373897805355  0.22712070807187965  1.0000
  C   C25       1.0  0.14277829460638  0.6720357757214543  0.8030701727254907  1.0000
  C   C26       1.0  0.6427548393078836  0.3279612909043621  0.6969272039022343  1.0000
  C   C27       1.0  0.8572227954023859  0.32796160110542866  0.1969277472586413  1.0000
  C   C28       1.0  0.35723559816153017  0.6720388256127732  0.3030723839884928  1.0000
  C   C29       1.0  0.6737690607015524  0.6088966852517288  0.4968598263735657  1.0000
  C   C30       1.0  0.17376487964244086  0.3911050843282737  0.0031389413212678983  1.0000
  C   C31       1.0  0.3262373556000639  0.39110686792210464  0.503140127360183  1.0000
  C   C32       1.0  0.8262388735179512  0.6088964068523169  0.9968607929092104  1.0000
  O   O1        1.0  0.9947540491313801  0.9123687021305215  0.8890510346267393  1.0000
  O   O2        1.0  0.49474758590962137  0.0876297945672704  0.6109501847656702  1.0000
  O   O3        1.0  0.005255030315915098  0.08762932831461968  0.1109517718704964  1.0000
  O   O4        1.0  0.5052561672599297  0.9123689280244845  0.3890520072766535  1.0000
  O   O5        1.0  0.2955767443745927  0.8024648059851955  0.956446054316423  1.0000
  O   O6        1.0  0.7955700859620761  0.1975336553633653  0.5435536436551658  1.0000
  O   O7        1.0  0.7044270087926633  0.19753460875376316  0.0435555232729428  1.0000
  O   O8        1.0  0.20442567778275844  0.8024643943452004  0.45644641235562483  1.0000
  O   O9        1.0  0.3817789202361154  0.0677189510582394  0.9409903819559416  1.0000
  O   O10       1.0  0.8817741204281901  0.9322795249419683  0.5590100669021112  1.0000
  O   O11       1.0  0.6182328223339367  0.9322784113211499  0.05900960089326898  1.0000
  O   O12       1.0  0.1182269695990072  0.0677185151347288  0.4409913643514117  1.0000
  O   O13       1.0  0.7399122362866066  0.8826885819371882  0.7294182436102615  1.0000
  O   O14       1.0  0.23989945814282268  0.1173119240162706  0.7705823206285276  1.0000
  O   O15       1.0  0.2600808643447081  0.1173115008666272  0.2705861576241944  1.0000
  O   O16       1.0  0.7600936424677796  0.8826881876849341  0.22941795488357292  1.0000
  O   O17       1.0  0.8321275933156114  0.5776326921967438  0.5783909789265778  1.0000
  O   O18       1.0  0.3321223676854927  0.422367853848165  0.9216069025120106  1.0000
  O   O19       1.0  0.16787083356470586  0.4223681164685046  0.421607994514126  1.0000
  O   O20       1.0  0.6678733960536434  0.5776329596330143  0.07839138330732  1.0000
