data_image0
_chemical_formula_structural       Zn2H10C20N2O8
_chemical_formula_sum              "Zn2 H10 C20 N2 O8"
_cell_length_a       10.604783651693744
_cell_length_b       11.877621409173289
_cell_length_c       13.783394585080451
_cell_angle_alpha    89.9978186992441
_cell_angle_beta     98.07479165062195
_cell_angle_gamma    90.00023624591314

_space_group_name_H-M_alt    "P 1"
_space_group_IT_number       1

loop_
  _space_group_symop_operation_xyz
  'x, y, z'

loop_
  _atom_site_type_symbol
  _atom_site_label
  _atom_site_symmetry_multiplicity
  _atom_site_fract_x
  _atom_site_fract_y
  _atom_site_fract_z
  _atom_site_occupancy
  Zn  Zn1       1.0  0.3720982720692732  0.4988420637100006  0.5019688330918514  1.0000
  Zn  Zn2       1.0  0.6279068290139947  0.4988476824969083  0.4980389080716778  1.0000
  H   H1        1.0  0.33593260938957314  0.344403462153366  0.8940743987862876  1.0000
  H   H2        1.0  0.6660547040939947  0.555024641347572  0.12367641210255442  1.0000
  H   H3        1.0  0.24928798791135884  0.3552483616563649  0.9953428965864293  1.0000
  H   H4        1.0  0.1772139045582435  0.39680966870760415  0.8763725338201311  1.0000
  H   H5        1.0  0.2469449627403577  0.5674705445621981  0.9769877900449375  1.0000
  H   H6        1.0  0.33395408616510747  0.5549973602575804  0.8763262285278446  1.0000
  H   H7        1.0  0.6641147225487388  0.34443151605936617  0.10595219327704095  1.0000
  H   H8        1.0  0.7507612044822025  0.35528708940452003  0.004680626492806488  1.0000
  H   H9        1.0  0.8228285993859432  0.3968569047738483  0.12365328684818883  1.0000
  H   H10       1.0  0.7530667073076246  0.5675126836049246  0.023019087669069918  1.0000
  C   C1        1.0  0.4999788693706364  0.2802169247279664  0.5000010551074325  1.0000
  C   C2        1.0  0.5648180111319405  0.5134539759556772  0.883005877824836  1.0000
  C   C3        1.0  0.4999787398131872  0.15875068624296768  0.49997982647763467  1.0000
  C   C4        1.0  0.49996388661816843  0.8390535623356001  0.4999620144937398  1.0000
  C   C5        1.0  0.49997103958811817  0.055712379656711206  0.4999640478098755  1.0000
  C   C6        1.0  0.4999619102284286  0.9420708212913095  0.4999608398108181  1.0000
  C   C7        1.0  0.9349960469485981  0.4985519442960893  0.49621090819967867  1.0000
  C   C8        1.0  0.0650156588125625  0.4985467746263481  0.5037909900395761  1.0000
  C   C9        1.0  0.3177727349354029  0.5161513221027576  0.9458917954786303  1.0000
  C   C10       1.0  0.267006862182278  0.3959524926323965  0.926968804773232  1.0000
  C   C11       1.0  0.682247654312583  0.5161834076320486  0.05412492293837093  1.0000
  C   C12       1.0  0.4999640833891875  0.717590690778124  0.49997491917157083  1.0000
  C   C13       1.0  0.733027989252065  0.3959957234165187  0.07305263203282664  1.0000
  C   C14       1.0  0.45124962447324896  0.502621586413923  0.31067646930421944  1.0000
  C   C15       1.0  0.5487440282950403  0.5026378572418152  0.6893285223887134  1.0000
  C   C16       1.0  0.5656568088195897  0.5081173111407152  0.794591813896915  1.0000
  C   C17       1.0  0.4343501967966788  0.5081013974022497  0.20541726824361461  1.0000
  C   C18       1.0  0.5590220642304332  0.5180073620173572  0.984350017862383  1.0000
  C   C19       1.0  0.4410020067919477  0.5179989785490022  0.015653957964168807  1.0000
  C   C20       1.0  0.4351985032824643  0.5134377449564481  0.11700327774183712  1.0000
  N   N1        1.0  0.8245899157377681  0.49877414644957685  0.4897111313667609  1.0000
  N   N2        1.0  0.17541709718416607  0.4987590027304591  0.5102975339073411  1.0000
  O   O1        1.0  0.39790066028236026  0.3280230584253445  0.5174718268441724  1.0000
  O   O2        1.0  0.6086967490701838  0.669909304245877  0.5148463055679997  1.0000
  O   O3        1.0  0.602081906494796  0.3280317876588299  0.48254576360519524  1.0000
  O   O4        1.0  0.3912535897622789  0.6699095491573247  0.4851276921290052  1.0000
  O   O5        1.0  0.3540769502908532  0.4824421859093561  0.3532046576016939  1.0000
  O   O6        1.0  0.6459367056291897  0.482458167059903  0.6468001477447276  1.0000
  O   O7        1.0  0.5653372364161485  0.5188042550337286  0.35253845283740054  1.0000
  O   O8        1.0  0.4346687866204349  0.5187966807896771  0.6474687251577153  1.0000
