data_image0
_chemical_formula_structural       La2H14C14N4O16
_chemical_formula_sum              "La2 H14 C14 N4 O16"
_cell_length_a       7.996052773938862
_cell_length_b       8.74040489904337
_cell_length_c       8.744612037209695
_cell_angle_alpha    115.37737885749964
_cell_angle_beta     100.17410805933535
_cell_angle_gamma    96.6448499147511

_space_group_name_H-M_alt    "P 1"
_space_group_IT_number       1

loop_
  _space_group_symop_operation_xyz
  'x, y, z'

loop_
  _atom_site_type_symbol
  _atom_site_label
  _atom_site_symmetry_multiplicity
  _atom_site_fract_x
  _atom_site_fract_y
  _atom_site_fract_z
  _atom_site_occupancy
  La  La1       1.0  0.33946790241137137  0.08165362371681079  0.32225780620613886  1.0000
  La  La2       1.0  0.660533474920399  0.9183466550762843  0.6777435544421948  1.0000
  H   H1        1.0  0.32693461484104347  0.4268090215657736  0.039940972777031826  1.0000
  H   H2        1.0  0.6730634036586026  0.5731873620555419  0.9600570046652805  1.0000
  H   H3        1.0  0.9761030310655555  0.5885311195821573  0.7602606634177321  1.0000
  H   H4        1.0  0.02389907791623357  0.4114665708300221  0.2397385724692142  1.0000
  H   H5        1.0  0.010222362167148393  0.353778952174423  0.47633512255949023  1.0000
  H   H6        1.0  0.9897774810616083  0.646220028200659  0.52366427700246  1.0000
  H   H7        1.0  0.17802405050120026  0.6856481468095198  0.12260480388356135  1.0000
  H   H8        1.0  0.8219757927275565  0.31435083356556254  0.8773945956783892  1.0000
  H   H9        1.0  0.5237664400562423  0.2126669214948933  0.10594842917365095  1.0000
  H   H10       1.0  0.4762326854075596  0.7873346489027853  0.8940519546000872  1.0000
  H   H11       1.0  0.27703641927870126  0.7252899176061331  0.31493251814622875  1.0000
  H   H12       1.0  0.722962692300044  0.2747116511498717  0.685069006177109  1.0000
  H   H13       1.0  0.6617352164480579  0.1276653930397202  0.1619333014929296  1.0000
  H   H14       1.0  0.33826388124563067  0.8723361740746114  0.8380693633800148  1.0000
  C   C1        1.0  0.2735800196841822  0.28370082291528576  0.7576300187578086  1.0000
  C   C2        1.0  0.7264236650557976  0.7162981708399272  0.24236775656672177  1.0000
  C   C3        1.0  0.2564176112344398  0.4127486651129573  0.914225198423388  1.0000
  C   C4        1.0  0.7435845116324061  0.5872490269409028  0.08577289691395862  1.0000
  C   C5        1.0  0.06477856988667699  0.5025086183862015  0.7602446671368668  1.0000
  C   C6        1.0  0.9352188812458235  0.4974851702052518  0.23975324768932174  1.0000
  C   C7        1.0  0.08261985325672327  0.3731234809740585  0.6033012637835355  1.0000
  C   C8        1.0  0.9173768662257586  0.6268728959983176  0.39669877580404733  1.0000
  C   C9        1.0  0.571628575319771  0.4935530106453783  0.5696287808897296  1.0000
  C   C10       1.0  0.42837052237391054  0.5064485564689464  0.4303738839832079  1.0000
  C   C11       1.0  0.9437961900168547  0.0275932279797431  0.06739842210507167  1.0000
  C   C12       1.0  0.05620436080734237  0.9724148308134061  0.9326015479341478  1.0000
  C   C13       1.0  0.3911236778232166  0.1613287407285142  0.7529937767582241  1.0000
  C   C14       1.0  0.6088800069167633  0.8386702530266985  0.24700399856630623  1.0000
  N   N1        1.0  0.15432200483816422  0.5241638264692626  0.9151815087190087  1.0000
  N   N2        1.0  0.8456754601794002  0.4758299637638714  0.08481526555758025  1.0000
  N   N3        1.0  0.18982429942811763  0.2668055118425627  0.6019817177027706  1.0000
  N   N4        1.0  0.8101765244215712  0.733192173562351  0.39801843977984674  1.0000
  O   O1        1.0  0.389243856515428  0.0414449237086032  0.6015654501604858  1.0000
  O   O2        1.0  0.6107529046222383  0.9585514581887864  0.39843116777829835  1.0000
  O   O3        1.0  0.4898414960156999  0.1807639327876558  0.8917150374686075  1.0000
  O   O4        1.0  0.5101641777362644  0.8192324743105599  0.10828197259806414  1.0000
  O   O5        1.0  0.557474504573115  0.3490677605413026  0.5737292253084193  1.0000
  O   O6        1.0  0.44252177388545977  0.6509325031477431  0.4262724000738061  1.0000
  O   O7        1.0  0.30985166454334495  0.3730684942656736  0.3315317583826242  1.0000
  O   O8        1.0  0.6901454163682318  0.6269356562223011  0.6684739528473785  1.0000
  O   O9        1.0  0.015411129799410592  0.06823936105184457  0.2239673448214603  1.0000
  O   O10       1.0  0.9845905659285848  0.9317622193603653  0.7760311957609292  1.0000
  O   O11       1.0  0.21324314256700916  0.9723385161046494  0.9924027947661359  1.0000
  O   O12       1.0  0.7867573943721239  0.0276695410468264  0.007598315822690379  1.0000
  O   O13       1.0  0.20604705171872684  0.774378345811556  0.24986837626243388  1.0000
  O   O14       1.0  0.7939530821361346  0.22562193289930113  0.7501304843327787  1.0000
  O   O15       1.0  0.5768270174907713  0.19810185660087853  0.20872748166912913  1.0000
  O   O16       1.0  0.42317109958198523  0.8019010054836213  0.7912744252831415  1.0000
