data_image0
_chemical_formula_structural       Gd2H8C8O14
_chemical_formula_sum              "Gd2 H8 C8 O14"
_cell_length_a       6.73536985003694
_cell_length_b       7.473153726348856
_cell_length_c       7.83601157064981
_cell_angle_alpha    98.65427200912794
_cell_angle_beta     113.32822575542286
_cell_angle_gamma    110.23597719273768

_space_group_name_H-M_alt    "P 1"
_space_group_IT_number       1

loop_
  _space_group_symop_operation_xyz
  'x, y, z'

loop_
  _atom_site_type_symbol
  _atom_site_label
  _atom_site_symmetry_multiplicity
  _atom_site_fract_x
  _atom_site_fract_y
  _atom_site_fract_z
  _atom_site_occupancy
  Gd  Gd1       1.0  0.17649636394264692  0.30742227447579046  0.5334507089665552  1.0000
  Gd  Gd2       1.0  0.8235010791905067  0.6925782494009951  0.46654820717695616  1.0000
  H   H1        1.0  0.04275037396432434  0.7090715930392691  0.08322616153048311  1.0000
  H   H2        1.0  0.9572486645399749  0.2909349952148688  0.9167792568177835  1.0000
  H   H3        1.0  0.3574599126404722  0.835272235639394  0.1757146315145733  1.0000
  H   H4        1.0  0.6425359318094621  0.16473435875607118  0.8242858530500856  1.0000
  H   H5        1.0  0.7263308532883384  0.21631730827080284  0.18872965507953418  1.0000
  H   H6        1.0  0.273669768863243  0.7836771447568579  0.8112720684304409  1.0000
  H   H7        1.0  0.7562388648517313  0.008633196679085096  0.16484391940591092  1.0000
  H   H8        1.0  0.2437674360677419  0.9913657813444343  0.8351591248578746  1.0000
  C   C1        1.0  0.2188471377706163  0.9729863516897123  0.3293279052357576  1.0000
  C   C2        1.0  0.7811494939159684  0.027015692639565703  0.6706722179619364  1.0000
  C   C3        1.0  0.21808940694223367  0.7872410232726849  0.22002428172049804  1.0000
  C   C4        1.0  0.7819201717893448  0.2127670356237488  0.779979886668045  1.0000
  C   C5        1.0  0.5148690454387789  0.6049618279556696  0.9922257000605871  1.0000
  C   C6        1.0  0.4851428040249601  0.39502956208939816  0.00778586549747468  1.0000
  C   C7        1.0  0.24534382513230202  0.6394596959071918  0.3292433269543765  1.0000
  C   C8        1.0  0.7546600879133363  0.3605468694338825  0.670759947590341  1.0000
  O   O1        1.0  0.14737898497629215  0.9625138370247511  0.46016274759222153  1.0000
  O   O2        1.0  0.8526184862747427  0.037495783000331094  0.5398387218784253  1.0000
  O   O3        1.0  0.28708918974218983  0.13473972369436635  0.29411692606578305  1.0000
  O   O4        1.0  0.7129099286119001  0.8652698850394103  0.7058812836092802  1.0000
  O   O5        1.0  0.6696371983087914  0.7557817561552366  0.14760750243848975  1.0000
  O   O6        1.0  0.33035536773316204  0.24419755593665832  0.8523803883611553  1.0000
  O   O7        1.0  0.11446523864459827  0.5825112867244683  0.4111122459242012  1.0000
  O   O8        1.0  0.8855354692187092  0.4174952865847387  0.5888873674340973  1.0000
  O   O9        1.0  0.38097177649186864  0.6087179958781588  0.8272981207609437  1.0000
  O   O10       1.0  0.6190208176679588  0.39127041236203286  0.17269232336582965  1.0000
  O   O11       1.0  0.39189862456218794  0.5680796548943475  0.33296620410809663  1.0000
  O   O12       1.0  0.6081029097836106  0.43193146267016397  0.6670343286131699  1.0000
  O   O13       1.0  0.8432086021569558  0.15847039126528978  0.20881965063591681  1.0000
  O   O14       1.0  0.1567920311226062  0.8415240599355587  0.7911808002768627  1.0000
