data_image0
_chemical_formula_structural       Zr6H37C50N7O32
_chemical_formula_sum              "Zr6 H37 C50 N7 O32"
_cell_length_a       14.768521589179201
_cell_length_b       14.796346364324998
_cell_length_c       14.810609915410486
_cell_angle_alpha    60.28427360540546
_cell_angle_beta     60.014550678799345
_cell_angle_gamma    60.038187924897976

_space_group_name_H-M_alt    "P 1"
_space_group_IT_number       1

loop_
  _space_group_symop_operation_xyz
  'x, y, z'

loop_
  _atom_site_type_symbol
  _atom_site_label
  _atom_site_symmetry_multiplicity
  _atom_site_fract_x
  _atom_site_fract_y
  _atom_site_fract_z
  _atom_site_occupancy
  Zr  Zr1       1.0  0.8765794723478068  0.8825897230803292  0.6185512824340336  1.0000
  Zr  Zr2       1.0  0.11746060692993865  0.11725203589254113  0.3831756775469088  1.0000
  Zr  Zr3       1.0  0.11541094834078088  0.8819547738976966  0.6185476001930537  1.0000
  Zr  Zr4       1.0  0.8784187143078981  0.12182203948201943  0.37884931420958873  1.0000
  Zr  Zr5       1.0  0.1156445275448661  0.8821940629553991  0.3795320058006623  1.0000
  Zr  Zr6       1.0  0.8775926136467832  0.12171607376556187  0.6179327551282867  1.0000
  H   H1        1.0  0.08969926504858028  0.7198530229441289  0.5932487078346894  1.0000
  H   H2        1.0  0.0931288233815337  0.09369087399607422  0.2184209553088436  1.0000
  H   H3        1.0  0.09175930757992037  0.09342178790966932  0.5949683163822712  1.0000
  H   H4        1.0  0.7142953810395841  0.09741748691772759  0.5921889479819668  1.0000
  H   H5        1.0  0.8476365634801509  0.5864222393979405  0.6436455937910279  1.0000
  H   H6        1.0  0.13789162449239012  0.5937490273190916  0.35365007220071476  1.0000
  H   H7        1.0  0.8555793564909706  0.41495452549619205  0.63908000891022  1.0000
  H   H8        1.0  0.5825171069292878  0.8536798123213954  0.9184999964791984  1.0000
  H   H9        1.0  0.5974083219897396  0.13531531438793093  0.9201916954042701  1.0000
  H   H10       1.0  0.412648922858992  0.8594950469119946  0.08837396465527554  1.0000
  H   H11       1.0  0.14076559315590506  0.852927053918222  0.08362448098572621  1.0000
  H   H12       1.0  0.8459262284557668  0.1382085998491931  0.09679792511650478  1.0000
  H   H13       1.0  0.13404644761504175  0.8578883489515688  0.9149526384611021  1.0000
  H   H14       1.0  0.583210589585839  0.4244907091919571  0.6405697523362903  1.0000
  H   H15       1.0  0.5960644993226297  0.4186280898442546  0.3473454954516413  1.0000
  H   H16       1.0  0.41092150031783375  0.5915628278033723  0.6367060621922391  1.0000
  H   H17       1.0  0.7441062314165947  0.6311363940689392  0.9587775683898484  1.0000
  H   H18       1.0  0.8311690070421562  0.5407565340343367  0.8784216383317086  1.0000
  H   H19       1.0  0.8261544965699487  0.3763432386663154  0.05250442625832354  1.0000
  H   H20       1.0  0.7421717581241793  0.4664387320789201  0.13318469660663365  1.0000
  H   H21       1.0  0.5808213985201505  0.14581046919882107  0.35054535420188415  1.0000
  H   H22       1.0  0.5970809370763631  0.8519503698353573  0.6335556149563714  1.0000
  H   H23       1.0  0.409081844547174  0.13957346072884041  0.3602048770190648  1.0000
  H   H24       1.0  0.16057134591607536  0.3580884213530311  0.3185251061915437  1.0000
  H   H25       1.0  0.20724695762053372  0.46801004553304887  0.2634002030828881  1.0000
  H   H26       1.0  0.36957219673393393  0.1488608357279161  0.17491111956209687  1.0000
  H   H27       1.0  0.48133828221210007  0.1928707099604523  0.0752949161216065  1.0000
  H   H28       1.0  0.8226446365435648  0.17081108370877035  0.8497738197430634  1.0000
  H   H29       1.0  0.7766807206132783  0.2287220630352209  0.9496144051387175  1.0000
  H   H30       1.0  0.35650083511986  0.6646290370996298  0.3147893998775117  1.0000
  H   H31       1.0  0.46894007414216804  0.5633039553484451  0.2578961615546334  1.0000
  H   H32       1.0  0.3589226625256219  0.815626911633984  0.6601262527002659  1.0000
  H   H33       1.0  0.47128183659884837  0.760573903426824  0.7051649031370817  1.0000
  H   H34       1.0  0.18334886099275144  0.33010670281625204  0.13552251942498827  1.0000
  H   H35       1.0  0.24895116476388088  0.41171589126147967  0.013849900263906501  1.0000
  H   H36       1.0  0.1504757556571478  0.672917065298442  0.8592983298565712  1.0000
  H   H37       1.0  0.1868758770036154  0.583045884116956  0.9760823952994214  1.0000
  C   C1        1.0  0.9917182789560715  0.7014283886859616  0.49696705734614016  1.0000
  C   C2        1.0  0.3083292989712237  0.9969122081123413  0.19967781278633367  1.0000
  C   C3        1.0  0.9972179346626079  0.30766456472650816  0.4972477882857119  1.0000
  C   C4        1.0  0.6969781379895109  0.9978509630823568  0.8063074855709685  1.0000
  C   C5        1.0  0.9933410042416003  0.7021504177764297  0.8070397340330473  1.0000
  C   C6        1.0  0.697958732302581  0.0001934089955711716  0.49238199115599457  1.0000
  C   C7        1.0  0.9989985739557455  0.3060620999641229  0.1981279004909737  1.0000
  C   C8        1.0  0.3064666903981745  0.9946716674245126  0.4988345410092023  1.0000
  C   C9        1.0  0.3052637339824857  0.6992035916569392  0.4941302132219079  1.0000
  C   C10       1.0  0.9914862003859424  0.9984396380988586  0.8089543815477426  1.0000
  C   C11       1.0  0.6989561881531189  0.3107747858253019  0.49479504118011153  1.0000
  C   C12       1.0  0.994972095355145  0.9972629668946594  0.19842378899537044  1.0000
  C   C13       1.0  0.9998249561283789  0.40748247931916365  0.4947865748060211  1.0000
  C   C14       1.0  0.9929541789062811  0.5995917750724543  0.4975321856264046  1.0000
  C   C15       1.0  0.08206660121584998  0.4577576936245721  0.41166586133666516  1.0000
  C   C16       1.0  0.9121153692523621  0.5498286623409427  0.5799478978649829  1.0000
  C   C17       1.0  0.0758976592339594  0.5539900503818913  0.4158205116125869  1.0000
  C   C18       1.0  0.9169012047979664  0.45542279213909603  0.5771961719386168  1.0000
  C   C19       1.0  0.40939301543852485  0.9990483884507597  0.10062167608943187  1.0000
  C   C20       1.0  0.5986022797048705  0.9955708432481172  0.9097942432749305  1.0000
  C   C21       1.0  0.462202877242639  0.07841315090702486  0.05428816267446734  1.0000
  C   C22       1.0  0.5480267696786149  0.9157640995384353  0.9567083659879996  1.0000
  C   C23       1.0  0.5563842851490934  0.07466505190264876  0.9581684182027173  1.0000
  C   C24       1.0  0.45474122192209177  0.9191065006046557  0.05029591408333533  1.0000
  C   C25       1.0  0.9868615373096223  0.9993123268074625  0.9107104480168359  1.0000
  C   C26       1.0  0.9928185028983024  0.9960886711394037  0.09922592559212985  1.0000
  C   C27       1.0  0.9030929188755579  0.08100802458651667  0.9618390450444565  1.0000
  C   C28       1.0  0.0751468271096699  0.9152040232530679  0.049246083665607815  1.0000
  C   C29       1.0  0.9088694980284444  0.07683024945529135  0.056151985810323844  1.0000
  C   C30       1.0  0.07084839209435538  0.9181752216804566  0.9566133924620955  1.0000
  C   C31       1.0  0.4065879263797215  0.600666020388502  0.4902007342236485  1.0000
  C   C32       1.0  0.5988744527145756  0.4127071998445827  0.4932275605598661  1.0000
  C   C33       1.0  0.45889904669830645  0.5522241027865107  0.4057475684913356  1.0000
  C   C34       1.0  0.5478072836479484  0.4607463877765882  0.5761188556525453  1.0000
  C   C35       1.0  0.5552065317180993  0.45796359332705083  0.410060566387642  1.0000
  C   C36       1.0  0.45319059156710767  0.5529159292985355  0.5733805021209547  1.0000
  C   C37       1.0  0.9973553746577511  0.6029519959437906  0.9056812530007503  1.0000
  C   C38       1.0  0.0007094816168163917  0.40569521010807813  0.09964374364000858  1.0000
  C   C39       1.0  0.9181797228222734  0.5505322797043491  0.9575080890705081  1.0000
  C   C40       1.0  0.08569932151571907  0.45258516837582613  0.04610480661980883  1.0000
  C   C41       1.0  0.917966894459397  0.45866924599532416  0.05137596614968488  1.0000
  C   C42       1.0  0.08040713719279313  0.5537772937450073  0.9543119188693294  1.0000
  C   C43       1.0  0.816362298168734  0.5559237827397824  0.9510262386284368  1.0000
  C   C44       1.0  0.8147089796279019  0.4520187729569827  0.059953177428177226  1.0000
  C   C45       1.0  0.40696980432280616  0.9922893035369639  0.5000402688206335  1.0000
  C   C46       1.0  0.5980349287361479  0.9980239201535853  0.49230346803962993  1.0000
  C   C47       1.0  0.4596552371415117  0.9085039474549176  0.5798381424045472  1.0000
  C   C48       1.0  0.5463559721564906  0.08058908955302962  0.41341512117087825  1.0000
  C   C49       1.0  0.5554357266713199  0.9141694713487637  0.5732955644722111  1.0000
  C   C50       1.0  0.45221561874968336  0.07652837056670594  0.41882982381720507  1.0000
  N   N1        1.0  0.16739193946485648  0.41641730753604367  0.32984855356072257  1.0000
  N   N2        1.0  0.4246417492240227  0.1600254953382176  0.09669973644403031  1.0000
  N   N3        1.0  0.8167797645075011  0.1617138561984818  0.9250069113327439  1.0000
  N   N4        1.0  0.4190484987380856  0.5909938349928724  0.3230031695295351  1.0000
  N   N5        1.0  0.42078576406586893  0.8251343061895965  0.6630208798937216  1.0000
  N   N6        1.0  0.17723110415354879  0.4072461375165091  0.07878940587595905  1.0000
  N   N7        1.0  0.16337734892983524  0.5955708283523222  0.9157043192188393  1.0000
  O   O1        1.0  0.915457090044157  0.7403539854561173  0.5744941095243374  1.0000
  O   O2        1.0  0.2661030855991058  0.07278009618740094  0.24270011206018435  1.0000
  O   O3        1.0  0.0733451505114219  0.2650226918150551  0.4209310476864161  1.0000
  O   O4        1.0  0.7344586140204608  0.9228141766078722  0.7650156161392445  1.0000
  O   O5        1.0  0.06960772324644154  0.7451096940216717  0.7638708642844064  1.0000
  O   O6        1.0  0.7358833003683501  0.07819279536127513  0.4171531891087099  1.0000
  O   O7        1.0  0.92147600860023  0.26758607901449233  0.2366707472776568  1.0000
  O   O8        1.0  0.26388229310949657  0.9187858796145035  0.5748056109234411  1.0000
  O   O9        1.0  0.262408219992075  0.740933416078505  0.4184356918299982  1.0000
  O   O10       1.0  0.9164721284017079  0.07591983444931585  0.7655131098749308  1.0000
  O   O11       1.0  0.7366756472828939  0.2701919557562248  0.5730993199599794  1.0000
  O   O12       1.0  0.07299164649709423  0.921254624369645  0.23652824385740698  1.0000
  O   O13       1.0  0.06994923825455186  0.9228679287921793  0.767901359407574  1.0000
  O   O14       1.0  0.7387732059235077  0.26990454918986023  0.41883791884352206  1.0000
  O   O15       1.0  0.9195542712145511  0.07498819563862472  0.237472646619139  1.0000
  O   O16       1.0  0.2641229623871625  0.7378008753066893  0.5722509323867015  1.0000
  O   O17       1.0  0.9168486358935798  0.7398302606623586  0.7677211431491314  1.0000
  O   O18       1.0  0.2655026100358029  0.07231915157760235  0.42341470721738256  1.0000
  O   O19       1.0  0.07598803706815002  0.26244723836519773  0.24004634980597922  1.0000
  O   O20       1.0  0.7372738546682529  0.9246152252810022  0.5692691435111285  1.0000
  O   O21       1.0  0.7355287447894555  0.07570127834461002  0.7653356597223463  1.0000
  O   O22       1.0  0.06795880599106847  0.7417503537212866  0.419893432333076  1.0000
  O   O23       1.0  0.26697370422805733  0.922170319548293  0.2366859199801039  1.0000
  O   O24       1.0  0.9208190241524294  0.2675797478602463  0.5747793487194243  1.0000
  O   O25       1.0  0.7947524696584267  0.07029797347330198  0.5656065097165026  1.0000
  O   O26       1.0  0.06473936388769633  0.06717547523179236  0.567890445395335  1.0000
  O   O27       1.0  0.06581696733361754  0.06698864231078973  0.2984119146761016  1.0000
  O   O28       1.0  0.06298521431299552  0.7999348297433356  0.5663951261995023  1.0000
  O   O29       1.0  0.1465771040339021  0.9498580634421003  0.4504050542588161  1.0000
  O   O30       1.0  0.9471574776503362  0.9527253212166326  0.4494989087659818  1.0000
  O   O31       1.0  0.9482105778450176  0.14987147479273233  0.45011618664025826  1.0000
  O   O32       1.0  0.9465432564949484  0.9528699110275693  0.6473537017502549  1.0000
