data_image0
_chemical_formula_structural       Cd5H16C18N16Cl6O2
_chemical_formula_sum              "Cd5 H16 C18 N16 Cl6 O2"
_cell_length_a       8.81153078199929
_cell_length_b       9.067268806845663
_cell_length_c       10.085937010334955
_cell_angle_alpha    73.90249291744894
_cell_angle_beta     83.54354192603945
_cell_angle_gamma    78.28755082017685

_space_group_name_H-M_alt    "P 1"
_space_group_IT_number       1

loop_
  _space_group_symop_operation_xyz
  'x, y, z'

loop_
  _atom_site_type_symbol
  _atom_site_label
  _atom_site_symmetry_multiplicity
  _atom_site_fract_x
  _atom_site_fract_y
  _atom_site_fract_z
  _atom_site_occupancy
  Cd  Cd1       1.0  0.18637417623845204  0.9342051566346613  0.3778253345990592  1.0000
  Cd  Cd2       1.0  0.8136267816234763  0.0657961870181225  0.6221744407588545  1.0000
  Cd  Cd3       1.0  0.4215418012292674  0.8834729069958553  0.7075749307047232  1.0000
  Cd  Cd4       1.0  0.578457078051926  0.11652726455616857  0.2924243613675159  1.0000
  Cd  Cd5       1.0  0.5000004436383492  0.4999995887150347  0.9999999524865401  1.0000
  H   H1        1.0  0.8609872015120673  0.5370644329435308  0.30405538592508924  1.0000
  H   H2        1.0  0.13900545260896285  0.4629322166969131  0.6959434480819482  1.0000
  H   H3        1.0  0.6842759313973091  0.7887673651894643  0.22100908260907196  1.0000
  H   H4        1.0  0.3157228949736606  0.2112328344090741  0.7789852505039079  1.0000
  H   H5        1.0  0.00609555778913772  0.9089116119359487  0.8690048160492694  1.0000
  H   H6        1.0  0.9939079070584641  0.09108857001123027  0.13099597264415758  1.0000
  H   H7        1.0  0.17292810283377233  0.6549526059029135  0.9466216805518498  1.0000
  H   H8        1.0  0.8270710435601175  0.3450463706994212  0.05338283550455002  1.0000
  H   H9        1.0  0.3297621654210517  0.5463365434703389  0.3459878653707166  1.0000
  H   H10       1.0  0.6702408392754793  0.45366598911111566  0.6540094178973277  1.0000
  H   H11       1.0  0.2033248636704741  0.4367566189247753  0.4707283991057238  1.0000
  H   H12       1.0  0.7966751567112952  0.5632435580306918  0.5292707712258816  1.0000
  H   H13       1.0  0.3283736410359809  0.5398579190706487  0.5248346558425254  1.0000
  H   H14       1.0  0.6716284367624327  0.4601434412041812  0.475163014191061  1.0000
  H   H15       1.0  0.06309559178818347  0.6790772645578541  0.36328154720018807  1.0000
  H   H16       1.0  0.9369054084019196  0.3209240566577165  0.6367221953251275  1.0000
  C   C1        1.0  0.13140637260489996  0.43058357413684684  0.18394469141555445  1.0000
  C   C2        1.0  0.8685913761577522  0.5694165864024328  0.8160557141891542  1.0000
  C   C3        1.0  0.03223259883993992  0.5818765886713846  0.1350313550286231  1.0000
  C   C4        1.0  0.9677615547466871  0.41812470012354913  0.8649731179404582  1.0000
  C   C5        1.0  0.8931188138988021  0.6215337936268172  0.21078738735550223  1.0000
  C   C6        1.0  0.10687979167372674  0.37846169929974127  0.7892140783488628  1.0000
  C   C7        1.0  0.7940105308452702  0.7628970015618817  0.16317148835236844  1.0000
  C   C8        1.0  0.2059883272718323  0.23710318120874524  0.8368258201361697  1.0000
  C   C9        1.0  0.8339073667476667  0.868276591651792  0.039503746917532126  1.0000
  C   C10       1.0  0.16609721803642694  0.1317236069174328  0.9604949364515675  1.0000
  C   C11       1.0  0.7371242825243628  0.019894527324360894  0.9859270239679246  1.0000
  C   C12       1.0  0.2628782448430798  0.9801044879255013  0.01407315969919413  1.0000
  C   C13       1.0  0.9730450060693911  0.828314078234058  0.9646689468935464  1.0000
  C   C14       1.0  0.026954424615205103  0.17168957138444088  0.035334387322564005  1.0000
  C   C15       1.0  0.07013924694487629  0.6861826278566381  0.010637497404317782  1.0000
  C   C16       1.0  0.9298625465628376  0.31381405940202706  0.9893613544695583  1.0000
  C   C17       1.0  0.2572635019774551  0.5411566543760316  0.4421243476764615  1.0000
  C   C18       1.0  0.7427387688593401  0.4588435502142261  0.5578716037983398  1.0000
  N   N1        1.0  0.08052829877288299  0.30976146489910417  0.27712655058957125  1.0000
  N   N2        1.0  0.9194698783947074  0.6902363618338183  0.7228743850649693  1.0000
  N   N3        1.0  0.20234006150463563  0.19509336786337164  0.2930608184060972  1.0000
  N   N4        1.0  0.7976601942436901  0.8049056309703104  0.706940600534125  1.0000
  N   N5        1.0  0.3241585748292267  0.24121591668134096  0.21474421472571947  1.0000
  N   N6        1.0  0.6758403256160578  0.75878424365208  0.7852570609302205  1.0000
  N   N7        1.0  0.28275601093254477  0.38995841901318323  0.14420761818870179  1.0000
  N   N8        1.0  0.7172405967295319  0.6100417361226604  0.8557929091566334  1.0000
  N   N9        1.0  0.7344090222857178  0.0988407620833627  0.8503798492340877  1.0000
  N   N10       1.0  0.2655930660947448  0.9011605925821654  0.1496188125913491  1.0000
  N   N11       1.0  0.6405626848390257  0.2366203315054989  0.8435522376010453  1.0000
  N   N12       1.0  0.3594382730229028  0.7633810121472917  0.15644753775686843  1.0000
  N   N13       1.0  0.5877196580917  0.2423902555545254  0.9687167797447244  1.0000
  N   N14       1.0  0.41228014808760366  0.7576110883041237  0.03128212556197238  1.0000
  N   N15       1.0  0.6450183282300942  0.10832709561138638  0.06112612916662391  1.0000
  N   N16       1.0  0.3549803474306756  0.8916742372345182  0.9388738896725426  1.0000
  Cl  Cl1       1.0  0.13159419490685312  0.0027607647683965  0.6237839923828047  1.0000
  Cl  Cl2       1.0  0.868405836056958  0.9972394065777622  0.3762161697406512  1.0000
  Cl  Cl3       1.0  0.4859731994594372  0.8539496520678896  0.42686248633778223  1.0000
  Cl  Cl4       1.0  0.5140256904038054  0.14605051387483312  0.5731377975263001  1.0000
  Cl  Cl5       1.0  0.37270767727038395  0.6025421415620754  0.7621077240770688  1.0000
  Cl  Cl6       1.0  0.6272912125928515  0.3974580243806471  0.23789255978702067  1.0000
  O   O1        1.0  0.1365519228027594  0.6795330831176327  0.42898732783176996  1.0000
  O   O2        1.0  0.8634528867658419  0.3204659429391086  0.5710126123540888  1.0000
