data_image0
_chemical_formula_structural       Sm2Cu2H26C34S2N6O18
_chemical_formula_sum              "Sm2 Cu2 H26 C34 S2 N6 O18"
_cell_length_a       6.2869929392397985
_cell_length_b       12.104098654825876
_cell_length_c       13.208073749101356
_cell_angle_alpha    97.09752827880108
_cell_angle_beta     93.49112462353123
_cell_angle_gamma    94.24064296916237

_space_group_name_H-M_alt    "P 1"
_space_group_IT_number       1

loop_
  _space_group_symop_operation_xyz
  'x, y, z'

loop_
  _atom_site_type_symbol
  _atom_site_label
  _atom_site_symmetry_multiplicity
  _atom_site_fract_x
  _atom_site_fract_y
  _atom_site_fract_z
  _atom_site_occupancy
  Sm  Sm1       1.0  0.6716869249134305  0.6216686959250808  0.42725577506336526  1.0000
  Sm  Sm2       1.0  0.3283118101226207  0.3783278588248606  0.5727511294905129  1.0000
  Cu  Cu1       1.0  0.7418041275720029  0.7706782476390683  0.0502567432654359  1.0000
  Cu  Cu2       1.0  0.25819796793965816  0.22932000224989935  0.9497353062320645  1.0000
  H   H1        1.0  0.49051454648749626  0.3907701058144255  0.3336666804601905  1.0000
  H   H2        1.0  0.509483016547776  0.6092289757542062  0.666336699743468  1.0000
  H   H3        1.0  0.7248755855531142  0.42094492449107423  0.3037378333715353  1.0000
  H   H4        1.0  0.27512052969491657  0.5790550044312895  0.6962648488054557  1.0000
  H   H5        1.0  0.7844713966344797  0.059917913059877  0.3485563675249353  1.0000
  H   H6        1.0  0.21552840515803245  0.9400761524128998  0.651441191817405  1.0000
  H   H7        1.0  0.7899313440224345  0.15307882965886677  0.5300832597292812  1.0000
  H   H8        1.0  0.21006935941957042  0.8469202477089013  0.469914905038948  1.0000
  H   H9        1.0  0.7287046720180965  0.0326795247209191  0.6698082305691174  1.0000
  H   H10       1.0  0.2712983932423327  0.96732371277146  0.3301927517177675  1.0000
  H   H11       1.0  0.44406041227932747  0.6910113354101027  0.18880395551712334  1.0000
  H   H12       1.0  0.5559446461504152  0.30899441586680604  0.8111913151162898  1.0000
  H   H13       1.0  0.1085984626047889  0.5733133663249603  0.17398681080836553  1.0000
  H   H14       1.0  0.8914066639242151  0.4266923606603612  0.8260167871885359  1.0000
  H   H15       1.0  0.16672289987710798  0.5213019010185391  0.8459181584706743  1.0000
  H   H16       1.0  0.8332702462620105  0.4786905287242078  0.15408054553735442  1.0000
  H   H17       1.0  0.49744707343982236  0.6449912118530747  0.8742546517280164  1.0000
  H   H18       1.0  0.502543014468216  0.355002081697954  0.1257410412562692  1.0000
  H   H19       1.0  0.07005671071937769  0.8886253766165025  0.1841343406841602  1.0000
  H   H20       1.0  0.9299471393201982  0.1113736943420776  0.815859365681682  1.0000
  H   H21       1.0  0.40854855822085767  0.9999555331036376  0.17157254502667033  1.0000
  H   H22       1.0  0.5914512799610421  4.7739506165101164e-05  0.8284230542330209  1.0000
  H   H23       1.0  0.3200545357149238  0.912094693039663  0.8430170838202573  1.0000
  H   H24       1.0  0.6799442931228014  0.0879119372880126  0.15697660605962235  1.0000
  H   H25       1.0  0.9786498816773131  0.8086427862038549  0.8695841216785997  1.0000
  H   H26       1.0  0.021344772646138203  0.19136721487585362  0.13040984612472076  1.0000
  C   C1        1.0  0.7346789123383884  0.8281568859890455  0.28846991455714743  1.0000
  C   C2        1.0  0.2653195035753058  0.17183800475420696  0.7115345170889642  1.0000
  C   C3        1.0  0.7361269678785902  0.8950955160068406  0.39299106637535897  1.0000
  C   C4        1.0  0.26386858341483327  0.10490105840224119  0.6070157543826442  1.0000
  C   C5        1.0  0.7641727593579333  0.011487177653897599  0.41197683432138643  1.0000
  C   C6        1.0  0.2358197027502058  0.9885102716050866  0.5880231902476468  1.0000
  C   C7        1.0  0.7652569306452508  0.06259763598654901  0.5127239787858073  1.0000
  C   C8        1.0  0.23474552732466944  0.9374022624508244  0.487275842850771  1.0000
  C   C9        1.0  0.7330367808311706  0.9963126247184346  0.5904942013121754  1.0000
  C   C10       1.0  0.2669642726874031  0.0036881056143939998  0.4095102215290396  1.0000
  C   C11       1.0  0.7015274116102006  0.8805240148297814  0.5652530890888487  1.0000
  C   C12       1.0  0.2984640721079685  0.11947678110545468  0.43474881126559245  1.0000
  C   C13       1.0  0.6501639075737627  0.8002442441191063  0.6414165515034186  1.0000
  C   C14       1.0  0.3498290548858591  0.19975569342076943  0.35858983204291667  1.0000
  C   C15       1.0  0.3751284264251069  0.653587986246606  0.11395724690414973  1.0000
  C   C16       1.0  0.624871749451678  0.3464169437449057  0.8860430963624425  1.0000
  C   C17       1.0  0.185696065633536  0.5858444644085381  0.10421340795699051  1.0000
  C   C18       1.0  0.8143066866953673  0.41415710686882784  0.8957858584551703  1.0000
  C   C19       1.0  0.10087793348612449  0.5362367189594079  0.0070119207456542775  1.0000
  C   C20       1.0  0.899126128736789  0.46376316523174677  0.9929894568549501  1.0000
  C   C21       1.0  0.2183356438851476  0.5584180272414017  0.9235491893567628  1.0000
  C   C22       1.0  0.7816663818325505  0.44157935862350667  0.07645260066600201  1.0000
  C   C23       1.0  0.4064382448110564  0.6274905636451606  0.9388238181243765  1.0000
  C   C24       1.0  0.5935605228739148  0.3725068683787923  0.06116880370597501  1.0000
  C   C25       1.0  0.13342701147303157  0.8954598693866272  0.11026530740262788  1.0000
  C   C26       1.0  0.8665771391163799  0.10454087220361433  0.8897286007718466  1.0000
  C   C27       1.0  0.3239142587339784  0.9571643982446643  0.10206002442348709  1.0000
  C   C28       1.0  0.6760917904674172  0.042838001939344394  0.897934884490603  1.0000
  C   C29       1.0  0.39931927323659266  0.9664375628060214  0.005433551826932609  1.0000
  C   C30       1.0  0.6006795741736609  0.0335690608966743  0.9945624091520813  1.0000
  C   C31       1.0  0.2727485215631091  0.9098344923705137  0.9205741107542595  1.0000
  C   C32       1.0  0.727251755061857  0.09017129060342911  0.07942027715228761  1.0000
  C   C33       1.0  0.08165819459250662  0.8504727493781274  0.9345473005698113  1.0000
  C   C34       1.0  0.9183435174380177  0.14953219065874632  0.06544627129731852  1.0000
  S   S1        1.0  0.1627591516204774  0.6063448467689128  0.41859385574004193  1.0000
  S   S2        1.0  0.8372468339777864  0.39365668718270536  0.5814115507323622  1.0000
  N   N1        1.0  0.7066471928509798  0.8324640897820218  0.468613062348645  1.0000
  N   N2        1.0  0.29335168007830237  0.1675333047004059  0.5313924290434644  1.0000
  N   N3        1.0  0.4861083161713111  0.6755084333180009  0.03300314956656077  1.0000
  N   N4        1.0  0.5138912338424432  0.32449316424348507  0.9669937619505832  1.0000
  N   N5        1.0  0.009926894379098924  0.8428578047672772  0.028390396461610096  1.0000
  N   N6        1.0  0.9900746797581873  0.1571462955371032  0.9716045885672957  1.0000
  O   O1        1.0  0.04620095375074838  0.6749720973779175  0.49504981156089667  1.0000
  O   O2        1.0  0.9538051635499157  0.32503027851451083  0.504953424716689  1.0000
  O   O3        1.0  0.9972190530131613  0.5392664626601371  0.34679380539199667  1.0000
  O   O4        1.0  0.0027885182655751307  0.460735063670235  0.6532108859452991  1.0000
  O   O5        1.0  0.7452405082927454  0.7225635791395959  0.28759407645238616  1.0000
  O   O6        1.0  0.25474359935166285  0.27743139344482154  0.7124122492113971  1.0000
  O   O7        1.0  0.7217081447157125  0.8783709464113656  0.2106793273101104  1.0000
  O   O8        1.0  0.27829760469150944  0.1216205627540035  0.7893218820762657  1.0000
  O   O9        1.0  0.6255425315652801  0.6960008936255162  0.601375092031333  1.0000
  O   O10       1.0  0.37445358987359606  0.30399903308851617  0.3986283471787076  1.0000
  O   O11       1.0  0.6301706204053872  0.8357209849829134  0.7324304759000101  1.0000
  O   O12       1.0  0.3698224180390426  0.16427981437269779  0.2675669241541101  1.0000
  O   O13       1.0  0.31411380406591144  0.6767291176424804  0.36614064730676443  1.0000
  O   O14       1.0  0.6858977728796629  0.3232682092449934  0.6338613941036402  1.0000
  O   O15       1.0  0.30396961487495844  0.5322598524365035  0.4709716833389167  1.0000
  O   O16       1.0  0.6960297088790738  0.46774004799341634  0.5290341107661336  1.0000
  O   O17       1.0  0.5837946521773958  0.44963699046077477  0.30444547816253487  1.0000
  O   O18       1.0  0.4161995706494962  0.5503612776594905  0.6955569603078829  1.0000
