data_image0
_chemical_formula_structural       Bi8H12C28N4O24
_chemical_formula_sum              "Bi8 H12 C28 N4 O24"
_cell_length_a       3.98141121324679
_cell_length_b       11.910961099359165
_cell_length_c       20.810975174540832
_cell_angle_alpha    89.08424015521747
_cell_angle_beta     84.52330089410641
_cell_angle_gamma    80.40016201779568

_space_group_name_H-M_alt    "P 1"
_space_group_IT_number       1

loop_
  _space_group_symop_operation_xyz
  'x, y, z'

loop_
  _atom_site_type_symbol
  _atom_site_label
  _atom_site_symmetry_multiplicity
  _atom_site_fract_x
  _atom_site_fract_y
  _atom_site_fract_z
  _atom_site_occupancy
  Bi  Bi1       1.0  0.1869012320707525  0.7261993784551067  0.9086392574220171  1.0000
  Bi  Bi2       1.0  0.8214091802581719  0.273877002411581  0.0914946799461447  1.0000
  Bi  Bi3       1.0  0.8468421343728564  0.22608942880042096  0.5913573270689909  1.0000
  Bi  Bi4       1.0  0.6634872581641243  0.7737293726124369  0.40850589534827014  1.0000
  Bi  Bi5       1.0  0.7869809074327846  0.46874615886211785  0.9264443631209787  1.0000
  Bi  Bi6       1.0  0.18454688949845632  0.5311371494279342  0.07347113934848438  1.0000
  Bi  Bi7       1.0  0.4649487437780658  0.9685131234744734  0.5735107562586138  1.0000
  Bi  Bi8       1.0  0.00947238304426174  0.0311256873350132  0.4265369762060516  1.0000
  H   H1        1.0  0.20690127749227832  0.021537277766093207  0.04857711098671301  1.0000
  H   H2        1.0  0.2788659906063267  0.9784113522943803  0.9515382538949383  1.0000
  H   H3        1.0  0.00546849259396227  0.5216715543269502  0.45142037634408183  1.0000
  H   H4        1.0  0.9801777556211773  0.47825352630074774  0.5484289756446827  1.0000
  H   H5        1.0  0.6324608634035725  0.7720763443576221  0.183628067338006  1.0000
  H   H6        1.0  0.5843716147256613  0.22820489961884508  0.816103398198969  1.0000
  H   H7        1.0  0.565074916131671  0.2720452426951497  0.3163760133375888  1.0000
  H   H8        1.0  0.15123398622850437  0.7280432200990461  0.683815057827978  1.0000
  H   H9        1.0  0.35106079142921226  0.129209528297018  0.2308624221451296  1.0000
  H   H10       1.0  0.707934512199202  0.8710318728297683  0.7689278311568586  1.0000
  H   H11       1.0  0.3319830090414938  0.6291871479483648  0.269134291561457  1.0000
  H   H12       1.0  0.22651183735822378  0.37093725886663986  0.7310897768346436  1.0000
  C   C1        1.0  0.29863106346220997  0.9983506141230409  0.09550068427583372  1.0000
  C   C2        1.0  0.39185475510609524  0.0017276977032026  0.9044466110870034  1.0000
  C   C3        1.0  0.14384205674595305  0.4983952615129399  0.4044964111018885  1.0000
  C   C4        1.0  0.04605445536396489  0.5016111900833594  0.5955276985509457  1.0000
  C   C5        1.0  0.4268820154059368  0.8850508860655073  0.10946210081673512  1.0000
  C   C6        1.0  0.4192372078435439  0.11513950770882535  0.8904039720618968  1.0000
  C   C7        1.0  0.2857369619992907  0.385062232418953  0.39055592979564585  1.0000
  C   C8        1.0  0.05980343491071227  0.6150026520088476  0.6095530441012471  1.0000
  C   C9        1.0  0.5350134318336616  0.8596691063981581  0.1706259487493682  1.0000
  C   C10       1.0  0.5622326953787321  0.1405806874523279  0.8291864794228944  1.0000
  C   C11       1.0  0.4548169361469975  0.3596399029244356  0.329393109647377  1.0000
  C   C12       1.0  0.1419533727689668  0.6404332949281654  0.6707517396133582  1.0000
  C   C13       1.0  0.5057206054489213  0.9476188877230245  0.215619964262153  1.0000
  C   C14       1.0  0.6669108275710938  0.052593123145854306  0.7842577715117471  1.0000
  C   C15       1.0  0.470719754088293  0.4475600443620495  0.28437746427246685  1.0000
  C   C16       1.0  0.2012479682203431  0.5524762132286231  0.7157142259378446  1.0000
  C   C17       1.0  0.37667575444936563  0.058761228687373504  0.19696274168858  1.0000
  C   C18       1.0  0.6300988569132856  0.9414436407477923  0.8028826773722741  1.0000
  C   C19       1.0  0.32350955155141725  0.5587246562736041  0.3030264656281503  1.0000
  C   C20       1.0  0.18277558500295044  0.44133171706607766  0.6971205504035325  1.0000
  C   C21       1.0  0.42234709745055443  0.7936385011417146  0.06074379445970379  1.0000
  C   C22       1.0  0.27644237633235463  0.20636369912043762  0.9393327304653596  1.0000
  C   C23       1.0  0.23291138888971116  0.2937148542948691  0.4393483162711719  1.0000
  C   C24       1.0  0.9661358233805689  0.7062314589636787  0.5606176656770572  1.0000
  C   C25       1.0  0.5897294756499534  0.9230162226072596  0.2838889911829838  1.0000
  C   C26       1.0  0.7961387004688518  0.07704756054436503  0.716056246857562  1.0000
  C   C27       1.0  0.623157419477913  0.42296366481413383  0.21613301905116342  1.0000
  C   C28       1.0  0.2619417493084129  0.5769848182790157  0.7839342504541307  1.0000
  N   N1        1.0  0.2771611984646612  0.08395702457598733  0.137687793204968  1.0000
  N   N2        1.0  0.4972433033489167  0.9162015594839875  0.8621889585791324  1.0000
  N   N3        1.0  0.16485243416227743  0.5839714357011945  0.3622984479399207  1.0000
  N   N4        1.0  0.1092002235234871  0.41609912034412144  0.6378100838252934  1.0000
  O   O1        1.0  0.24416230688687782  0.8225441256609758  0.013555707528261999  1.0000
  O   O2        1.0  0.07992455150230866  0.17750491940756774  0.9865232806818228  1.0000
  O   O3        1.0  0.007427582810024095  0.3226294331875296  0.4865024143527421  1.0000
  O   O4        1.0  0.8162716159148504  0.6774496865867549  0.513470557890784  1.0000
  O   O5        1.0  0.5804712193486309  0.6942502505428295  0.07086148708077641  1.0000
  O   O6        1.0  0.347329434824985  0.3055996120609665  0.9294364406000213  1.0000
  O   O7        1.0  0.4017634355033481  0.19440020053759355  0.42934903047383693  1.0000
  O   O8        1.0  0.02787706217358719  0.8053907441944973  0.5704565480122454  1.0000
  O   O9        1.0  0.6816271429772056  0.8173139571092282  0.2972707187711237  1.0000
  O   O10       1.0  0.7952367528048538  0.18274539789810262  0.7025705019163127  1.0000
  O   O11       1.0  0.7287282690555799  0.31727405090048694  0.20277558561900122  1.0000
  O   O12       1.0  0.24699545269869783  0.6826972226798773  0.7974203632445267  1.0000
  O   O13       1.0  0.5556471201370313  0.005071948456844701  0.3231530717668036  1.0000
  O   O14       1.0  0.8855467520852607  0.9948310066570089  0.6769638328028051  1.0000
  O   O15       1.0  0.6284042813671178  0.5050288192895139  0.17686238473099541  1.0000
  O   O16       1.0  0.3123736064738834  0.49479292745874676  0.8230501241538449  1.0000
  O   O17       1.0  0.71333105475734  0.646586787318448  0.8990354028549064  1.0000
  O   O18       1.0  0.25919474927717073  0.3533953522614441  0.10117154101786949  1.0000
  O   O19       1.0  0.36339652253892035  0.1463976251832265  0.6008815298207537  1.0000
  O   O20       1.0  0.11064904328553356  0.853385925464963  0.39892569705765624  1.0000
  O   O21       1.0  0.22478894204086677  0.550436830870048  0.9639772303871084  1.0000
  O   O22       1.0  0.7391627491885159  0.4493370019470862  0.03593431066409641  1.0000
  O   O23       1.0  0.9394324262973798  0.050230275651181  0.5360099214257374  1.0000
  O   O24       1.0  0.5259652728188653  0.9493319111805721  0.4640748802519211  1.0000
