data_image0
_chemical_formula_structural       Zn4H50C61N18
_chemical_formula_sum              "Zn4 H50 C61 N18"
_cell_length_a       14.936365778014613
_cell_length_b       14.982996733242237
_cell_length_c       14.9786835091422
_cell_angle_alpha    68.63709962079665
_cell_angle_beta     74.01584386670922
_cell_angle_gamma    111.5093775966083

_space_group_name_H-M_alt    "P 1"
_space_group_IT_number       1

loop_
  _space_group_symop_operation_xyz
  'x, y, z'

loop_
  _atom_site_type_symbol
  _atom_site_label
  _atom_site_symmetry_multiplicity
  _atom_site_fract_x
  _atom_site_fract_y
  _atom_site_fract_z
  _atom_site_occupancy
  Zn  Zn1       1.0  0.1317058723023692  0.6323301561184848  0.0006584893157681756  1.0000
  Zn  Zn2       1.0  0.8533995389848387  0.3546899132679187  0.0026152626221077214  1.0000
  Zn  Zn3       1.0  0.9901568319916124  0.628393759488425  0.8719047119740749  1.0000
  Zn  Zn4       1.0  0.9974678338054448  0.36157059019722493  0.13316528937211558  1.0000
  H   H1        1.0  0.0017940170410995525  0.6609217807588479  0.1862352379167548  1.0000
  H   H2        1.0  0.020777758274427127  0.5685255576592496  0.39841758581466286  1.0000
  H   H3        1.0  0.0559657607101372  0.6148591538429855  0.5229573630036414  1.0000
  H   H4        1.0  0.6453271194800153  0.32689979983525314  0.1673105290409823  1.0000
  H   H5        1.0  0.945259032356653  0.4774720912284424  0.6222036553661568  1.0000
  H   H6        1.0  0.0396850506940396  0.31199285483916833  0.5027382961964761  1.0000
  H   H7        1.0  0.9871700396423578  0.31917998427285005  0.660113062859928  1.0000
  H   H8        1.0  0.2114764557726404  0.6687951629556467  0.3511915975433909  1.0000
  H   H9        1.0  0.24687400666660872  0.663742755274555  0.4880024030695581  1.0000
  H   H10       1.0  0.17948194441390092  0.3818325586332064  0.46622772809592317  1.0000
  H   H11       1.0  0.11836730482712456  0.34742686737890693  0.6437402388954895  1.0000
  H   H12       1.0  0.9785731898783895  0.3129641684140907  0.8273044079190582  1.0000
  H   H13       1.0  0.6482390438417838  0.25049352086316645  0.5142831147140327  1.0000
  H   H14       1.0  0.8228661776403215  0.6784074799078114  0.7845824011340738  1.0000
  H   H15       1.0  0.48119529595058463  0.09791324938729672  0.6812729064355736  1.0000
  H   H16       1.0  0.30870305091054484  0.9651278513699781  0.45436005977335003  1.0000
  H   H17       1.0  0.26042918199587467  0.058405602012257404  0.4526685725007624  1.0000
  H   H18       1.0  0.47942901618328915  0.12157129226429932  0.28331748849792854  1.0000
  H   H19       1.0  0.4318173334135268  0.21551432719487446  0.28076603971260283  1.0000
  H   H20       1.0  0.3495307549776356  0.3445480048193872  0.8716352960253673  1.0000
  H   H21       1.0  0.5129241250652756  0.3405595180080781  0.8648424751567417  1.0000
  H   H22       1.0  0.6672322336274733  0.7180309818389219  0.8699960095724393  1.0000
  H   H23       1.0  0.16106851595631616  0.8888139383142643  0.6524327849848252  1.0000
  H   H24       1.0  0.7274065995885337  0.7833036330507213  0.7252292574858645  1.0000
  H   H25       1.0  0.5004525901793928  0.722332811006311  0.8761103373949763  1.0000
  H   H26       1.0  0.036048860951567015  0.31265106800555736  0.35267646105720024  1.0000
  H   H27       1.0  0.5600911231410992  0.7871388720468248  0.7314729956052304  1.0000
  H   H28       1.0  0.7062275702772923  0.7095090851719094  0.1575343172249647  1.0000
  H   H29       1.0  0.6898275209744399  0.8617257455516025  0.16938707710427553  1.0000
  H   H30       1.0  0.09855323768115913  0.06903204652502382  0.0917690009634526  1.0000
  H   H31       1.0  0.04436998030622875  0.9841602853812575  0.23590490140006193  1.0000
  H   H32       1.0  0.11376077885722681  0.9210892934099064  0.06608920870660044  1.0000
  H   H33       1.0  0.6352848059991771  0.3156159081469099  0.9521184096573236  1.0000
  H   H34       1.0  0.9575931070615057  0.10723150968642157  0.22404429955641803  1.0000
  H   H35       1.0  0.19841018454164333  0.6747366346131968  0.18110321457239573  1.0000
  H   H36       1.0  0.8228449500443705  0.3178698621673348  0.35278021558590217  1.0000
  H   H37       1.0  0.8173497792793897  0.6763808621765932  0.00812228091051286  1.0000
  H   H38       1.0  0.3452549681027223  0.6861610612802809  0.8136211342856684  1.0000
  H   H39       1.0  0.4671631163668339  0.6426805172280653  0.11388422335033974  1.0000
  H   H40       1.0  0.5381437577978476  0.6682185814949905  0.18789542714461066  1.0000
  H   H41       1.0  0.49409259928663835  0.5412098043582887  0.18714976750507625  1.0000
  H   H42       1.0  0.3675286536702276  0.5030833240306335  0.36344779813705946  1.0000
  H   H43       1.0  0.29805115848996894  0.48550981471643695  0.28687975514958447  1.0000
  H   H44       1.0  0.3423591335720246  0.6849760339554506  0.2142127013070978  1.0000
  H   H45       1.0  0.7600639586871198  0.08434762994520643  0.0599704395591232  1.0000
  H   H46       1.0  0.40054452302764104  0.6965804576531769  0.2993095922538984  1.0000
  H   H47       1.0  0.3477306499799441  0.8972171549234744  0.8279920533309878  1.0000
  H   H48       1.0  0.17205887161838263  0.3222875282835389  0.9946054622508529  1.0000
  H   H49       1.0  0.15512094697813691  0.6766906959917236  0.6468393969091225  1.0000
  H   H50       1.0  0.9466581225578496  0.4222224646765156  0.49271182820124443  1.0000
  C   C1        1.0  0.9649352422342972  0.6584378676160226  0.13330575396743438  1.0000
  C   C2        1.0  0.2874046784147313  0.8783625805444332  0.7997969910684191  1.0000
  C   C3        1.0  0.19845672093995867  0.41071301047445263  0.9576314726572053  1.0000
  C   C4        1.0  0.704013336848732  0.3320342322969482  0.1977247192053255  1.0000
  C   C5        1.0  0.10520685561770911  0.58714919072915  0.7066529436836078  1.0000
  C   C6        1.0  0.30307652981079514  0.5061411391737137  0.8806468690627015  1.0000
  C   C7        1.0  0.08421455505705926  0.49518886247043536  0.6924521700408733  1.0000
  C   C8        1.0  0.2932195269923456  0.9425633458174049  0.7002548817527766  1.0000
  C   C9        1.0  0.8496210164349663  0.04668989649240981  0.15386563704754513  1.0000
  C   C10       1.0  0.021378821958734324  0.5018908121442252  0.460906044520904  1.0000
  C   C11       1.0  0.026315958023879173  0.5256485664735279  0.5512091082557617  1.0000
  C   C12       1.0  0.689638349129588  0.3005146844662577  0.3037442251807719  1.0000
  C   C13       1.0  0.10521869680406591  0.3850412984331228  0.4937977138531976  1.0000
  C   C14       1.0  0.22435949248015422  0.5982101036482703  0.38250362218833817  1.0000
  C   C15       1.0  0.12118913154755974  0.49379439440032513  0.40817509835338944  1.0000
  C   C16       1.0  0.7906403411354718  0.5887327702610676  0.8297290818706243  1.0000
  C   C17       1.0  0.10314400177820467  0.4944861114307387  0.5888463587674763  1.0000
  C   C18       1.0  0.07511854744556967  0.3783311204855906  0.6044723209469965  1.0000
  C   C19       1.0  0.22180476167755364  0.5822663625049813  0.4932511437630681  1.0000
  C   C20       1.0  0.48771905964436274  0.1708274904925418  0.4054589623271099  1.0000
  C   C21       1.0  0.5859696725406495  0.2314473397651753  0.40340041116928665  1.0000
  C   C22       1.0  0.5767722629041432  0.20411354877796842  0.5078952920476141  1.0000
  C   C23       1.0  0.6916895283836839  0.49924212577450794  0.8561115209024308  1.0000
  C   C24       1.0  0.48094286501392974  0.1164296011836328  0.6037752188737783  1.0000
  C   C25       1.0  0.38538863474950374  0.04791626748914981  0.6041818779250222  1.0000
  C   C26       1.0  0.39228755268275256  0.0832884363536621  0.5010885542434947  1.0000
  C   C27       1.0  0.33186096271148113  0.0492410366493701  0.4414744169711823  1.0000
  C   C28       1.0  0.07481677915707512  0.4018254586591752  0.29557547759634434  1.0000
  C   C29       1.0  0.43999292972404197  0.14833764952843612  0.33306475642982747  1.0000
  C   C30       1.0  0.5025866022530183  0.6046024081215792  0.8194926435674077  1.0000
  C   C31       1.0  0.4071764294199271  0.5115409530280814  0.8464081532707654  1.0000
  C   C32       1.0  0.4180634014650054  0.4187008555228006  0.8567664732066902  1.0000
  C   C33       1.0  0.5117245624912102  0.41642623405997636  0.8529210884788297  1.0000
  C   C34       1.0  0.12274565154897493  0.49338747612777206  0.30777692384187116  1.0000
  C   C35       1.0  0.6031058289173856  0.5068421756920073  0.8381565020895753  1.0000
  C   C36       1.0  0.5958604380523058  0.6023079153537693  0.8158517917487204  1.0000
  C   C37       1.0  0.6520956565044644  0.7175435189819764  0.8022359326830751  1.0000
  C   C38       1.0  0.5464008145332145  0.7201015790203799  0.8062888053198167  1.0000
  C   C39       1.0  0.9363644321835523  0.8378949875559198  0.16832292059346105  1.0000
  C   C40       1.0  0.6955840013560177  0.40391615619737564  0.9139972269904534  1.0000
  C   C41       1.0  0.8625355650974952  0.759976693173961  0.15541888162899653  1.0000
  C   C42       1.0  0.7707357909093705  0.7701850666489279  0.16166648927778485  1.0000
  C   C43       1.0  0.7615292737914886  0.8574116403731723  0.16832166506588922  1.0000
  C   C44       1.0  0.8431255991392494  0.9423306487748634  0.1697475502723906  1.0000
  C   C45       1.0  0.2872075547369236  0.5963789841468524  0.8664017328522035  1.0000
  C   C46       1.0  0.9275137599503939  0.924562834049681  0.1752090554981507  1.0000
  C   C47       1.0  0.04064250222827316  0.984103258278658  0.16367307042921925  1.0000
  C   C48       1.0  0.05448443781067885  0.8889733838548963  0.14944963720048324  1.0000
  C   C49       1.0  0.1584421988620975  0.5861833581088264  0.20754142889261132  1.0000
  C   C50       1.0  0.7947868324391011  0.3283374434689321  0.2921194635011162  1.0000
  C   C51       1.0  0.8691611453252295  0.6641575721948884  0.043863329917144464  1.0000
  C   C52       1.0  0.8898816735826574  0.6906747737007777  0.11999089142854304  1.0000
  C   C53       1.0  0.33568028554557144  0.6361306207212962  0.2938503350686119  1.0000
  C   C54       1.0  0.3631670929654691  0.548095874091743  0.289735584774519  1.0000
  C   C55       1.0  0.47150833088568334  0.6027767612406691  0.18926973634584957  1.0000
  C   C56       1.0  0.015360881479395497  0.4019566276969043  0.7985504572928407  1.0000
  C   C57       1.0  0.298277121896085  0.5510723774169292  0.5162339125901879  1.0000
  C   C58       1.0  0.08242650524200469  0.8263077284820426  0.2247474821594794  1.0000
  C   C59       1.0  0.19262292126302327  0.8732304713287956  0.7100153963251048  1.0000
  C   C60       1.0  0.9127645154082205  0.11963042173641723  0.17931317723352444  1.0000
  C   C61       1.0  0.8107110678472795  0.10726142368482532  0.09711532164774891  1.0000
  N   N1        1.0  0.9877828871278782  0.6182856351786938  0.06860319455028474  1.0000
  N   N2        1.0  0.8480060667212758  0.5498212148112316  0.8685436441396206  1.0000
  N   N3        1.0  0.08205579545436598  0.43745675730809114  0.19555696319894628  1.0000
  N   N4        1.0  0.7889802839933041  0.4346217041702189  0.9213126548059025  1.0000
  N   N5        1.0  0.13465529719254482  0.5523969925048391  0.14079253788727908  1.0000
  N   N6        1.0  0.8641626643255481  0.3701078205767985  0.18822637406470483  1.0000
  N   N7        1.0  0.9295378346129582  0.6222583331470304  0.013349767616880136  1.0000
  N   N8        1.0  0.1822939370814894  0.5567856098904471  0.9317041310075069  1.0000
  N   N9        1.0  0.3585755696295863  0.5254202431038663  0.5357524582602765  1.0000
  N   N10       1.0  0.10708830723220336  0.7783982285909161  0.2846532582248713  1.0000
  N   N11       1.0  0.9955234891799734  0.43635213160756336  0.8697234060970801  1.0000
  N   N12       1.0  0.13256187561694335  0.7764347444391859  0.8069122438292811  1.0000
  N   N13       1.0  0.9114024733542793  0.21495463690916236  0.14108647400529156  1.0000
  N   N14       1.0  0.848326397563632  0.20791753078960803  0.08936434591400651  1.0000
  N   N15       1.0  0.19163077200876444  0.7796245350521431  0.8627934432730628  1.0000
  N   N16       1.0  0.12779863804272668  0.4426950433702857  0.9879827435736528  1.0000
  N   N17       1.0  0.050984172178225325  0.5503415312680886  0.8131815369177955  1.0000
  N   N18       1.0  0.8084524538150365  0.37250787516638434  0.13018974682190534  1.0000
