data_image0
_chemical_formula_structural       Cu4H28C12S4N12Cl8
_chemical_formula_sum              "Cu4 H28 C12 S4 N12 Cl8"
_cell_length_a       8.034479437733877
_cell_length_b       7.662206556353859
_cell_length_c       13.322245159187341
_cell_angle_alpha    89.99998517812736
_cell_angle_beta     90.00057641303901
_cell_angle_gamma    114.16541921170173

_space_group_name_H-M_alt    "P 1"
_space_group_IT_number       1

loop_
  _space_group_symop_operation_xyz
  'x, y, z'

loop_
  _atom_site_type_symbol
  _atom_site_label
  _atom_site_symmetry_multiplicity
  _atom_site_fract_x
  _atom_site_fract_y
  _atom_site_fract_z
  _atom_site_occupancy
  Cu  Cu1       1.0  0.14021158651420512  0.43072512991185624  0.7352967848511582  1.0000
  Cu  Cu2       1.0  0.3597853974049698  0.569276922080583  0.235296891104781  1.0000
  Cu  Cu3       1.0  0.8600233180422521  0.5695358385134739  0.2647199807855571  1.0000
  Cu  Cu4       1.0  0.6399479073437816  0.43046737841336113  0.7647266287055245  1.0000
  H   H1        1.0  0.7041682912739519  0.10612929690554299  0.7430286569371845  1.0000
  H   H2        1.0  0.7957934079839291  0.8940360216760935  0.24311519132341178  1.0000
  H   H3        1.0  0.29620223670394097  0.8941133297459487  0.2569888597701322  1.0000
  H   H4        1.0  0.20374547574802898  0.10594966804286089  0.7570029064238994  1.0000
  H   H5        1.0  0.8280057308656623  0.9604852496733897  0.7394077456494159  1.0000
  H   H6        1.0  0.6718680216258832  0.03957547672715831  0.23934395495642488  1.0000
  H   H7        1.0  0.17235344960037927  0.039738891712055094  0.2605467185923871  1.0000
  H   H8        1.0  0.32756564278504635  0.960278659820183  0.7605196808824601  1.0000
  H   H9        1.0  0.5441531280437742  0.9574373877083815  0.5972971457964462  1.0000
  H   H10       1.0  0.9558632142557004  0.042442771488957504  0.09734028219129699  1.0000
  H   H11       1.0  0.45610025901883944  0.04292288556024459  0.4027533979554576  1.0000
  H   H12       1.0  0.04386003230735714  0.9570775551866361  0.9027598013368134  1.0000
  H   H13       1.0  0.659634041224635  0.8006779694334581  0.6003976537689084  1.0000
  H   H14       1.0  0.8405236405887706  0.19934576269912438  0.10040915516408691  1.0000
  H   H15       1.0  0.3405103310653814  0.1995566473780599  0.3995830816204915  1.0000
  H   H16       1.0  0.1594597961219009  0.8004405867863866  0.8995595698739435  1.0000
  H   H17       1.0  0.2564138213944744  0.6461879317493313  0.5763659164300776  1.0000
  H   H18       1.0  0.2435568315283163  0.3538074892829641  0.0764044534259796  1.0000
  H   H19       1.0  0.7438304437950907  0.3540655348809381  0.4236065624101428  1.0000
  H   H20       1.0  0.7561177163210573  0.6458878496941766  0.9236423355621355  1.0000
  H   H21       1.0  0.36149110820171865  0.4954986119896318  0.5904848015719749  1.0000
  H   H22       1.0  0.1385679024850717  0.5045899189974534  0.0904527427281323  1.0000
  H   H23       1.0  0.6385529246554783  0.5046404847948267  0.4095019385195399  1.0000
  H   H24       1.0  0.8614512069141116  0.49536469277474277  0.9094844561485758  1.0000
  H   H25       1.0  0.14042612986700218  0.3962521933278325  0.4483286512564888  1.0000
  H   H26       1.0  0.35963197856081314  0.6037271023859745  0.948329095357515  1.0000
  H   H27       1.0  0.8597460855839217  0.6040742265426006  0.5516438273242841  1.0000
  H   H28       1.0  0.6402437113809185  0.395864106093221  0.0516441331453237  1.0000
  C   C1        1.0  0.971688916756733  0.23670273298053957  0.5648470496840262  1.0000
  C   C2        1.0  0.5283876048966647  0.7632824483109388  0.0648553776661345  1.0000
  C   C3        1.0  0.028491888399201984  0.7635236090592201  0.4351261795841737  1.0000
  C   C4        1.0  0.4715020307976801  0.2364544935738095  0.9351231052000771  1.0000
  C   C5        1.0  0.7873463940196787  0.05697550798346641  0.6946947487280397  1.0000
  C   C6        1.0  0.7126195897843034  0.9430720078484498  0.1947033945948249  1.0000
  C   C7        1.0  0.21296302899285988  0.9432457140000565  0.3052814834560422  1.0000
  C   C8        1.0  0.28697548765182995  0.0567659446485038  0.805272084783425  1.0000
  C   C9        1.0  0.6772452270777052  0.9501335866039328  0.6017112505186475  1.0000
  C   C10       1.0  0.8228122622075632  0.049855402104455486  0.10172649602402119  1.0000
  C   C11       1.0  0.3229762467496046  0.05012197779260669  0.39826423074382694  1.0000
  C   C12       1.0  0.1769877026396002  0.9498754197022945  0.8982685002865479  1.0000
  S   S1        1.0  0.8062143738737221  0.06707719041623512  0.4893352766885499  1.0000
  S   S2        1.0  0.6938372010215091  0.9329404555493923  0.9893449215839923  1.0000
  S   S3        1.0  0.19389077160078458  0.9331165881281505  0.5106537154545521  1.0000
  S   S4        1.0  0.3061061642163949  0.06685137903664899  0.010653077667065199  1.0000
  N   N1        1.0  0.9501043167351072  0.2200573149501892  0.6620122894900932  1.0000
  N   N2        1.0  0.5499232965714995  0.7799143233166319  0.16200648372024767  1.0000
  N   N3        1.0  0.05015594566162197  0.7801956949105956  0.33797970563212937  1.0000
  N   N4        1.0  0.449800797032907  0.2197955156407473  0.8379682454974642  1.0000
  N   N5        1.0  0.23796706452282732  0.5082992245614335  0.5934876439483574  1.0000
  N   N6        1.0  0.2620666828919481  0.49172784376469986  0.09348717096473541  1.0000
  N   N7        1.0  0.7621409806241743  0.4919378766703416  0.40651260755229396  1.0000
  N   N8        1.0  0.7378519052021418  0.5080401020679517  0.906520586329364  1.0000
  N   N9        1.0  0.11586815063768094  0.3804439483821512  0.5245259439122165  1.0000
  N   N10       1.0  0.38422566763806276  0.6194866667713155  0.024514162922848498  1.0000
  N   N11       1.0  0.8841913912373867  0.6198900299187357  0.47545028742158024  1.0000
  N   N12       1.0  0.6158452842762472  0.3800193884456817  0.975441051261889  1.0000
  Cl  Cl1       1.0  0.03165954331574029  0.33086546538745415  0.8908258082610274  1.0000
  Cl  Cl2       1.0  0.46837231225698156  0.6691096621614674  0.39082204453791997  1.0000
  Cl  Cl3       1.0  0.9686987857145084  0.6693717227047102  0.10927953144342689  1.0000
  Cl  Cl4       1.0  0.5313580408023597  0.33059421123761706  0.6092720339546034  1.0000
  Cl  Cl5       1.0  0.41343106090661763  0.6574435311930459  0.7900271047505498  1.0000
  Cl  Cl6       1.0  0.08654772549798649  0.342602995478387  0.2900286011860729  1.0000
  Cl  Cl7       1.0  0.5866633956559113  0.3427968518969564  0.2099896604379055  1.0000
  Cl  Cl8       1.0  0.9132906825838704  0.6572453701571986  0.7100046770433508  1.0000
