data_image0
_chemical_formula_structural       Co4H56C56N16Cl8O8
_chemical_formula_sum              "Co4 H56 C56 N16 Cl8 O8"
_cell_length_a       7.343613009013732
_cell_length_b       11.930274492020098
_cell_length_c       22.535101483005057
_cell_angle_alpha    89.9999703968056
_cell_angle_beta     90.00007070895182
_cell_angle_gamma    90.00020915636156

_space_group_name_H-M_alt    "P 1"
_space_group_IT_number       1

loop_
  _space_group_symop_operation_xyz
  'x, y, z'

loop_
  _atom_site_type_symbol
  _atom_site_label
  _atom_site_symmetry_multiplicity
  _atom_site_fract_x
  _atom_site_fract_y
  _atom_site_fract_z
  _atom_site_occupancy
  Co  Co1       1.0  0.24999971849543098  0.5000001498087839  0.7427115252010025  1.0000
  Co  Co2       1.0  0.24999986059327736  0.9999995353196309  0.7572882717157796  1.0000
  Co  Co3       1.0  0.7499992738261342  0.5000001131347958  0.25728802949346624  1.0000
  Co  Co4       1.0  0.7500004934566533  7.276252632e-07  0.2427117267311232  1.0000
  H   H1        1.0  0.49773375555753313  0.9899454889727082  0.9060398162430231  1.0000
  H   H2        1.0  0.0022690244269867  0.0100538127346184  0.9060398505301704  1.0000
  H   H3        1.0  0.0022671258911302005  0.48994568983899  0.5939599834187916  1.0000
  H   H4        1.0  0.4977331085768526  0.5100539170322023  0.593960080140576  1.0000
  H   H5        1.0  0.5022665984899247  0.0100539357685037  0.09396018220399327  1.0000
  H   H6        1.0  0.997732691350471  0.9899464502118108  0.0939601479170022  1.0000
  H   H7        1.0  0.9977332281579551  0.5100545731061176  0.40603957127594736  1.0000
  H   H8        1.0  0.5022658837455508  0.48994634591115727  0.4060399183060497  1.0000
  H   H9        1.0  0.14044667270542277  0.6635704004230334  0.8347128415830909  1.0000
  H   H10       1.0  0.35955175154143143  0.3364306474339003  0.8347124864710125  1.0000
  H   H11       1.0  0.3595522815828502  0.1635688232474948  0.6652866034256276  1.0000
  H   H12       1.0  0.1404468617085186  0.8364281992646952  0.6652869113475433  1.0000
  H   H13       1.0  0.8595523196178191  0.3364298625201129  0.1652876006157058  1.0000
  H   H14       1.0  0.6404458790559177  0.6635704537116  0.1652875119752295  1.0000
  H   H15       1.0  0.640448072460444  0.8364297632904681  0.3347125075171817  1.0000
  H   H16       1.0  0.8595534923356213  0.16357038727305448  0.3347126433474301  1.0000
  H   H17       1.0  0.2914641491727963  0.8008775215231551  0.9013280401868684  1.0000
  H   H18       1.0  0.20853452775883602  0.1991226229906076  0.901328105676896  1.0000
  H   H19       1.0  0.20853561587757244  0.3008765068786444  0.5986713673375945  1.0000
  H   H20       1.0  0.29146599818576385  0.6991214189793524  0.598672217130776  1.0000
  H   H21       1.0  0.7085348431454933  0.1991210650126192  0.0986724020121557  1.0000
  H   H22       1.0  0.7914631028434654  0.8008801545622574  0.09867189276911859  1.0000
  H   H23       1.0  0.7914633764365675  0.6991212414538879  0.4013281873572225  1.0000
  H   H24       1.0  0.7085384410509192  0.3008796821734023  0.4013286688211508  1.0000
  H   H25       1.0  0.8037946320492466  0.7047789249855045  0.8210919965204297  1.0000
  H   H26       1.0  0.6962033307835044  0.29522074996859266  0.8210920308250422  1.0000
  H   H27       1.0  0.6962055175485347  0.20477780405565935  0.6789071942400042  1.0000
  H   H28       1.0  0.80379599112932  0.7952220099372342  0.678908022748935  1.0000
  H   H29       1.0  0.1962029985423115  0.2952204997528582  0.1789075581738828  1.0000
  H   H30       1.0  0.30379702327142155  0.7047803511793304  0.1789092988782315  1.0000
  H   H31       1.0  0.30379755994982827  0.79522078248538  0.3210919167033524  1.0000
  H   H32       1.0  0.19620436292308344  0.20477909121134263  0.3210919756978541  1.0000
  H   H33       1.0  0.6312196600748905  0.5692370345024713  0.7585894883837411  1.0000
  H   H34       1.0  0.868776703945926  0.4307635397716822  0.7585891112233584  1.0000
  H   H35       1.0  0.8687796891874556  0.0692362419171886  0.7414101831310873  1.0000
  H   H36       1.0  0.6312193331255287  0.9307643491581816  0.7414109053473367  1.0000
  H   H37       1.0  0.36877660879245167  0.4307632284378116  0.24141051006234449  1.0000
  H   H38       1.0  0.1312209266506272  0.569236723169709  0.24141177472731806  1.0000
  H   H39       1.0  0.1312220265858457  0.9307631828259987  0.2585889278118784  1.0000
  H   H40       1.0  0.36877965919934746  0.06923675198886063  0.2585890930991823  1.0000
  H   H41       1.0  0.7344246523900607  0.7981437808259814  0.9424803737169328  1.0000
  H   H42       1.0  0.7655764943479967  0.20185493722878084  0.9424800176109471  1.0000
  H   H43       1.0  0.7655733250503403  0.29814377334935216  0.5575192353068061  1.0000
  H   H44       1.0  0.7344249997230465  0.701856997542656  0.5575200614518819  1.0000
  H   H45       1.0  0.2655743399282358  0.2018548057098002  0.0575200684820842  1.0000
  H   H46       1.0  0.23442522142703842  0.7981436493096368  0.0575213120929448  1.0000
  H   H47       1.0  0.23442702899706802  0.701856489596196  0.44247943188361205  1.0000
  H   H48       1.0  0.2655739925985117  0.29814326540092406  0.44247949324258673  1.0000
  H   H49       1.0  0.7766342428844552  0.8804135508859261  0.8788795923675892  1.0000
  H   H50       1.0  0.723365300874832  0.11958522935873364  0.8788796855253338  1.0000
  H   H51       1.0  0.7233669437890597  0.380412547759363  0.6211204379497488  1.0000
  H   H52       1.0  0.7766343456873628  0.6195864845364838  0.6211208597487284  1.0000
  H   H53       1.0  0.22336338770462313  0.11958503564874692  0.12111996232683708  1.0000
  H   H54       1.0  0.27663777663184413  0.880415033588797  0.12112120042644389  1.0000
  H   H55       1.0  0.2766361337101415  0.6195860387814562  0.3788791167457646  1.0000
  H   H56       1.0  0.22336328490835197  0.38041377840512064  0.378879582449791  1.0000
  C   C1        1.0  0.28796400547895473  0.6733322872224932  0.8341643921932088  1.0000
  C   C2        1.0  0.212034416687402  0.3266687611707653  0.8341639805168555  1.0000
  C   C3        1.0  0.21203500645120238  0.17333121480051966  0.6658346063983203  1.0000
  C   C4        1.0  0.28796413892313677  0.8266666453790279  0.6658358637187547  1.0000
  C   C5        1.0  0.7120349868426601  0.32666713751675064  0.16583649375785817  1.0000
  C   C6        1.0  0.7879645756407926  0.6733331781797389  0.16583646168170668  1.0000
  C   C7        1.0  0.7879667093187805  0.8266673717391979  0.3341640607925953  1.0000
  C   C8        1.0  0.7120348533992596  0.17333361756433166  0.334164134727871  1.0000
  C   C9        1.0  0.37336640648140923  0.7502719196404612  0.8711311726766552  1.0000
  C   C10       1.0  0.12663215590329463  0.24972741619769315  0.8711307477151421  1.0000
  C   C11       1.0  0.126631698027083  0.2502706906311971  0.6288673611583205  1.0000
  C   C12       1.0  0.3733673071222725  0.7497272056965298  0.628868673772942  1.0000
  C   C13       1.0  0.626632585835253  0.2497258286914246  0.1288697132746393  1.0000
  C   C14       1.0  0.8733641129665203  0.7502736849462719  0.1288692507308298  1.0000
  C   C15       1.0  0.8733672942895299  0.7497278959050175  0.37113219353637567  1.0000
  C   C16       1.0  0.626633046927708  0.2502722190440351  0.37113265593056605  1.0000
  C   C17       1.0  0.5625280922783489  0.7623422676838489  0.8678949244877571  1.0000
  C   C18       1.0  0.9374700480845135  0.23765652330097717  0.8678941838729768  1.0000
  C   C19       1.0  0.9374710354916758  0.2623425752081161  0.6321042505576883  1.0000
  C   C20       1.0  0.5625289339235878  0.7376564463451486  0.6321058854159318  1.0000
  C   C21       1.0  0.43746953831242064  0.2376563188503908  0.1321055177109898  1.0000
  C   C22       1.0  0.06252622077788321  0.762342063231948  0.132105814573336  1.0000
  C   C23       1.0  0.06252931855325268  0.7376568495337494  0.36789441663284345  1.0000
  C   C24       1.0  0.4374727818547086  0.2623438166010672  0.36789455678340494  1.0000
  C   C25       1.0  0.6570807311003295  0.6958896065455703  0.8269162154044166  1.0000
  C   C26       1.0  0.8429186155493158  0.304109224511393  0.8269158624371612  1.0000
  C   C27       1.0  0.8429193660094826  0.1958888224118098  0.6730829777827124  1.0000
  C   C28       1.0  0.6570807588465257  0.8041101590708591  0.6730841887103551  1.0000
  C   C29       1.0  0.342918261214649  0.3041081417867417  0.1730837830425571  1.0000
  C   C30       1.0  0.1570803767739264  0.6958910384317463  0.1730845797616354  1.0000
  C   C31       1.0  0.15708098803381185  0.8041097641261601  0.3269161331600969  1.0000
  C   C32       1.0  0.3429209569317777  0.19589010387535669  0.3269162534889887  1.0000
  C   C33       1.0  0.5626378297352659  0.620838436013841  0.7915997471381147  1.0000
  C   C34       1.0  0.937360021228514  0.3791621059829353  0.7915994116011119  1.0000
  C   C35       1.0  0.9373631859487546  0.12083866868744758  0.7083994665377489  1.0000
  C   C36       1.0  0.5626370728771307  0.879162792872485  0.7084001753046536  1.0000
  C   C37       1.0  0.4373625243130376  0.3791609887271506  0.20840069506106568  1.0000
  C   C38       1.0  0.06263897110051889  0.6208398333673487  0.2084014743496141  1.0000
  C   C39       1.0  0.06264125327960808  0.8791607560588091  0.291599644405764  1.0000
  C   C40       1.0  0.4373605577226912  0.12083914647670468  0.2915998231414747  1.0000
  C   C41       1.0  0.6672221012513335  0.8433631350767499  0.9059222759537348  1.0000
  C   C42       1.0  0.8327789068161736  0.1566364569298031  0.9059219591746127  1.0000
  C   C43       1.0  0.8327775049246783  0.3433632435150287  0.5940773207255958  1.0000
  C   C44       1.0  0.6672223202492659  0.6566374916304056  0.5940781322327808  1.0000
  C   C45       1.0  0.3327782527961247  0.15663628966446203  0.0940777224932816  1.0000
  C   C46       1.0  0.1672214472354412  0.8433638060146579  0.0940789267766178  1.0000
  C   C47       1.0  0.16722421084863026  0.6566361812281514  0.40592179021737  1.0000
  C   C48       1.0  0.3327766720764486  0.3433636095164161  0.405922309965895  1.0000
  C   C49       1.0  0.5505810714720524  0.9460345306176878  0.9913840236166749  1.0000
  C   C50       1.0  0.9494188990437281  0.053964977819021015  0.9913837816984453  1.0000
  C   C51       1.0  0.9494191409485919  0.4460341476547143  0.5086155450339404  1.0000
  C   C52       1.0  0.5505817217737602  0.5539658328571022  0.5086158939856276  1.0000
  C   C53       1.0  0.44941792084703286  0.0539648941222097  0.0086155310779077  1.0000
  C   C54       1.0  0.050582816732095616  0.9460344469235125  0.008616660501004998  1.0000
  C   C55       1.0  0.0505825748247162  0.5539652770884729  0.4913835659090252  1.0000
  C   C56       1.0  0.44941727054779795  0.4460344300864704  0.49138366070884126  1.0000
  N   N1        1.0  0.3796352380574959  0.608835989340399  0.7949957473324573  1.0000
  N   N2        1.0  0.1203616738065705  0.3911650973519586  0.7949957249940665  1.0000
  N   N3        1.0  0.12036475477004421  0.10883550994022778  0.7050037126186126  1.0000
  N   N4        1.0  0.37963590091237626  0.8911639883473659  0.7050041016339534  1.0000
  N   N5        1.0  0.6203623925357391  0.3911634353975231  0.2050046948661759  1.0000
  N   N6        1.0  0.8796345950665627  0.6088368419954692  0.20500471720395547  1.0000
  N   N7        1.0  0.8796355992740955  0.8911630765975218  0.2949958420763608  1.0000
  N   N8        1.0  0.6203658148700341  0.1088379510064286  0.29499589681299193  1.0000
  N   N9        1.0  0.5593763136215343  0.9311220877011621  0.932364989895305  1.0000
  N   N10       1.0  0.9406247947467958  0.06887664024482382  0.9323647403750216  1.0000
  N   N11       1.0  0.9406238107492016  0.43112246538074567  0.5676354703305506  1.0000
  N   N12       1.0  0.5593759141206505  0.5688774574174644  0.5676353749904094  1.0000
  N   N13       1.0  0.4406240404234509  0.06887649883637441  0.0676350085518322  1.0000
  N   N14       1.0  0.05937828275571629  0.9311227844994647  0.06763525807254209  1.0000
  N   N15       1.0  0.0593779050257837  0.5688769593620081  0.43236452811673587  1.0000
  N   N16       1.0  0.44062307820175306  0.43112280552589516  0.43236462345622334  1.0000
  Cl  Cl1       1.0  0.028950646136074506  0.5851672860597148  0.6931771903837287  1.0000
  Cl  Cl2       1.0  0.47104724123009595  0.41483222378943924  0.69317730238658  1.0000
  Cl  Cl3       1.0  0.47104648347969663  0.08516666030711656  0.8068227197804134  1.0000
  Cl  Cl4       1.0  0.028953196694033106  0.9148319002124269  0.8068225177808657  1.0000
  Cl  Cl5       1.0  0.9710469844579565  0.4148329768823302  0.30682236431046306  1.0000
  Cl  Cl6       1.0  0.5289517510898278  0.585167200950238  0.3068226960601592  1.0000
  Cl  Cl7       1.0  0.5289525088410727  0.9148327644323403  0.19317772241849698  1.0000
  Cl  Cl8       1.0  0.9710471573558977  0.08516836273246749  0.19317748066603713  1.0000
  O   O1        1.0  0.6170191073110943  0.8825403088694871  0.0293577589255349  1.0000
  O   O2        1.0  0.8829812992007077  0.11745846387601232  0.029357916750640794  1.0000
  O   O3        1.0  0.8829815570413684  0.3825418387901536  0.4706423366191999  1.0000
  O   O4        1.0  0.6170191616392202  0.6174581788537522  0.47064225116067593  1.0000
  O   O5        1.0  0.38298124673304557  0.11745827766826271  0.9706417957694313  1.0000
  O   O6        1.0  0.11702041657180469  0.8825401226630517  0.9706420816967662  1.0000
  O   O7        1.0  0.11702015873940752  0.6174592623597376  0.5293581055800229  1.0000
  O   O8        1.0  0.3829798306815491  0.3825412458857045  0.5293581910382342  1.0000
