data_image0
_chemical_formula_structural       Zn2H84C80N6O16
_chemical_formula_sum              "Zn2 H84 C80 N6 O16"
_cell_length_a       15.127268147480882
_cell_length_b       16.24281886664482
_cell_length_c       16.893282278925582
_cell_angle_alpha    86.99019310011361
_cell_angle_beta     88.55038000320863
_cell_angle_gamma    89.37876654706493

_space_group_name_H-M_alt    "P 1"
_space_group_IT_number       1

loop_
  _space_group_symop_operation_xyz
  'x, y, z'

loop_
  _atom_site_type_symbol
  _atom_site_label
  _atom_site_symmetry_multiplicity
  _atom_site_fract_x
  _atom_site_fract_y
  _atom_site_fract_z
  _atom_site_occupancy
  Zn  Zn1       1.0  0.49850620123544326  0.5903259728410432  0.5066363108329881  1.0000
  Zn  Zn2       1.0  0.5066967597349645  0.4038901810867657  0.4957222696658263  1.0000
  H   H1        1.0  0.0744208686393151  0.6147472214749784  0.3193905337946035  1.0000
  H   H2        1.0  0.9219788760783486  0.5111219059865275  0.715150791134853  1.0000
  H   H3        1.0  0.45141549919376434  0.5673572492545629  0.9104761530327963  1.0000
  H   H4        1.0  0.4639758952348244  0.4214385653507831  0.10072175563137616  1.0000
  H   H5        1.0  0.6092915229954627  0.6294307207620733  0.2571955432997299  1.0000
  H   H6        1.0  0.5857142628925657  0.3639405282433187  0.733112746671921  1.0000
  H   H7        1.0  0.28911181816392423  0.33029334470312927  0.7527206377989585  1.0000
  H   H8        1.0  0.18947698119055895  0.37477370713158825  0.7910244861384327  1.0000
  H   H9        1.0  0.19053854835642878  0.2723896306662111  0.7592156033193902  1.0000
  H   H10       1.0  0.12037741692531512  0.3710298276797203  0.6591652114089256  1.0000
  H   H11       1.0  0.2145142158905955  0.3239123844264569  0.6180186692803247  1.0000
  H   H12       1.0  0.3032587446246708  0.4461505626247657  0.6272374292159595  1.0000
  H   H13       1.0  0.2287484807289388  0.489131110802532  0.6939774183644616  1.0000
  H   H14       1.0  0.7232973192433717  0.4742927811440865  0.21360245689354676  1.0000
  H   H15       1.0  0.8221840797503076  0.5316823813308603  0.20149062542871116  1.0000
  H   H16       1.0  0.8235715103876017  0.4242904903119537  0.18659448511412083  1.0000
  H   H17       1.0  0.8869570991948023  0.4579671428693004  0.31829976533255416  1.0000
  H   H18       1.0  0.7954339326350137  0.392433120788219  0.3312359402224132  1.0000
  H   H19       1.0  0.6996608027316568  0.4976212108126746  0.3755213796498892  1.0000
  H   H20       1.0  0.7626962004055144  0.5774233932618955  0.3311799892193079  1.0000
  H   H21       1.0  0.6766628248326825  0.0043670873766359  0.2566944982622275  1.0000
  H   H22       1.0  0.7109171797614096  0.9082487130226014  0.22066066682543808  1.0000
  H   H23       1.0  0.6159029958370538  0.9590792285135447  0.18152118266056758  1.0000
  H   H24       1.0  0.573942750091966  0.8407976579920768  0.2784210323768761  1.0000
  H   H25       1.0  0.5337973146337092  0.9359790659348942  0.3106394006095741  1.0000
  H   H26       1.0  0.6674614832342484  0.943333154379566  0.3983561481137343  1.0000
  H   H27       1.0  0.7025937784893231  0.8462383088298039  0.3651674564661036  1.0000
  H   H28       1.0  0.22069529825660075  0.9818870095669111  0.5988072633221507  1.0000
  H   H29       1.0  0.1706007595995302  0.07746286251015279  0.6212015430247959  1.0000
  H   H30       1.0  0.1451201550461292  0.030572586619562993  0.5320631317724248  1.0000
  H   H31       1.0  0.2512746929797203  0.14641868350860676  0.5023375439163613  1.0000
  H   H32       1.0  0.30156180916076636  0.051237830097662085  0.4813478470986893  1.0000
  H   H33       1.0  0.3728918221090111  0.04674384374046531  0.6157775540029177  1.0000
  H   H34       1.0  0.32431799455034843  0.14254845870141955  0.634279905331354  1.0000
  H   H35       1.0  0.5770835677211464  0.051253353639879186  0.359149254916403  1.0000
  H   H36       1.0  0.38810284146872925  0.8772131123854479  0.6530247962508895  1.0000
  H   H37       1.0  0.6490588359968115  0.36753479049640697  0.24455911643681819  1.0000
  H   H38       1.0  0.7125118307623879  0.27519010680234146  0.2411165422937387  1.0000
  H   H39       1.0  0.6216480826549498  0.29252161313120684  0.1771294946523554  1.0000
  H   H40       1.0  0.5796892893023724  0.19395643474724267  0.29022272438077573  1.0000
  H   H41       1.0  0.5157853152613754  0.28454829553331257  0.29300649084316177  1.0000
  H   H42       1.0  0.614840455239829  0.3397304047728155  0.3943559788403306  1.0000
  H   H43       1.0  0.6811215291573305  0.24979989018982707  0.39175029898381547  1.0000
  H   H44       1.0  0.22863717753765667  0.6492671979331347  0.6037607801098588  1.0000
  H   H45       1.0  0.23107465982159428  0.7223098604854669  0.67861233629813  1.0000
  H   H46       1.0  0.16253956672703399  0.739744829913043  0.5950252154048243  1.0000
  H   H47       1.0  0.2964459071110639  0.8265223989440145  0.5736438944319388  1.0000
  H   H48       1.0  0.3001466317918684  0.7476661717803594  0.5056377584756149  1.0000
  H   H49       1.0  0.39654242648367705  0.6619335964522576  0.5982486201203228  1.0000
  H   H50       1.0  0.3983276502556521  0.7423209658112953  0.6632130236087191  1.0000
  H   H51       1.0  0.20514637298227  0.5855380951675426  0.18596232207537605  1.0000
  H   H52       1.0  0.3123657092527309  0.5453956645271276  0.20502535428656188  1.0000
  H   H53       1.0  0.23236640198081196  0.4825330653353816  0.16328425683033024  1.0000
  H   H54       1.0  0.23926099164640388  0.43977295429115765  0.3064797092226712  1.0000
  H   H55       1.0  0.1379722747158567  0.4903541744657716  0.2893497345301412  1.0000
  H   H56       1.0  0.2124758979892434  0.6243968816952756  0.32939423752115715  1.0000
  H   H57       1.0  0.3033789041126481  0.5638980629993711  0.35926505992821933  1.0000
  H   H58       1.0  0.6348371569176692  0.5658883128018245  0.7768767820118754  1.0000
  H   H59       1.0  0.7399718050572587  0.5578771551276275  0.8211060216153568  1.0000
  H   H60       1.0  0.6935087517471101  0.6562550038585115  0.7955211319605481  1.0000
  H   H61       1.0  0.8095596287654343  0.6227858351519158  0.6944132597975923  1.0000
  H   H62       1.0  0.7050264801741832  0.6262216489035096  0.6503784597620521  1.0000
  H   H63       1.0  0.6962186823299065  0.47407779568834474  0.6588664530405806  1.0000
  H   H64       1.0  0.7951723249598928  0.46593981603841417  0.7110843622085881  1.0000
  H   H65       1.0  0.8435431700537137  0.6701690685942622  0.3302541344435639  1.0000
  H   H66       1.0  0.1452946558117461  0.5706297889526867  0.7296223123105676  1.0000
  H   H67       1.0  0.3525225436513253  0.5696400217281621  0.71254908751785  1.0000
  H   H68       1.0  0.3884483088260069  0.42080144745218456  0.31224015069385297  1.0000
  H   H69       1.0  0.7494683519896626  0.7974619460907846  0.0944692901054083  1.0000
  H   H70       1.0  0.6949309911372052  0.789754760847231  0.0033737466017455947  1.0000
  H   H71       1.0  0.6594270650891332  0.8645096605243623  0.0705014726600837  1.0000
  H   H72       1.0  0.5550298318567569  0.7453368886749416  0.0794996790430957  1.0000
  H   H73       1.0  0.6107584153103572  0.7517852234824219  0.16951473636004977  1.0000
  H   H74       1.0  0.7193064369495517  0.6434514115631342  0.12642300749119775  1.0000
  H   H75       1.0  0.662594774867415  0.6365522580591899  0.03688792551780298  1.0000
  H   H76       1.0  0.7099588793425083  0.17944560765945275  0.911375234693409  1.0000
  H   H77       1.0  0.7098330377907446  0.2293200984770465  0.0023617998375086977  1.0000
  H   H78       1.0  0.6346235069916304  0.14825164241039354  0.9891562878531772  1.0000
  H   H79       1.0  0.5564855899053924  0.28597054979279324  0.9759462213559117  1.0000
  H   H80       1.0  0.5555130897881496  0.23592655787942354  0.8856153721463541  1.0000
  H   H81       1.0  0.6857279910955042  0.319293998948325  0.835350928079734  1.0000
  H   H82       1.0  0.6878575869359551  0.36813212322890365  0.9264385553245376  1.0000
  H   H83       1.0  0.6541892424017134  0.6428626137143922  0.443699588246389  1.0000
  H   H84       1.0  0.3683095127742746  0.3414872294190019  0.5868626676438282  1.0000
  C   C1        1.0  0.5173174494292069  0.520440136353521  0.3491441721418482  1.0000
  C   C2        1.0  0.49085670789252595  0.47788414855475736  0.6538755394178748  1.0000
  C   C3        1.0  0.950726512713203  0.5882545726176361  0.3743945458588768  1.0000
  C   C4        1.0  0.04610505920629749  0.5151218043205361  0.6556728067302018  1.0000
  C   C5        1.0  0.523649170681466  0.5247402771546206  0.26068048700886937  1.0000
  C   C6        1.0  0.49868614901941305  0.4681775361642551  0.7417864776568877  1.0000
  C   C7        1.0  0.481587402315327  0.4652355356163014  0.21684979197154763  1.0000
  C   C8        1.0  0.4591672420178838  0.5260552603073947  0.7916401208158916  1.0000
  C   C9        1.0  0.49788983687182037  0.4655248996058319  0.1354436312757841  1.0000
  C   C10       1.0  0.48195279578690986  0.5236833852595807  0.8710596868722789  1.0000
  C   C11       1.0  0.5533331037018243  0.5245560570003747  0.09726050229380685  1.0000
  C   C12       1.0  0.5417708515227132  0.46428035778066606  0.901327164383339  1.0000
  C   C13       1.0  0.5932934458990146  0.5862960786467043  0.13988739338497416  1.0000
  C   C14       1.0  0.5790081828003864  0.40375417359436466  0.8529997585900233  1.0000
  C   C15       1.0  0.5771296040022875  0.5846249748645602  0.2219253039308171  1.0000
  C   C16       1.0  0.5558808413298593  0.4073277455113383  0.7733158268697479  1.0000
  C   C17       1.0  0.4420234590180385  0.23195296775016058  0.5441383165328801  1.0000
  C   C18       1.0  0.5772735848804658  0.757231631782112  0.4511753526805151  1.0000
  C   C19       1.0  0.4263138392823507  0.1470926682255254  0.5433098363542755  1.0000
  C   C20       1.0  0.5870671657717353  0.8431934542520524  0.4410957290725506  1.0000
  C   C21       1.0  0.48536865508258126  0.10285878040340886  0.4953316040347602  1.0000
  C   C22       1.0  0.5381675564890998  0.8906706959716998  0.4948201770718298  1.0000
  C   C23       1.0  0.6728279323630771  0.48956062286200813  0.5146479128037952  1.0000
  C   C24       1.0  0.3289691222177424  0.5043316087633514  0.4932488254741898  1.0000
  C   C25       1.0  0.5513487177428473  0.14297331301879984  0.44830993261830077  1.0000
  C   C26       1.0  0.4837419038262283  0.852582981033315  0.5544361111962031  1.0000
  C   C27       1.0  0.5540489778339507  0.23004464074136166  0.44505467481260996  1.0000
  C   C28       1.0  0.46809153286780963  0.7672190761023714  0.551960577777791  1.0000
  C   C29       1.0  0.1858949372616223  0.49681554203318257  0.5724946571114558  1.0000
  C   C30       1.0  0.8137937767605832  0.5266833731351355  0.44196565748502786  1.0000
  C   C31       1.0  0.22936517106562354  0.5122528313925937  0.4983016244734415  1.0000
  C   C32       1.0  0.770542110351009  0.5057718099678041  0.5150183602442624  1.0000
  C   C33       1.0  0.18491107494390488  0.543918292011476  0.4311221654463181  1.0000
  C   C34       1.0  0.8123679039872157  0.5073394465335994  0.5880363130042595  1.0000
  C   C35       1.0  0.0920276739670953  0.5542786730070117  0.43697456491567266  1.0000
  C   C36       1.0  0.9052304673943681  0.5171927721429128  0.5867848677743551  1.0000
  C   C37       1.0  0.0460961585657458  0.5376074015207523  0.5109176704818592  1.0000
  C   C38       1.0  0.9514505362874032  0.5368201103475556  0.5135454262890846  1.0000
  C   C39       1.0  0.09487997985979038  0.5175510898369068  0.580584035112679  1.0000
  C   C40       1.0  0.9030565702049386  0.5519869931556587  0.4427944778755517  1.0000
  C   C41       1.0  0.041564420982091094  0.5864283027214015  0.3720187175456573  1.0000
  C   C42       1.0  0.9552326658023206  0.5128996900161624  0.657126832778907  1.0000
  C   C43       1.0  0.23232398802613827  0.45274985192535416  0.6409419261252793  1.0000
  C   C44       1.0  0.1927675379237925  0.3670460696764479  0.6630134981677356  1.0000
  C   C45       1.0  0.21718367878743547  0.33446104848162866  0.7461556890225792  1.0000
  C   C46       1.0  0.7681610788922413  0.5175418558524426  0.36429760791808247  1.0000
  C   C47       1.0  0.8150825573265762  0.45523838048718096  0.3108357966359207  1.0000
  C   C48       1.0  0.794797174358024  0.4720671473820416  0.2233590360641529  1.0000
  C   C49       1.0  0.6443479307993129  0.8846598222502706  0.37742668154485404  1.0000
  C   C50       1.0  0.5949537735336533  0.9004087089873706  0.2992614260797239  1.0000
  C   C51       1.0  0.6526646381902808  0.9457211090905772  0.23602277322486023  1.0000
  C   C52       1.0  0.3499631429533779  0.1048557657152784  0.5868872008026071  1.0000
  C   C53       1.0  0.2750569911605041  0.0875633756499781  0.5299186091433796  1.0000
  C   C54       1.0  0.19861842754754377  0.041919592534121405  0.5727692177452468  1.0000
  C   C55       1.0  0.6118784950818538  0.0941742051751433  0.39700907424561643  1.0000
  C   C56       1.0  0.4530241872878237  0.8961699210858214  0.6261837479465554  1.0000
  C   C57       1.0  0.6134057706617497  0.2737976424341894  0.3846081119227378  1.0000
  C   C58       1.0  0.5833648210301516  0.2604308781106539  0.299755080619903  1.0000
  C   C59       1.0  0.6451645599296825  0.3010191250947045  0.23711422806830026  1.0000
  C   C60       1.0  0.3932492873254603  0.7290341774056444  0.600285141779338  1.0000
  C   C61       1.0  0.302832544156601  0.7592043106016247  0.5691629035008103  1.0000
  C   C62       1.0  0.2269029682034329  0.7153613248970955  0.6144208446873376  1.0000
  C   C63       1.0  0.23146245213864347  0.561972968873853  0.3522274867950159  1.0000
  C   C64       1.0  0.2098196791588975  0.5001876013011708  0.2893995736685184  1.0000
  C   C65       1.0  0.2417320903446765  0.5298142236206899  0.20638129342135866  1.0000
  C   C66       1.0  0.7604212494085303  0.5036962005867095  0.6654104959723169  1.0000
  C   C67       1.0  0.7453169704222091  0.5914977302123815  0.69432689889031  1.0000
  C   C68       1.0  0.7010019906586606  0.5928596430876424  0.7763935262874284  1.0000
  C   C69       1.0  0.9072620155306196  0.6407929676363082  0.31191341129655104  1.0000
  C   C70       1.0  0.0862704790621365  0.5298145035103657  0.732971970329352  1.0000
  C   C71       1.0  0.3910032094910036  0.5867929872264525  0.7641629926158655  1.0000
  C   C72       1.0  0.41441416228460776  0.40727914082587086  0.2522651588627625  1.0000
  C   C73       1.0  0.6535527984781311  0.6496363141686526  0.0997538081511991  1.0000
  C   C74       1.0  0.6204131490837739  0.7388853060693492  0.10650926982844308  1.0000
  C   C75       1.0  0.6845235615775421  0.8011120466640802  0.06655747523834071  1.0000
  C   C76       1.0  0.6437673298637775  0.340100758766809  0.8848133160479817  1.0000
  C   C77       1.0  0.5991198404283012  0.26471420458861417  0.927241987767644  1.0000
  C   C78       1.0  0.6670167559912059  0.20198043111222563  0.9592824982044232  1.0000
  C   C79       1.0  0.6388375186834524  0.7004865890983041  0.4087803064268981  1.0000
  C   C80       1.0  0.39759891503191364  0.28154451665514557  0.6068531060670705  1.0000
  N   N1        1.0  0.5602544707892959  0.5288323147253563  0.013925301804618989  1.0000
  N   N2        1.0  0.5589357372371211  0.4595345492514226  0.9829759446032467  1.0000
  N   N3        1.0  0.4998912201079762  0.2728348248122572  0.49345157438250437  1.0000
  N   N4        1.0  0.5176101284557005  0.7205942243642552  0.503536032829949  1.0000
  N   N5        1.0  0.4756027420814418  0.016429033525568598  0.4985313882749196  1.0000
  N   N6        1.0  0.5466832265744231  0.9769333668605213  0.4881476644129492  1.0000
  O   O1        1.0  0.5174462056240046  0.5873836966146868  0.384855339832761  1.0000
  O   O2        1.0  0.5039119121846908  0.41386058364070516  0.6143989975425512  1.0000
  O   O3        1.0  0.5143203016347684  0.4478145975186152  0.3818993172162876  1.0000
  O   O4        1.0  0.4754430852755433  0.5504260843638491  0.6250441109538725  1.0000
  O   O5        1.0  0.6249711453080735  0.5530320131487086  0.5275300915590293  1.0000
  O   O6        1.0  0.3659368952992423  0.4338536181675962  0.491071891919546  1.0000
  O   O7        1.0  0.6450987697189703  0.4185723265994311  0.5012439558838365  1.0000
  O   O8        1.0  0.36806967871658003  0.5736272395330887  0.4921642070558789  1.0000
  O   O9        1.0  0.6921277105429624  0.10207884033872719  0.3919578155226162  1.0000
  O   O10       1.0  0.49914576033864216  0.9456615620802322  0.6577502230304475  1.0000
  O   O11       1.0  0.9393590612970825  0.6571064244635281  0.24550057031071046  1.0000
  O   O12       1.0  0.055180016298884006  0.5058363248524032  0.7977634319367509  1.0000
  O   O13       1.0  0.3742858676466767  0.650991231639658  0.797046210185691  1.0000
  O   O14       1.0  0.3860423070240556  0.34883188845783036  0.21764392332757856  1.0000
  O   O15       1.0  0.6743240896118864  0.7172157941635289  0.34391307766509266  1.0000
  O   O16       1.0  0.39534892601112387  0.2551847380636048  0.6759298624849774  1.0000
