data_image0
_chemical_formula_structural       K2H20C22S2N2O10
_chemical_formula_sum              "K2 H20 C22 S2 N2 O10"
_cell_length_a       7.823089012836576
_cell_length_b       8.081658488380258
_cell_length_c       11.25435601121943
_cell_angle_alpha    96.79721995996802
_cell_angle_beta     105.23917625348685
_cell_angle_gamma    114.66292555631088

_space_group_name_H-M_alt    "P 1"
_space_group_IT_number       1

loop_
  _space_group_symop_operation_xyz
  'x, y, z'

loop_
  _atom_site_type_symbol
  _atom_site_label
  _atom_site_symmetry_multiplicity
  _atom_site_fract_x
  _atom_site_fract_y
  _atom_site_fract_z
  _atom_site_occupancy
  K   K1        1.0  0.47446525222441965  0.24677766843309704  0.5061444417003857  1.0000
  K   K2        1.0  0.5255337896851063  0.7532293498028084  0.4938556842004689  1.0000
  H   H1        1.0  0.2583175769057747  0.5292340116779785  0.10756170434041938  1.0000
  H   H2        1.0  0.7416784288465053  0.47076453271479585  0.8924362175270134  1.0000
  H   H3        1.0  0.5456387131592493  0.8450777586094063  0.179817988397737  1.0000
  H   H4        1.0  0.45435476625269194  0.1549208091113385  0.8201821879322538  1.0000
  H   H5        1.0  0.7001231448211345  0.9887484536830443  0.026199692836385763  1.0000
  H   H6        1.0  0.2998754354639034  0.011247204577614396  0.9738001509162192  1.0000
  H   H7        1.0  0.5691109346036782  0.8038392629048728  0.7989821382014529  1.0000
  H   H8        1.0  0.4308910843465982  0.19616061117974232  0.20101778728169967  1.0000
  H   H9        1.0  0.8510278852627666  0.22163275407471866  0.25972067149901795  1.0000
  H   H10       1.0  0.148973572721161  0.7783685440379814  0.740280188148681  1.0000
  H   H11       1.0  0.8901696622147456  0.017747336520500305  0.25992490213902647  1.0000
  H   H12       1.0  0.10982463994731262  0.9822526267567254  0.7400782104077666  1.0000
  H   H13       1.0  0.0774000738231919  0.23027273084286287  0.24409015988050706  1.0000
  H   H14       1.0  0.9226013083365886  0.7697228656724205  0.7559145820576065  1.0000
  H   H15       1.0  0.12665554955947303  0.2171915775921534  0.03245785864622522  1.0000
  H   H16       1.0  0.8733387004266152  0.782798478892417  0.9675371789970061  1.0000
  H   H17       1.0  0.8888575125506152  0.0715029692219389  0.9104462691026358  1.0000
  H   H18       1.0  0.11113951180895752  0.9284927415211965  0.08954710219266812  1.0000
  H   H19       1.0  0.9332659526302932  0.28756732427401493  0.006935488968323982  1.0000
  H   H20       1.0  0.06673103728747519  0.7124283912712954  0.9930569882459681  1.0000
  C   C1        1.0  0.24513118460327388  0.48758473333816005  0.910456201979294  1.0000
  C   C2        1.0  0.7548688689730128  0.5124137400463411  0.08954504380186284  1.0000
  C   C3        1.0  0.3254030402361679  0.5875553480187748  0.039243763911663634  1.0000
  C   C4        1.0  0.6745906832253754  0.4124361276917057  0.9607531019771262  1.0000
  C   C5        1.0  0.48929179624850877  0.7663770135367047  0.08039318451546516  1.0000
  C   C6        1.0  0.510709661735419  0.23362428457599546  0.9196076751322413  1.0000
  C   C7        1.0  0.5763690973410294  0.8462668184745824  0.9942051321408915  1.0000
  C   C8        1.0  0.4236308666604813  0.1537288113144726  0.005796713663961795  1.0000
  C   C9        1.0  0.5019153428427147  0.7448109333714967  0.8674760677203115  1.0000
  C   C10       1.0  0.49809128489791726  0.25518744567676077  0.13252624751201844  1.0000
  C   C11       1.0  0.3361986011547415  0.5641417996015291  0.8232814965301288  1.0000
  C   C12       1.0  0.6638092932263292  0.4358594233836256  0.17671685624470976  1.0000
  C   C13       1.0  0.2675614324364305  0.4568719337847327  0.6883771843729038  1.0000
  C   C14       1.0  0.7324368349154042  0.5431308260905467  0.3116241816588784  1.0000
  C   C15       1.0  0.06651073138660017  0.3053970009957822  0.6323614751846665  1.0000
  C   C16       1.0  0.9334916044804233  0.6946085410710199  0.3676408265751407  1.0000
  C   C17       1.0  0.9552756408779574  0.21559221555408206  0.4977345822294198  1.0000
  C   C18       1.0  0.04471839950033297  0.7844049281385779  0.5022646599360244  1.0000
  C   C19       1.0  0.9629810881590475  0.1722681900116214  0.2875919673780772  1.0000
  C   C20       1.0  0.037021787983150055  0.8277330748273073  0.7124117884028893  1.0000
  C   C21       1.0  0.0011362282594475908  0.21691602207592808  0.9605202202382659  1.0000
  C   C22       1.0  0.998862830357716  0.7830810797629653  0.03947361892105053  1.0000
  S   S1        1.0  0.9101978653031751  0.25234255153685586  0.7225077972193505  1.0000
  S   S2        1.0  0.08980189603107656  0.7476658766620546  0.2774925826552846  1.0000
  N   N1        1.0  0.07797039451686064  0.30841486426862025  0.8682155119034295  1.0000
  N   N2        1.0  0.9220312730748716  0.691579346635983  0.1317811432220708  1.0000
  O   O1        1.0  0.3885463795198093  0.5063325712775325  0.628079574637397  1.0000
  O   O2        1.0  0.6114589403284968  0.4936715378397452  0.3719168562522699  1.0000
  O   O3        1.0  0.768972568480919  0.1224766450918437  0.4509803679859133  1.0000
  O   O4        1.0  0.2310291168449795  0.8775274774075968  0.5490234679621369  1.0000
  O   O5        1.0  0.0714837772538175  0.2430079901897244  0.4234328380744615  1.0000
  O   O6        1.0  0.9285159082562873  0.7569947364117765  0.576571424090581  1.0000
  O   O7        1.0  0.7774884756672977  0.0516636992870758  0.6958737989454848  1.0000
  O   O8        1.0  0.22250574386053049  0.9483391315964766  0.3041242431725664  1.0000
  O   O9        1.0  0.8119879981787079  0.3716677040828101  0.7194803243316842  1.0000
  O   O10       1.0  0.1880186335454681  0.6283434445622547  0.2805258894564845  1.0000
