data_image0
_chemical_formula_structural       Mg6H45C78N15O18
_chemical_formula_sum              "Mg6 H45 C78 N15 O18"
_cell_length_a       6.806754199240089
_cell_length_b       41.57854788643907
_cell_length_c       41.577531782746405
_cell_angle_alpha    119.7069328948263
_cell_angle_beta     93.12732331975538
_cell_angle_gamma    93.12985275883537

_space_group_name_H-M_alt    "P 1"
_space_group_IT_number       1

loop_
  _space_group_symop_operation_xyz
  'x, y, z'

loop_
  _atom_site_type_symbol
  _atom_site_label
  _atom_site_symmetry_multiplicity
  _atom_site_fract_x
  _atom_site_fract_y
  _atom_site_fract_z
  _atom_site_occupancy
  Mg  Mg1       1.0  0.5416396646430001  0.638918676667103  0.3285789819996268  1.0000
  Mg  Mg2       1.0  0.2130740652925809  0.6714365284743167  0.31035438216149913  1.0000
  Mg  Mg3       1.0  0.9027398103747614  0.6896570531317394  0.36108938829293896  1.0000
  Mg  Mg4       1.0  0.3644635803294206  0.3606729723061903  0.6707459661676722  1.0000
  Mg  Mg5       1.0  0.6937585102146356  0.3292546045620525  0.6899139730494497  1.0000
  Mg  Mg6       1.0  0.003853101114145768  0.31007814388356536  0.6393260401298377  1.0000
  H   H1        1.0  0.5141518770385645  0.5228014433015887  0.017953483755270824  1.0000
  H   H2        1.0  0.49619250200479537  0.9820449203153809  0.5048370330522189  1.0000
  H   H3        1.0  0.9913466097685413  0.49515730064640456  0.477198624087528  1.0000
  H   H4        1.0  0.32153071847017856  0.5273363364555478  0.043253787068948744  1.0000
  H   H5        1.0  0.2782522865383114  0.9567490772331695  0.48407465476199  1.0000
  H   H6        1.0  0.7941814476698354  0.5159195077097678  0.47266525893959976  1.0000
  H   H7        1.0  0.49358906972695843  0.4905449366712561  0.9523209489006919  1.0000
  H   H8        1.0  0.5413779405452316  0.047671372620037296  0.5382123090315574  1.0000
  H   H9        1.0  0.0031073899205295635  0.46177933844994357  0.5094505728494667  1.0000
  H   H10       1.0  0.9423766948658638  0.4283179156644508  0.8926081022620737  1.0000
  H   H11       1.0  0.04981285750340448  0.10737665767888419  0.5356963163423245  1.0000
  H   H12       1.0  0.5140907266628572  0.4642972422997715  0.5716763246110688  1.0000
  H   H13       1.0  0.7854255503029606  0.4557761028779481  0.9519401365212019  1.0000
  H   H14       1.0  0.8335193663838181  0.048056905981681594  0.5038355499584171  1.0000
  H   H15       1.0  0.3296558781016756  0.49616881692898573  0.5442222602342  1.0000
  H   H16       1.0  0.0670498377256053  0.5613554150879453  0.04345427768045352  1.0000
  H   H17       1.0  0.023627190519682924  0.9565413485592842  0.5178927889020529  1.0000
  H   H18       1.0  0.5057694303686446  0.48209169418642966  0.4386341894036718  1.0000
  H   H19       1.0  0.8857703224761905  0.5859857024459316  0.10008203642403402  1.0000
  H   H20       1.0  0.7856477541272465  0.8999252595345336  0.48589839032908344  1.0000
  H   H21       1.0  0.2998168911847613  0.514096241563429  0.4140071322587176  1.0000
  H   H22       1.0  0.5950836457305329  0.4769586462713917  0.061033427922701826  1.0000
  H   H23       1.0  0.5340332480126619  0.938968212861262  0.4159168899341311  1.0000
  H   H24       1.0  0.1180987005529345  0.5840615622691911  0.5230340120941293  1.0000
  H   H25       1.0  0.7843116879491772  0.45145507225372933  0.005212847470950509  1.0000
  H   H26       1.0  0.7790895454461688  0.9947804761601161  0.4462382212077999  1.0000
  H   H27       1.0  0.3328563256158859  0.5537472693232033  0.5485270507318631  1.0000
  H   H28       1.0  0.3144069189658651  0.5619001339917062  0.15462538109231624  1.0000
  H   H29       1.0  0.15981306753742783  0.8453909216252029  0.4072661739787408  1.0000
  H   H30       1.0  0.7525235517217864  0.5927206780424257  0.43811126562260233  1.0000
  H   H31       1.0  0.18510644544974042  0.5898822004338912  0.2170593556292958  1.0000
  H   H32       1.0  0.968234411693551  0.7829457901325155  0.37281775320373384  1.0000
  H   H33       1.0  0.5953517078550021  0.6271686423116948  0.41012005825003683  1.0000
  H   H34       1.0  0.8876365292690591  0.6185318193163595  0.2066990405005882  1.0000
  H   H35       1.0  0.6809965715343012  0.7933193791768147  0.4118557149427745  1.0000
  H   H36       1.0  0.26916639958421473  0.5881501086554621  0.38146580903747923  1.0000
  H   H37       1.0  0.6146967538497279  0.43294413986166086  0.844759830588245  1.0000
  H   H38       1.0  0.7698271367980354  0.1552547974496008  0.5881866727887727  1.0000
  H   H39       1.0  0.1816845636175017  0.41181611413391284  0.5670532601052544  1.0000
  H   H40       1.0  0.7310549416221689  0.4071294951946314  0.7813260815704197  1.0000
  H   H41       1.0  0.9497844594890947  0.21866872772093163  0.625803588742464  1.0000
  H   H42       1.0  0.32383075938267325  0.37419539927087436  0.5928584205055359  1.0000
  H   H43       1.0  0.026959742909418986  0.38396194976252923  0.7951065439803244  1.0000
  H   H44       1.0  0.23176162006395623  0.20490141316670218  0.5888583485476744  1.0000
  H   H45       1.0  0.6429133427350351  0.4111444589759685  0.6160347906783629  1.0000
  C   C1        1.0  0.2511731274707643  0.49913790610853687  0.9867019507669569  1.0000
  C   C2        1.0  0.2645087128739476  0.013302297814945498  0.5124415627577932  1.0000
  C   C3        1.0  0.7520412712786637  0.487556854576198  0.5008528348172308  1.0000
  C   C4        1.0  0.3376878354076211  0.48319464393676265  0.9528038254276509  1.0000
  C   C5        1.0  0.3850084654429579  0.047194041525322895  0.5303781062620061  1.0000
  C   C6        1.0  0.8545558780608645  0.4696116521656677  0.5167992522249207  1.0000
  C   C7        1.0  0.2284023059540772  0.4580655913466174  0.9192191699252704  1.0000
  C   C8        1.0  0.3092764376380969  0.08077657782943957  0.5388416448406163  1.0000
  C   C9        1.0  0.770379954400873  0.46115359938757194  0.5419196721232638  1.0000
  C   C10       1.0  0.02718714483262365  0.447725520081633  0.9188365093259208  1.0000
  C   C11       1.0  0.10842295663923807  0.0811523842265061  0.5288846742866653  1.0000
  C   C12       1.0  0.5794962377769435  0.47111748971820305  0.5522660810394271  1.0000
  C   C13       1.0  0.9420062470205648  0.4631169590207733  0.9521029900413821  1.0000
  C   C14       1.0  0.9899252865323546  0.0478892308906467  0.511021899217269  1.0000
  C   C15       1.0  0.47891346261162937  0.48899790815062266  0.536884933025867  1.0000
  C   C16       1.0  0.04735826438661659  0.4890834729472219  0.9864292047054734  1.0000
  C   C17       1.0  0.06094792656329419  0.013569074920845001  0.502670228741998  1.0000
  C   C18       1.0  0.5582574127870571  0.4973379966437576  0.5109050416528547  1.0000
  C   C19       1.0  0.943075625830083  0.5042945745698899  0.020399272073632284  1.0000
  C   C20       1.0  0.922755498821104  0.9795881039525581  0.4838804721043319  1.0000
  C   C21       1.0  0.4388010189878314  0.5160961569045881  0.4956902563905247  1.0000
  C   C22       1.0  0.968679784905447  0.5424818151876776  0.04773772900630749  1.0000
  C   C23       1.0  0.9210210949134063  0.9522510924776242  0.4947273226025645  1.0000
  C   C24       1.0  0.4262926484187161  0.505251518893722  0.45750480034229923  1.0000
  C   C25       1.0  0.8665327966435896  0.556507807006568  0.07923942009305314  1.0000
  C   C26       1.0  0.7872145020593136  0.9207715673849463  0.47726868783861687  1.0000
  C   C27       1.0  0.31009091829924523  0.5227269763975215  0.44348632800645066  1.0000
  C   C28       1.0  0.7325504766071589  0.5327640461719909  0.08437934029043251  1.0000
  C   C29       1.0  0.648104512666684  0.9156277446892247  0.4483827411122903  1.0000
  C   C30       1.0  0.19983805616526945  0.5516024731346221  0.46723235939784763  1.0000
  C   C31       1.0  0.7004858379671431  0.49503598235914137  0.05693919395914552  1.0000
  C   C32       1.0  0.6435262601042594  0.9430604332949317  0.438088529507482  1.0000
  C   C33       1.0  0.2053648878606395  0.5618760756011624  0.5049524697570718  1.0000
  C   C34       1.0  0.8060059362308463  0.4810322588074385  0.025765836254152043  1.0000
  C   C35       1.0  0.7802717783021648  0.9742206620057559  0.4552540369324872  1.0000
  C   C36       1.0  0.3249406449322407  0.5447160275927274  0.5189490914108745  1.0000
  C   C37       1.0  0.6125769907986934  0.5879908419292336  0.1768288669077692  1.0000
  C   C38       1.0  0.43581884014557193  0.8231898398196477  0.4111710257695904  1.0000
  C   C39       1.0  0.02469448720774636  0.5888362299687273  0.4120318706701553  1.0000
  C   C40       1.0  0.4116664795458859  0.5800722824305211  0.17978709377243265  1.0000
  C   C41       1.0  0.23202024123603596  0.8202388755954645  0.40026262280832026  1.0000
  C   C42       1.0  0.8317282018614519  0.5997137153120278  0.41995371653924013  1.0000
  C   C43       1.0  0.3400285154262334  0.595501058896474  0.21443474590007844  1.0000
  C   C44       1.0  0.12583336004791323  0.7855878312717477  0.3810393252937345  1.0000
  C   C45       1.0  0.744692549635154  0.6189283653636437  0.4045230386333999  1.0000
  C   C46       1.0  0.46392271474023516  0.6183349960849185  0.24776844637968062  1.0000
  C   C47       1.0  0.21637432738562973  0.7522586539448994  0.37057419938857816  1.0000
  C   C48       1.0  0.8456937346376276  0.6294090999138149  0.3816716972137755  1.0000
  C   C49       1.0  0.6666091261841558  0.6265066493285757  0.2444269391202738  1.0000
  C   C50       1.0  0.42231563825308865  0.7555959667205342  0.382117222171054  1.0000
  C   C51       1.0  0.040135257441129085  0.6178774442935691  0.3734802171272734  1.0000
  C   C52       1.0  0.7339629221772055  0.6118994444796115  0.20908845390999178  1.0000
  C   C53       1.0  0.524944644173672  0.7909379241424118  0.40283927300979633  1.0000
  C   C54       1.0  0.12212488590170519  0.5971664089672544  0.3881069725012837  1.0000
  C   C55       1.0  0.8136562339531251  0.6487526366776635  0.276449423311064  1.0000
  C   C56       1.0  0.5372586063747988  0.7235646339499127  0.37234794086488426  1.0000
  C   C57       1.0  0.16492457931673954  0.6276693228356438  0.35123953399661206  1.0000
  C   C58       1.0  0.3106872627577815  0.41036403471537136  0.8238263594523545  1.0000
  C   C59       1.0  0.48671933691788627  0.17618180296130248  0.5865554507126235  1.0000
  C   C60       1.0  0.9001799469492224  0.4134506302250358  0.5896145717259884  1.0000
  C   C61       1.0  0.5122437880413669  0.4166204518957172  0.8198984539856369  1.0000
  C   C62       1.0  0.6922251498356147  0.1801165037127106  0.5967356425465128  1.0000
  C   C63       1.0  0.09547321138881407  0.4032690839119653  0.5833617315356605  1.0000
  C   C64       1.0  0.5765008450928731  0.40239651206983507  0.7848064220901207  1.0000
  C   C65       1.0  0.7917378937115486  0.21519951657695907  0.617603868731031  1.0000
  C   C66       1.0  0.1739631038467024  0.38239142702362017  0.5975718542154311  1.0000
  C   C67       1.0  0.4458388772995646  0.3817434042077679  0.7519542501316252  1.0000
  C   C68       1.0  0.6939131697242968  0.24804755620201743  0.6298036360700152  1.0000
  C   C69       1.0  0.06401438270548708  0.37020927545754734  0.6182456190409695  1.0000
  C   C70       1.0  0.2426955188300184  0.3748675894349063  0.7561048418674546  1.0000
  C   C71       1.0  0.48658791086099024  0.24389338108108663  0.6187826626291226  1.0000
  C   C72       1.0  0.8677903736677238  0.3812452585563548  0.6251276256193776  1.0000
  C   C73       1.0  0.1812872708779237  0.38919808122335536  0.7919165699299171  1.0000
  C   C74       1.0  0.38924320699435094  0.20809110732297853  0.5973084696488017  1.0000
  C   C75       1.0  0.7919755907965322  0.40270894244243755  0.610783963952045  1.0000
  C   C76       1.0  0.09192603986671338  0.35348381287276  0.7244739825479416  1.0000
  C   C77       1.0  0.3675332525804719  0.27553171625484646  0.6290198883027074  1.0000
  C   C78       1.0  0.738459087698132  0.37099442668271365  0.6465093654202647  1.0000
  N   N1        1.0  0.36614529192817  0.5242977317537267  0.019074589496632727  1.0000
  N   N2        1.0  0.3470665683844202  0.9809261883948747  0.5052186671420669  1.0000
  N   N3        1.0  0.8418393476773076  0.49477667700335104  0.4756988661296404  1.0000
  N   N4        1.0  0.6250588170934746  0.5449023429341365  0.11588082603450536  1.0000
  N   N5        1.0  0.509161545064792  0.8841247898915299  0.42901658706395573  1.0000
  N   N6        1.0  0.08022122165069581  0.5709723321910686  0.4551061135261776  1.0000
  N   N7        1.0  0.7098302816384531  0.573788193950094  0.14425912525072718  1.0000
  N   N8        1.0  0.5656081831849562  0.8557568763390363  0.4295355678232227  1.0000
  N   N9        1.0  0.13612653122329016  0.5704699087396321  0.4262250439838199  1.0000
  N   N10       1.0  0.3316398750020681  0.4447082101846291  0.8869606030784496  1.0000
  N   N11       1.0  0.44470383241432637  0.11304632060934948  0.557745373520028  1.0000
  N   N12       1.0  0.886928353963263  0.44225297616625164  0.5552850191927234  1.0000
  N   N13       1.0  0.22115365968917894  0.424030485757001  0.8571815886656324  1.0000
  N   N14       1.0  0.3639201681251051  0.14281734176680058  0.5668468036272998  1.0000
  N   N15       1.0  0.7970578404160448  0.4331525770848046  0.5759571387358166  1.0000
  O   O1        1.0  0.9868508562556284  0.6578027988143375  0.2718295838014839  1.0000
  O   O2        1.0  0.7150838538455344  0.7281805085754343  0.3860111856984077  1.0000
  O   O3        1.0  0.3291091104282628  0.6140115315663904  0.3421942430453697  1.0000
  O   O4        1.0  0.7641501667122765  0.6578355597340746  0.3093217927426934  1.0000
  O   O5        1.0  0.4548407702994407  0.6906966245580219  0.348555668918074  1.0000
  O   O6        1.0  0.10637026318955377  0.651475626190752  0.3421767597264207  1.0000
  O   O7        1.0  0.3886320399422941  0.6310316210084821  0.28056703635  1.0000
  O   O8        1.0  0.10825127887953553  0.7194585482517795  0.3504727291348858  1.0000
  O   O9        1.0  0.7577172720507404  0.6495138469786426  0.3689773575427325  1.0000
  O   O10       1.0  0.9184541350187698  0.3449557196990155  0.7294816755339966  1.0000
  O   O11       1.0  0.1890745047042799  0.2705228427974689  0.615471066828448  1.0000
  O   O12       1.0  0.5734974645465485  0.3845223139128109  0.6550412761713459  1.0000
  O   O13       1.0  0.13886558329268434  0.3440938188397737  0.6913584563003496  1.0000
  O   O14       1.0  0.447556024557059  0.3086503145841419  0.6527427431436763  1.0000
  O   O15       1.0  0.7948131475478275  0.3472662819454229  0.6558935487406785  1.0000
  O   O16       1.0  0.5169739189252238  0.36982525295129426  0.7188972658828023  1.0000
  O   O17       1.0  0.7980994297575207  0.2811074560388249  0.6509261147583275  1.0000
  O   O18       1.0  0.1471069787114629  0.3490854190157648  0.6301729307469799  1.0000
