data_image0
_chemical_formula_structural       Cd2H32C24S2N8O8
_chemical_formula_sum              "Cd2 H32 C24 S2 N8 O8"
_cell_length_a       5.821816985260695
_cell_length_b       11.028205843581016
_cell_length_c       13.07469707591799
_cell_angle_alpha    114.67651877648765
_cell_angle_beta     102.94807930829852
_cell_angle_gamma    89.97025579898586

_space_group_name_H-M_alt    "P 1"
_space_group_IT_number       1

loop_
  _space_group_symop_operation_xyz
  'x, y, z'

loop_
  _atom_site_type_symbol
  _atom_site_label
  _atom_site_symmetry_multiplicity
  _atom_site_fract_x
  _atom_site_fract_y
  _atom_site_fract_z
  _atom_site_occupancy
  Cd  Cd1       1.0  0.49999848333811053  0.9999940705148513  0.499995344275625  1.0000
  Cd  Cd2       1.0  0.4999981532193516  0.5000029893096496  0.5000061866880259  1.0000
  H   H1        1.0  0.6946361173775273  0.004490708472374602  0.9836783194832535  1.0000
  H   H2        1.0  0.21123619152007936  0.495576646945274  0.01630002064219128  1.0000
  H   H3        1.0  0.3054398137402075  0.9955556607200862  0.0163152054460056  1.0000
  H   H4        1.0  0.7887154680972657  0.5044161410429808  0.9837010995592482  1.0000
  H   H5        1.0  0.04041136326787861  0.15305309907556358  0.0012519935599045  1.0000
  H   H6        1.0  0.5386975895954863  0.3465948591418949  0.9990209833659024  1.0000
  H   H7        1.0  0.9596310368549794  0.8469830448503758  0.9987293407288932  1.0000
  H   H8        1.0  0.46126448101088613  0.6533977557796006  0.0010170770564740213  1.0000
  H   H9        1.0  0.019933873074002403  0.2467109482697437  0.8571369065549064  1.0000
  H   H10       1.0  0.6619941474098425  0.2525902979487853  0.1428298343044787  1.0000
  H   H11       1.0  0.9800945710720586  0.7533160521618993  0.14283610095322524  1.0000
  H   H12       1.0  0.33798470528677166  0.7474165923456652  0.857178799190997  1.0000
  H   H13       1.0  0.32805404406801847  0.9582133086429035  0.8261559170218932  1.0000
  H   H14       1.0  0.001806671574165418  0.5419166573103738  0.17361524080396862  1.0000
  H   H15       1.0  0.67202076128563  0.04180739464380419  0.1738471532604677  1.0000
  H   H16       1.0  0.998139522693059  0.4580753726128889  0.8263965474008688  1.0000
  H   H17       1.0  0.8130433486618928  0.23012361073592302  0.6665611171806631  1.0000
  H   H18       1.0  0.6458551844701502  0.26948229404830215  0.3335922179770492  1.0000
  H   H19       1.0  0.18695486019038304  0.7698724715580098  0.33340908031392047  1.0000
  H   H20       1.0  0.35414055839616765  0.7305108001631453  0.6664226157171529  1.0000
  H   H21       1.0  0.5355699832141099  0.26477149859615406  0.66640942769223  1.0000
  H   H22       1.0  0.36825885631724015  0.23505918697929215  0.33349138602269324  1.0000
  H   H23       1.0  0.4644299902383437  0.7352246906238519  0.3335655730815077  1.0000
  H   H24       1.0  0.6317032094567665  0.764933067757397  0.6665304878908955  1.0000
  H   H25       1.0  0.1944263603576175  0.1098687479266118  0.6384081761257789  1.0000
  H   H26       1.0  0.0557184229156178  0.39038929465020533  0.3613264590827896  1.0000
  H   H27       1.0  0.8055848904363003  0.8901221700272257  0.3615982989931438  1.0000
  H   H28       1.0  0.9442954872745305  0.6096066780803467  0.6386835266782356  1.0000
  H   H29       1.0  0.15702476582190175  0.9636041849688796  0.6460496214426996  1.0000
  H   H30       1.0  0.011593199028169474  0.5367900414099437  0.3537407586061718  1.0000
  H   H31       1.0  0.8430114987375179  0.0363786639853672  0.3539520425829821  1.0000
  H   H32       1.0  0.9884106142285419  0.4631889622113193  0.6462670498967995  1.0000
  C   C1        1.0  0.6862994497019701  0.0485116738773357  0.9224092299970367  1.0000
  C   C2        1.0  0.2638095208814947  0.4515113287378156  0.0775852747202137  1.0000
  C   C3        1.0  0.3137443867888621  0.9515327365034378  0.07758576010956372  1.0000
  C   C4        1.0  0.7361692781494825  0.5484757095797193  0.9224258033037245  1.0000
  C   C5        1.0  0.6635826756918846  0.15816250940034848  0.7628214100937214  1.0000
  C   C6        1.0  0.4000976111258865  0.3414118308271412  0.23701483437779564  1.0000
  C   C7        1.0  0.33644430916530155  0.8418465901661776  0.237152267225106  1.0000
  C   C8        1.0  0.5998527660447552  0.658563888070873  0.7629796058744986  1.0000
  C   C9        1.0  0.8802176361529348  0.13037842039938136  0.9317611662584825  1.0000
  C   C10       1.0  0.44816453390976824  0.36944213389655545  0.06842961966842863  1.0000
  C   C11       1.0  0.11981104632476296  0.8696698469404108  0.06822825368985953  1.0000
  C   C12       1.0  0.5518107421338884  0.6305451536635827  0.9315926630227694  1.0000
  C   C13       1.0  0.8676917871766535  0.1849044758123384  0.851777517671458  1.0000
  C   C14       1.0  0.5153106119331028  0.31460487153712074  0.1482343190299531  1.0000
  C   C15       1.0  0.1323324428610277  0.8151285837746015  0.14819941511692747  1.0000
  C   C16       1.0  0.4846494791225809  0.6853760382637403  0.8517697416168346  1.0000
  C   C17       1.0  0.4678891177418124  0.0747765870247079  0.7529650205466183  1.0000
  C   C18       1.0  0.21443219377869135  0.42497911007875194  0.2466697763088774  1.0000
  C   C19       1.0  0.5321547850383439  0.9252287110538974  0.24701671785123122  1.0000
  C   C20       1.0  0.7855102398599101  0.5749919536339333  0.7533391164814063  1.0000
  C   C21       1.0  0.48068787577062017  0.0219998886219628  0.8342269528789786  1.0000
  C   C22       1.0  0.14613336157589174  0.47793737980295253  0.1654873187044004  1.0000
  C   C23       1.0  0.5193692946266282  0.9780205686835328  0.16576508234612652  1.0000
  C   C24       1.0  0.853817378713714  0.5220407058627785  0.8345240242596716  1.0000
  S   S1        1.0  0.8565700846707143  0.7497894549979661  0.49976633618511807  1.0000
  S   S2        1.0  0.14341842341293193  0.25020241403760224  0.5002381757245331  1.0000
  N   N1        1.0  0.6527599212248135  0.19617114561795998  0.6704411258924239  1.0000
  N   N2        1.0  0.4816569573993875  0.3035059969264964  0.3295097748231726  1.0000
  N   N3        1.0  0.3472428891563838  0.8038309816086127  0.3295323481219796  1.0000
  N   N4        1.0  0.5183218714558676  0.6964911903510467  0.6705101011562603  1.0000
  N   N5        1.0  0.28012620545541017  0.03396552543669879  0.6524390044238899  1.0000
  N   N6        1.0  0.12760467195982983  0.4660270022347108  0.3471792866054173  1.0000
  N   N7        1.0  0.7199012384042334  0.9660169604037281  0.34754635106731513  1.0000
  N   N8        1.0  0.8723824045882155  0.5339569605308369  0.6528277559952116  1.0000
  O   O1        1.0  0.9596473539381166  0.7809850544619222  0.4183064353446396  1.0000
  O   O2        1.0  0.04135228070716582  0.7177165180673271  0.5807287253877647  1.0000
  O   O3        1.0  0.0403462674221018  0.21900602915048487  0.5817075035842052  1.0000
  O   O4        1.0  0.9586212850922848  0.2822905659986219  0.4192886218542  1.0000
  O   O5        1.0  0.7466159959305685  0.8682420129132281  0.5723781734935685  1.0000
  O   O6        1.0  0.6717645701596453  0.6322574900707777  0.42760628821066143  1.0000
  O   O7        1.0  0.2533414325073054  0.13173360198771178  0.427611585505268  1.0000
  O   O8        1.0  0.3282579473905614  0.3677273676406331  0.5723962050913372  1.0000
