data_image0
_chemical_formula_structural       Zn8H40C88O58
_chemical_formula_sum              "Zn8 H40 C88 O58"
_cell_length_a       23.66991559440757
_cell_length_b       23.671918601231372
_cell_length_c       23.670364677141823
_cell_angle_alpha    65.6718879687461
_cell_angle_beta     72.90866427912488
_cell_angle_gamma    107.10131729036237

_space_group_name_H-M_alt    "P 1"
_space_group_IT_number       1

loop_
  _space_group_symop_operation_xyz
  'x, y, z'

loop_
  _atom_site_type_symbol
  _atom_site_label
  _atom_site_symmetry_multiplicity
  _atom_site_fract_x
  _atom_site_fract_y
  _atom_site_fract_z
  _atom_site_occupancy
  Zn  Zn1       1.0  0.0580989575157105  0.9579542289856279  0.4855902354426718  1.0000
  Zn  Zn2       1.0  0.05810786572619971  0.10013688092520573  0.4563262037933385  1.0000
  Zn  Zn3       1.0  0.9418868174165875  0.9855749261832187  0.4579591762203921  1.0000
  Zn  Zn4       1.0  0.9418912378675514  0.9563226740196953  0.6001395220663002  1.0000
  Zn  Zn5       1.0  0.9435356105408912  0.5436782154839647  0.014423036848008013  1.0000
  Zn  Zn6       1.0  0.05646694626206272  0.5144267500710669  0.043688570142109036  1.0000
  Zn  Zn7       1.0  0.9435333496913286  0.39986136668915856  0.04203956041723701  1.0000
  Zn  Zn8       1.0  0.05645766301169886  0.5420342674483862  0.8998646028299506  1.0000
  H   H1        1.0  0.915758127095664  0.7076252381042777  0.18457998144792495  1.0000
  H   H2        1.0  0.08423806941890889  0.6845819335810363  0.20765193715174493  1.0000
  H   H3        1.0  0.9554249242927993  0.8607849875149969  0.25115013632218103  1.0000
  H   H4        1.0  0.04453630990442995  0.7511023075440307  0.3608483623354814  1.0000
  H   H5        1.0  0.08425460202010976  0.39964115634095526  0.7081560553273151  1.0000
  H   H6        1.0  0.9157629228002971  0.20814064940498855  0.8996477996380821  1.0000
  H   H7        1.0  0.04450350276622571  0.2934133500015292  0.5946488247151079  1.0000
  H   H8        1.0  0.9554617330536387  0.09463813694468114  0.7934245793958399  1.0000
  H   H9        1.0  0.6119305380449093  0.40536532636599537  0.1391487399737413  1.0000
  H   H10       1.0  0.6119449661334855  0.2065897429858127  0.2488647738360541  1.0000
  H   H11       1.0  0.39222240397061364  0.2918398033241232  0.2923559704545298  1.0000
  H   H12       1.0  0.3922042481096213  0.10033177199623819  0.3153570207402653  1.0000
  H   H13       1.0  0.3880754556179937  0.6391544126847961  0.905377608359487  1.0000
  H   H14       1.0  0.3880356201433982  0.7488379978604484  0.7066044315207309  1.0000
  H   H15       1.0  0.607777992218466  0.7923313253055896  0.7918523352338696  1.0000
  H   H16       1.0  0.6077741967621506  0.8153857533353988  0.6003210884342424  1.0000
  H   H17       1.0  0.8359687144927507  0.7354073927391341  0.814678495839388  1.0000
  H   H18       1.0  0.050081407917822715  0.6506904946180185  0.6852716304528386  1.0000
  H   H19       1.0  0.9499092651737725  0.7645996560558432  0.8994276068727133  1.0000
  H   H20       1.0  0.1640393487490643  0.8493400650282724  0.6006149918906374  1.0000
  H   H21       1.0  0.8359813685694916  0.10060715236330252  0.34930487760824047  1.0000
  H   H22       1.0  0.050071404958018255  0.3993823866550558  0.26465051053798316  1.0000
  H   H23       1.0  0.9499036898976881  0.1853041787851808  0.15064696417698542  1.0000
  H   H24       1.0  0.1640540323382567  0.31471207098231707  0.23538322990881264  1.0000
  H   H25       1.0  0.9095756987997063  0.6163388157042392  0.09930799574755167  1.0000
  H   H26       1.0  0.09040951721885182  0.5992894237214088  0.1163855324255608  1.0000
  H   H27       1.0  0.9549460582986029  0.9542799641282758  0.333675674570145  1.0000
  H   H28       1.0  0.04497945957366053  0.8336000306154289  0.4543766913256135  1.0000
  H   H29       1.0  0.09044680213542475  0.49109024031702825  0.793260593683094  1.0000
  H   H30       1.0  0.909594123220721  0.2932383871701633  0.9911086590446773  1.0000
  H   H31       1.0  0.04497015082437633  0.21136988847543145  0.5006667957978905  1.0000
  H   H32       1.0  0.9549912184757972  0.0006739520074816577  0.7113659249555652  1.0000
  H   H33       1.0  0.7879533754812157  0.49933412118748793  0.045664937712046993  1.0000
  H   H34       1.0  0.7879690640033558  0.28863956333453444  0.16637545162685546  1.0000
  H   H35       1.0  0.21566746521811803  0.2067545094942673  0.3836377661618827  1.0000
  H   H36       1.0  0.21564764835434858  0.008886978449737607  0.40065071079873604  1.0000
  H   H37       1.0  0.2120533582731524  0.5456762494353882  0.9993572468969562  1.0000
  H   H38       1.0  0.21201466565179314  0.6663556260947703  0.7886590754638476  1.0000
  H   H39       1.0  0.784337024901539  0.8836284385855179  0.7067649925926746  1.0000
  H   H40       1.0  0.7843342882955614  0.9006975871851638  0.5088723582664939  1.0000
  C   C1        1.0  0.1852649405624121  0.09261914092348178  0.40735889002672104  1.0000
  C   C2        1.0  5.094279529824359e-06  0.13732342737312564  0.36264241967870703  1.0000
  C   C3        1.0  0.9999656809120836  0.9093712713597031  0.40943733394832527  1.0000
  C   C4        1.0  0.8147255309979827  0.9073667089129389  0.592621317932803  1.0000
  C   C5        1.0  1.2779794353502732e-05  0.8626776525208089  0.6373463292139263  1.0000
  C   C6        1.0  0.9999886225532394  0.09059944022479996  0.5905977464118095  1.0000
  C   C7        1.0  0.9999975442419212  0.5926249252700657  0.0926458076120158  1.0000
  C   C8        1.0  2.5395175100554885e-05  0.3626759712182519  0.1373288817641694  1.0000
  C   C9        1.0  0.8188009039335638  0.40940781031245865  0.09059873809569316  1.0000
  C   C10       1.0  9.315941291289915e-06  0.407364255597905  0.9073759122608323  1.0000
  C   C11       1.0  0.999985166063439  0.6373235286747985  0.8626630646708616  1.0000
  C   C12       1.0  0.18119245610937185  0.5906010229608115  0.9094275203599835  1.0000
  C   C13       1.0  3.4948649910565318e-06  0.8044131688368238  0.695602984285799  1.0000
  C   C14       1.0  0.9999908824642318  0.6955854896761551  0.8044072241550284  1.0000
  C   C15       1.0  0.9574135967357692  0.7781277481417849  0.7660818035718364  1.0000
  C   C16       1.0  0.04419744386367324  0.7234880936468073  0.7339280540048139  1.0000
  C   C17       1.0  0.9557900124344128  0.7218659216304032  0.82071687311435  1.0000
  C   C18       1.0  0.042587855976158585  0.7765172962039132  0.6792929366311214  1.0000
  C   C19       1.0  1.541474589568343e-05  0.1955905073920547  0.30438778763615915  1.0000
  C   C20       1.0  1.6198133366263067e-05  0.3044094766009523  0.19558463259537007  1.0000
  C   C21       1.0  0.9574228619078654  0.17929267242222838  0.2764857298754535  1.0000
  C   C22       1.0  0.04421665765506327  0.320707583513979  0.22187846143558693  1.0000
  C   C23       1.0  0.9558105768944074  0.2339372186568128  0.2234679870299274  1.0000
  C   C24       1.0  0.042598129629624275  0.2660625678176558  0.2781271574974796  1.0000
  C   C25       1.0  0.9999966779862672  0.629029562554038  0.12905195862362714  1.0000
  C   C26       1.0  0.9517091838454801  0.6535258354634125  0.14177161876482808  1.0000
  C   C27       1.0  0.952548208821007  0.6891595501935869  0.17609586513138697  1.0000
  C   C28       1.0  2.9042723764596212e-08  0.7001018389486264  0.20011155253215662  1.0000
  C   C29       1.0  0.047451982098458204  0.6760945019297538  0.18917527103472756  1.0000
  C   C30       1.0  0.04828225593811192  0.6417577215382265  0.1535536026743572  1.0000
  C   C31       1.0  0.9999999050613512  0.7356937576220447  0.2357018976087202  1.0000
  C   C32       1.0  0.9999973342135605  0.7663554968436588  0.26637376702984  1.0000
  C   C33       1.0  0.9999772980914299  0.8019403456125573  0.3020008271531651  1.0000
  C   C34       1.0  0.9747753752249081  0.8501954474403418  0.2886356139507599  1.0000
  C   C35       1.0  0.9750284575384782  0.8858766712435512  0.3229534908992804  1.0000
  C   C36       1.0  0.9999589971970197  0.8730074570790408  0.37309511104972864  1.0000
  C   C37       1.0  0.024895060619570607  0.8228747205312318  0.38597022574783335  1.0000
  C   C38       1.0  0.02516943344112118  0.7885719311363389  0.35027109484556024  1.0000
  C   C39       1.0  1.6591480743982377e-05  0.37095491588033275  0.8709743970566278  1.0000
  C   C40       1.0  0.048304913128170306  0.4065035091202632  0.7982010670550467  1.0000
  C   C41       1.0  0.04746458579408134  0.3713426475508967  0.7634070346568153  1.0000
  C   C42       1.0  6.787118230962053e-06  0.299888962583168  0.7999049210277606  1.0000
  C   C43       1.0  0.9525532174056008  0.2633891945086901  0.8713554617585259  1.0000
  C   C44       1.0  0.951723048936053  0.29817686634405777  0.9065259310911173  1.0000
  C   C45       1.0  2.7272558754092057e-06  0.26430811253042924  0.7643142691242205  1.0000
  C   C46       1.0  0.9999910453694197  0.23362999095990494  0.7336413897122966  1.0000
  C   C47       1.0  0.9999768950358998  0.1980275675984374  0.6980396407755692  1.0000
  C   C48       1.0  0.025152859062117703  0.23658336244361067  0.6245851891011825  1.0000
  C   C49       1.0  0.024891503324965862  0.20201145995289949  0.5891543697650407  1.0000
  C   C50       1.0  0.9999772214734575  0.12695084654135497  0.6269520585525685  1.0000
  C   C51       1.0  0.9750600807042742  0.08915176588789832  0.7020138114804837  1.0000
  C   C52       1.0  0.9748013121988989  0.12457515616098654  0.7365950896345339  1.0000
  C   C53       1.0  0.7460969309946178  0.3730540399778731  0.12694287617325978  1.0000
  C   C54       1.0  0.7088309049694671  0.4108538580199905  0.11405822113200516  1.0000
  C   C55       1.0  0.6388257625271193  0.37542809958270595  0.14973795737380163  1.0000
  C   C56       1.0  0.6039344591418258  0.30197550026620235  0.19801299086331886  1.0000
  C   C57       1.0  0.6388355685179122  0.26342049926104494  0.21138599572951475  1.0000
  C   C58       1.0  0.7088367677177912  0.29799403405868935  0.17708069008503463  1.0000
  C   C59       1.0  0.5327274683052179  0.2663671867567173  0.2336214290996068  1.0000
  C   C60       1.0  0.4713859767198939  0.23568101284029552  0.2642834375837849  1.0000
  C   C61       1.0  0.4002097355952968  0.20008476838071942  0.29986262940891345  1.0000
  C   C62       1.0  0.365261770898563  0.23658891500933518  0.31082396588715977  1.0000
  C   C63       1.0  0.2953055475135713  0.20180388107262107  0.34644548149232424  1.0000
  C   C64       1.0  0.25807620866648756  0.1290278089257271  0.37093145948499995  1.0000
  C   C65       1.0  0.29529569854564386  0.09347228511235534  0.3581864385083761  1.0000
  C   C66       1.0  0.36525387345039917  0.1286332995951796  0.3238527987138938  1.0000
  C   C67       1.0  0.2538962734782188  0.6269426152802636  0.8730735583922424  1.0000
  C   C68       1.0  0.29116923533031513  0.6140630646236359  0.9108728723306997  1.0000
  C   C69       1.0  0.36117264465827487  0.64973755723625  0.8754422020591619  1.0000
  C   C70       1.0  0.3960583024116743  0.6979997776292352  0.8019889698798721  1.0000
  C   C71       1.0  0.36115033605074126  0.7113658545899997  0.763434582533769  1.0000
  C   C72       1.0  0.29115079892106605  0.6770684735458019  0.7980106707957689  1.0000
  C   C73       1.0  0.4672679805449179  0.7336097936232734  0.7663735510790843  1.0000
  C   C74       1.0  0.5286046457690006  0.7642751056388591  0.7356812675650701  1.0000
  C   C75       1.0  0.5997839695508417  0.7998640998103711  0.7000812700110899  1.0000
  C   C76       1.0  0.6347356604230684  0.8108150048579574  0.7365946502868966  1.0000
  C   C77       1.0  0.7046922244637697  0.8464452447629823  0.7018071456131096  1.0000
  C   C78       1.0  0.7419137769644379  0.8709483098649218  0.6290245155272274  1.0000
  C   C79       1.0  0.7046922923257027  0.8582193634365468  0.5934593095836789  1.0000
  C   C80       1.0  0.6347312174936377  0.8238776976637255  0.6286227337330957  1.0000
  C   C81       1.0  0.9185432832852173  0.8143928607627802  0.7838617602115434  1.0000
  C   C82       1.0  0.09823311936324346  0.7023845088474377  0.7161529449133681  1.0000
  C   C83       1.0  0.9017494691589149  0.6855999017750138  0.8958507303965677  1.0000
  C   C84       1.0  0.0814736323980372  0.7976265956444596  0.604153358104071  1.0000
  C   C85       1.0  0.9185408318306045  0.10416458135411942  0.2975730057087419  1.0000
  C   C86       1.0  0.0982497273848537  0.39583571918215915  0.1856426711891928  1.0000
  C   C87       1.0  0.9017671544302956  0.21617439990788498  0.20235847855414604  1.0000
  C   C88       1.0  0.08147566715036456  0.283828255222737  0.31440110301406327  1.0000
  O   O1        1.0  0.9999956500217874  0.9999973684861343  0.5000030695096598  1.0000
  O   O2        1.0  0.15348904934270988  0.028379380470731498  0.42425597549027577  1.0000
  O   O3        1.0  0.052840295112957805  0.15257241601499774  0.3693622829324569  1.0000
  O   O4        1.0  0.9746281184572322  0.952306074800127  0.3984219611638411  1.0000
  O   O5        1.0  0.15350096379869882  0.12509187101279204  0.4222559251130775  1.0000
  O   O6        1.0  0.025320710684923024  0.8983748401133625  0.45236878754612786  1.0000
  O   O7        1.0  0.9471822901643135  0.0777969775289193  0.40019581810943805  1.0000
  O   O8        1.0  0.8464940317341102  0.9242713677689308  0.5283779332844392  1.0000
  O   O9        1.0  0.9471817255620965  0.869392690074726  0.6526035540639298  1.0000
  O   O10       1.0  0.8464955565991655  0.9222437565306336  0.6251026578115814  1.0000
  O   O11       1.0  0.052835314598169675  0.9002449249237615  0.5778177148542268  1.0000
  O   O12       1.0  0.02533926157939698  0.1269458845935176  0.522321336109009  1.0000
  O   O13       1.0  0.9746507815706947  0.022328254346895306  0.6269415249190544  1.0000
  O   O14       1.0  4.907543599186507e-07  0.5000004152371178  3.394365016565138e-06  1.0000
  O   O15       1.0  0.9526485560169036  0.5777519689911942  0.07574261091630761  1.0000
  O   O16       1.0  0.021992779953343644  0.4222025590422334  0.13062724120751307  1.0000
  O   O17       1.0  0.8507343607451361  0.37306210263747625  0.10160460010470022  1.0000
  O   O18       1.0  0.047350759154362244  0.5757369313180973  0.07777080061894276  1.0000
  O   O19       1.0  0.8507248404835933  0.47767862140737793  0.047670724041090316  1.0000
  O   O20       1.0  0.9780540712778818  0.3474216305310805  0.09974788850087175  1.0000
  O   O21       1.0  0.9526410731194161  0.37489955395110297  0.9716081739259156  1.0000
  O   O22       1.0  0.02195268826298506  0.5997510143770982  0.8473997586650769  1.0000
  O   O23       1.0  0.04736271634383372  0.471601538922549  0.8749101822379759  1.0000
  O   O24       1.0  0.9780210747193007  0.6306091716332531  0.922197738426213  1.0000
  O   O25       1.0  0.14927438186930425  0.5476777837275577  0.977698768364256  1.0000
  O   O26       1.0  0.14925604522789374  0.6016062651510765  0.8730801808622958  1.0000
  O   O27       1.0  0.8509845629682287  0.7796264115082535  0.8127505462633879  1.0000
  O   O28       1.0  0.947051948924539  0.8707605297709478  0.7765946350205439  1.0000
  O   O29       1.0  0.09236340321773173  0.663749717163256  0.6872262114036617  1.0000
  O   O30       1.0  0.1473251671477058  0.7235893326727806  0.723452391487271  1.0000
  O   O31       1.0  0.9076251044038127  0.7203747052149507  0.9286366899183491  1.0000
  O   O32       1.0  0.8526540259077321  0.6292259137186207  0.9237157601492851  1.0000
  O   O33       1.0  0.14903405716385978  0.8362787187239819  0.5713905912732428  1.0000
  O   O34       1.0  0.05297803033123216  0.776411835382099  0.5762664484548098  1.0000
  O   O35       1.0  0.8509816216771994  0.07139725921473428  0.33621781398281314  1.0000
  O   O36       1.0  0.9470339048515868  0.0762908208785546  0.2763439025969632  1.0000
  O   O37       1.0  0.09236758235333303  0.42859448839288916  0.22044327896401944  1.0000
  O   O38       1.0  0.14735358905390675  0.4237170551789191  0.12927440579138497  1.0000
  O   O39       1.0  0.9076246566504196  0.1872620679404591  0.16370842850759706  1.0000
  O   O40       1.0  0.852682482526248  0.22347425695260623  0.2235700259761302  1.0000
  O   O41       1.0  0.14903866116856784  0.31274761018138963  0.2796227108303739  1.0000
  O   O42       1.0  0.05297098202005658  0.2765262906985698  0.3707871054614671  1.0000
  O   O43       1.0  0.9043054848009004  0.6437764939354267  0.12102899178576378  1.0000
  O   O44       1.0  0.09567795059673039  0.6210071477293581  0.14382834332025143  1.0000
  O   O45       1.0  0.9517116997378492  0.932587365986521  0.3059899965765497  1.0000
  O   O46       1.0  0.04821044078876488  0.8059144262007509  0.43268713056136204  1.0000
  O   O47       1.0  0.09571495598861193  0.47463902005254255  0.7605534435962085  1.0000
  O   O48       1.0  0.9043244013359056  0.2605265419823226  0.9746620089441792  1.0000
  O   O49       1.0  0.048190753472319145  0.24228297207771018  0.5191318362523845  1.0000
  O   O50       1.0  0.9517587501024278  0.019130053576631625  0.7422859966838902  1.0000
  O   O51       1.0  0.7385769014683632  0.4808751430728863  0.06734579008915621  1.0000
  O   O52       1.0  0.7385922243232129  0.25772346149780395  0.19405590360511832  1.0000
  O   O53       1.0  0.26482523933368174  0.23945897051493867  0.3561932793353861  1.0000
  O   O54       1.0  0.264806537965363  0.025336770873664684  0.3789164255102336  1.0000
  O   O55       1.0  0.2614298994359955  0.5673567729027694  0.9808958850155919  1.0000
  O   O56       1.0  0.2613905331938966  0.694034180543028  0.757740514197856  1.0000
  O   O57       1.0  0.7351784318351094  0.8561800536856908  0.7394684649475138  1.0000
  O   O58       1.0  0.7351733068885337  0.8789637917369788  0.5253196645368448  1.0000
