data_image0
_chemical_formula_structural       Zn2H52C50N6O14
_chemical_formula_sum              "Zn2 H52 C50 N6 O14"
_cell_length_a       14.439507646701028
_cell_length_b       16.182294233836952
_cell_length_c       17.029571862775196
_cell_angle_alpha    88.06200396054633
_cell_angle_beta     89.26696570730424
_cell_angle_gamma    87.5498073675662

_space_group_name_H-M_alt    "P 1"
_space_group_IT_number       1

loop_
  _space_group_symop_operation_xyz
  'x, y, z'

loop_
  _atom_site_type_symbol
  _atom_site_label
  _atom_site_symmetry_multiplicity
  _atom_site_fract_x
  _atom_site_fract_y
  _atom_site_fract_z
  _atom_site_occupancy
  Zn  Zn1       1.0  0.5009146613533773  0.5883364888249928  0.5013957316387377  1.0000
  Zn  Zn2       1.0  0.5027499215276093  0.40268500357806414  0.49511253990221615  1.0000
  H   H1        1.0  0.4816287349035661  0.6209245676427172  0.7446644614287552  1.0000
  H   H2        1.0  0.3558495058802009  0.8748579271254755  0.577627508675491  1.0000
  H   H3        1.0  0.5575565357277483  0.7837369784710759  0.0911725095136475  1.0000
  H   H4        1.0  0.5801199389543895  0.7260169898237834  0.18009487751172779  1.0000
  H   H5        1.0  0.39737950697067953  0.8176313137081623  0.13229845599667567  1.0000
  H   H6        1.0  0.40765036189949194  0.7519976129683243  0.21687763493189757  1.0000
  H   H7        1.0  0.5276586598494576  0.8407503473696921  0.272074920262881  1.0000
  H   H8        1.0  0.4260216334995235  0.9019623782405476  0.2500800901755938  1.0000
  H   H9        1.0  0.5238737779344474  0.9062213886468696  0.18617100019814367  1.0000
  H   H10       1.0  0.5034716911472329  0.212804880339263  0.9047193250221358  1.0000
  H   H11       1.0  0.5375559945918056  0.2638676451395625  0.815451304858293  1.0000
  H   H12       1.0  0.45277908426499636  0.39127894588775547  0.2536234424307651  1.0000
  H   H13       1.0  0.3392229147659264  0.22012587434566913  0.864509951893368  1.0000
  H   H14       1.0  0.36723550099935653  0.2743195940442291  0.7762072917712077  1.0000
  H   H15       1.0  0.4664059402195732  0.15254929451744917  0.7315478366570576  1.0000
  H   H16       1.0  0.3526347699086043  0.12094154940621138  0.7544571467466101  1.0000
  H   H17       1.0  0.44365418750853525  0.0978903143441201  0.8215232356095046  1.0000
  H   H18       1.0  0.7593910522522335  0.6913033824635518  0.4365082367743157  1.0000
  H   H19       1.0  0.7263445389591607  0.7947833359428601  0.46144426508415415  1.0000
  H   H20       1.0  0.7125142519475317  0.7246162599766421  0.2967761788984405  1.0000
  H   H21       1.0  0.6888875130889146  0.82907645785577  0.320213000633693  1.0000
  H   H22       1.0  0.8571406217076427  0.8402119221572801  0.3611399189273215  1.0000
  H   H23       1.0  0.46463141158072563  0.6125761868078358  0.8929791237657486  1.0000
  H   H24       1.0  0.8494785873874448  0.8116508765352107  0.2618251186427117  1.0000
  H   H25       1.0  0.8795795463379646  0.7357101158201401  0.3357623012374234  1.0000
  H   H26       1.0  0.2782583394143359  0.2907438174494814  0.6438280928024654  1.0000
  H   H27       1.0  0.30565046808131047  0.1840941727755592  0.6290103439575392  1.0000
  H   H28       1.0  0.24541508441506463  0.3109146573916633  0.49924764455949616  1.0000
  H   H29       1.0  0.26122134702293914  0.20300795972526936  0.48756952762648365  1.0000
  H   H30       1.0  0.12870596162969147  0.17819145667677816  0.5850799464594304  1.0000
  H   H31       1.0  0.09197943385936469  0.2409074998259939  0.5028630126982849  1.0000
  H   H32       1.0  0.11214985817484546  0.28713128672626453  0.5934222586861183  1.0000
  H   H33       1.0  0.6217358196595837  0.3350431237145984  0.2812332339065834  1.0000
  H   H34       1.0  0.4370719458249823  0.4023017346790851  0.10567773906117854  1.0000
  H   H35       1.0  0.5885670960624267  0.2302488990527749  0.2886809250141624  1.0000
  H   H36       1.0  0.7826985657556305  0.2904269138239783  0.32261145885159703  1.0000
  H   H37       1.0  0.7516657128352974  0.18598262539972407  0.3278779730853359  1.0000
  H   H38       1.0  0.7129108552486583  0.19386610707069712  0.18246958501242724  1.0000
  H   H39       1.0  0.829544419654766  0.21922964837346368  0.19749452895938904  1.0000
  H   H40       1.0  0.7440314979313171  0.29883219236611325  0.17737671274093716  1.0000
  H   H41       1.0  0.23526226006053716  0.6721680830591693  0.5860049161969983  1.0000
  H   H42       1.0  0.24907790882035374  0.7797435390004354  0.5653945193578311  1.0000
  H   H43       1.0  0.2876407427406491  0.6894168379499915  0.7242694905086966  1.0000
  H   H44       1.0  0.2961583790829962  0.7969576740426589  0.7058223209045595  1.0000
  H   H45       1.0  0.5068917922251187  0.6487334734425829  0.2573893651262154  1.0000
  H   H46       1.0  0.12364050208352498  0.8090991115808562  0.6754089497417726  1.0000
  H   H47       1.0  0.1430065558203566  0.7665868591605047  0.771518454346975  1.0000
  H   H48       1.0  0.1161594481155248  0.7009968432244872  0.6943657298779302  1.0000
  H   H49       1.0  0.4807543313217335  0.3571968931412997  0.738318791381872  1.0000
  H   H50       1.0  0.6024003773853718  0.8864432908272092  0.43302367712171036  1.0000
  H   H51       1.0  0.39742030948438867  0.10491151699998369  0.5595629782021874  1.0000
  H   H52       1.0  0.6112022912349389  0.1207428437161937  0.38149524477454133  1.0000
  C   C1        1.0  0.4943711267853529  0.5148008130726112  0.349150855713262  1.0000
  C   C2        1.0  0.5519178574210245  0.8500569302572388  0.46502568306217296  1.0000
  C   C3        1.0  0.5045299104629422  0.10407361146391739  0.46975742236048773  1.0000
  C   C4        1.0  0.4770886785759671  0.889103134323392  0.5040623752155896  1.0000
  C   C5        1.0  0.5635392404532736  0.1510189843219649  0.4224448338453756  1.0000
  C   C6        1.0  0.41126140901261005  0.843274566360897  0.5451050595651028  1.0000
  C   C7        1.0  0.5621535943141536  0.23667556760010905  0.4330033145238802  1.0000
  C   C8        1.0  0.4222618792395423  0.7567417734507628  0.5450796092186253  1.0000
  C   C9        1.0  0.6807564993435303  0.4819547872464867  0.503598490168912  1.0000
  C   C10       1.0  0.320943305230294  0.4887118594455089  0.49857591324165923  1.0000
  C   C11       1.0  0.7807387352217247  0.48093404675179846  0.5093107260079749  1.0000
  C   C12       1.0  0.49364721152085866  0.4925780252663188  0.6475159646565489  1.0000
  C   C13       1.0  0.2208974910085998  0.48940962430243934  0.5056506928859577  1.0000
  C   C14       1.0  0.8654276128325405  0.48348923422305745  0.512585423080367  1.0000
  C   C15       1.0  0.13599931553846994  0.4890637395975119  0.5106074149302489  1.0000
  C   C16       1.0  0.9579653361509909  0.4859888049378042  0.5144538266319005  1.0000
  C   C17       1.0  0.043332576509449376  0.487795182038198  0.5138321373441388  1.0000
  C   C18       1.0  0.48321011238881784  0.5197997516617363  0.261938032597037  1.0000
  C   C19       1.0  0.48271363754713537  0.48864285411541897  0.7349958370693132  1.0000
  C   C20       1.0  0.46246925070303024  0.4492860795336284  0.22079395533342  1.0000
  C   C21       1.0  0.47731489655991766  0.5619612028093712  0.7770292189922832  1.0000
  C   C22       1.0  0.4531991006494636  0.45540450553102835  0.13997186402583853  1.0000
  C   C23       1.0  0.484543086347898  0.6027703957435406  0.14046012678529965  1.0000
  C   C24       1.0  0.4676772179663686  0.5573815627082083  0.8579366071118462  1.0000
  C   C25       1.0  0.46543041767205284  0.5309171685135537  0.09832345072200616  1.0000
  C   C26       1.0  0.46412399301438956  0.4804510835659528  0.8989537144919384  1.0000
  C   C27       1.0  0.5255645337513426  0.7451435402959276  0.13758171718018275  1.0000
  C   C28       1.0  0.4463081588288772  0.7937500498149177  0.17749537193304127  1.0000
  C   C29       1.0  0.482882023079398  0.8645682207713673  0.22388485892862792  1.0000
  C   C30       1.0  0.48009780369228844  0.25754768467335515  0.8582862494491653  1.0000
  C   C31       1.0  0.3937818931610905  0.2272891747400507  0.8193499835687066  1.0000
  C   C32       1.0  0.41527636183960936  0.1452716823688576  0.7794963125525743  1.0000
  C   C33       1.0  0.7143435624893683  0.7455332390758257  0.420074920910807  1.0000
  C   C34       1.0  0.4681771817497092  0.40630306222292495  0.8560028142916  1.0000
  C   C35       1.0  0.7328787226904296  0.7737029704798318  0.33547843406624633  1.0000
  C   C36       1.0  0.8353435267369347  0.7913909624366084  0.3228129792244801  1.0000
  C   C37       1.0  0.301977355519341  0.246108120388385  0.5999816111049159  1.0000
  C   C38       1.0  0.23815545455761364  0.25033573211651117  0.5293666520341916  1.0000
  C   C39       1.0  0.13739816564677906  0.23826672940559493  0.554192056896099  1.0000
  C   C40       1.0  0.6370475081344154  0.2745833935081734  0.3108037047244992  1.0000
  C   C41       1.0  0.7372314833286493  0.2459296102403954  0.29687348705559213  1.0000
  C   C42       1.0  0.7570872674169209  0.23903632035339234  0.20876119872183105  1.0000
  C   C43       1.0  0.2727260013451057  0.7264661562535011  0.6030327890072587  1.0000
  C   C44       1.0  0.25788494057285055  0.742641408363305  0.689780369608272  1.0000
  C   C45       1.0  0.49286869649458953  0.5959391162208049  0.22221111303920088  1.0000
  C   C46       1.0  0.1545463936650364  0.7556427118299568  0.7088177924777527  1.0000
  C   C47       1.0  0.4773373847362734  0.41168759371780783  0.77408788531411  1.0000
  C   C48       1.0  0.44684874565202637  0.22734729409336302  0.5297640005069726  1.0000
  C   C49       1.0  0.5566231427616157  0.7637249026437942  0.46783381269062846  1.0000
  C   C50       1.0  0.4434517019791712  0.1418854456728766  0.5233291296389382  1.0000
  N   N1        1.0  0.4620320804984884  0.5399471578643329  0.016391215860565512  1.0000
  N   N2        1.0  0.46239730210886876  0.4717050173695227  0.9810276294733248  1.0000
  N   N3        1.0  0.5058313855383574  0.2735414286397954  0.4862512235662423  1.0000
  N   N4        1.0  0.4928307058064546  0.7183281810860221  0.5063849693110145  1.0000
  N   N5        1.0  0.5148147323617137  0.016936827690287298  0.4616516646925534  1.0000
  N   N6        1.0  0.46355948349570747  0.97622467100323  0.5078899875218925  1.0000
  O   O1        1.0  0.48284129530301806  0.5824900083109056  0.3849697341517811  1.0000
  O   O2        1.0  0.4640643648633328  0.3336609200885902  0.8983901733550896  1.0000
  O   O3        1.0  0.6216802910717191  0.7166133625621642  0.4319503538363352  1.0000
  O   O4        1.0  0.3944095275569878  0.27207644967725736  0.579708213173028  1.0000
  O   O5        1.0  0.6162680978832497  0.2886919841258829  0.39291951150975296  1.0000
  O   O6        1.0  0.36858061393510866  0.7044974997278787  0.5848709155433413  1.0000
  O   O7        1.0  0.4802606306883632  0.42672959873365096  0.6113290715191939  1.0000
  O   O8        1.0  0.5148763318204671  0.4438620877967239  0.3800909737697183  1.0000
  O   O9        1.0  0.5149159609880128  0.5621843765296931  0.6165963768242836  1.0000
  O   O10       1.0  0.6424150170639107  0.5522865248538125  0.48690753571574447  1.0000
  O   O11       1.0  0.3598830866749693  0.42065202976954913  0.47815633068916  1.0000
  O   O12       1.0  0.6429005693788099  0.41311981648006213  0.515289717170255  1.0000
  O   O13       1.0  0.358408487825045  0.5555719680193362  0.5138898919295445  1.0000
  O   O14       1.0  0.4962370719133417  0.6741597128291091  0.09749775681257943  1.0000
