data_image0
_chemical_formula_structural       CaH16C20N6O8
_chemical_formula_sum              "Ca1 H16 C20 N6 O8"
_cell_length_a       5.324116902413445
_cell_length_b       7.6834800168545465
_cell_length_c       13.77335430549503
_cell_angle_alpha    96.05369780041315
_cell_angle_beta     100.87898292521271
_cell_angle_gamma    107.35679005112928

_space_group_name_H-M_alt    "P 1"
_space_group_IT_number       1

loop_
  _space_group_symop_operation_xyz
  'x, y, z'

loop_
  _atom_site_type_symbol
  _atom_site_label
  _atom_site_symmetry_multiplicity
  _atom_site_fract_x
  _atom_site_fract_y
  _atom_site_fract_z
  _atom_site_occupancy
  Ca  Ca1       1.0  2.3653722273298416e-05  0.4999937090198401  0.5000024626825875  1.0000
  H   H1        1.0  0.9245142529482919  0.7321793852748044  0.7787404487083049  1.0000
  H   H2        1.0  0.07547918156081582  0.26783012307372894  0.22126398012068896  1.0000
  H   H3        1.0  0.9053750081846483  0.8799628819439318  0.94576947593098  1.0000
  H   H4        1.0  0.0945947620516208  0.12004116258059129  0.05422708981440388  1.0000
  H   H5        1.0  0.103251157245289  0.49502942441529996  0.9115426641389559  1.0000
  H   H6        1.0  0.8967549475053501  0.5049385948616703  0.0884528674170255  1.0000
  H   H7        1.0  0.12006105820424295  0.35516528281125653  0.7413641978801877  1.0000
  H   H8        1.0  0.8799608564261874  0.644831833569931  0.2586313702759355  1.0000
  H   H9        1.0  0.37608240595609027  0.2174663382383812  0.4943842431934867  1.0000
  H   H10       1.0  0.6239378594434726  0.7825472670400869  0.5056260162350198  1.0000
  H   H11       1.0  0.040036200655094834  0.9193568813792579  0.3829716751961953  1.0000
  H   H12       1.0  0.9599764991487801  0.0806609266824125  0.6170339376672515  1.0000
  H   H13       1.0  0.2964668297856718  0.8345565200609572  0.23467380385915954  1.0000
  H   H14       1.0  0.7035324931916023  0.16546132724449336  0.7653279360831035  1.0000
  H   H15       1.0  0.7915859997085946  0.10269557591848869  0.28694484042881635  1.0000
  H   H16       1.0  0.2084185472193951  0.8973292121722949  0.7130555283235083  1.0000
  C   C1        1.0  0.5237542807302302  0.5352054011596792  0.7498687889695076  1.0000
  C   C2        1.0  0.47625549541473317  0.46479031313813113  0.25012871574207907  1.0000
  C   C3        1.0  0.7454888527776546  0.6817629460638839  0.8081207022477342  1.0000
  C   C4        1.0  0.2544993727324396  0.31823969066910257  0.19187784262967963  1.0000
  C   C5        1.0  0.7356053107261005  0.7642069232504128  0.9014266840715379  1.0000
  C   C6        1.0  0.2643765875294477  0.23579847493863326  0.09857302371745648  1.0000
  C   C7        1.0  0.5016749692223287  0.6954819039464298  0.9362073295416522  1.0000
  C   C8        1.0  0.4983028188525224  0.30450689963473826  0.0637888791165793  1.0000
  C   C9        1.0  0.2801977994197529  0.546219865307684  0.8811022577844125  1.0000
  C   C10       1.0  0.7198021978267519  0.4537633863419686  0.11889449506780639  1.0000
  C   C11       1.0  0.2922576351532697  0.4678111473931068  0.7871719429470048  1.0000
  C   C12       1.0  0.7077558918991683  0.5321804089307703  0.21282557785485068  1.0000
  C   C13       1.0  0.5325274728937686  0.45536956978629917  0.6465319579630487  1.0000
  C   C14       1.0  0.46750376468744287  0.5446149913230157  0.3534722259387806  1.0000
  C   C15       1.0  0.23961812112215605  0.9877000794819892  0.3714217150167016  1.0000
  C   C16       1.0  0.7603914937868763  0.012323291642168499  0.6285818385455284  1.0000
  C   C17       1.0  0.372251520420015  0.9456195785344902  0.2988355303220729  1.0000
  C   C18       1.0  0.6277497188723868  0.05439828786820299  0.7011641717726673  1.0000
  C   C19       1.0  0.6270961437523822  0.08351197839490247  0.3249246011199745  1.0000
  C   C20       1.0  0.3729095807263576  0.9165072690380142  0.6750755116961569  1.0000
  N   N1        1.0  0.48545882048027506  0.7829494470860251  0.03356958954052658  1.0000
  N   N2        1.0  0.5145254388574471  0.21704489745521013  0.9664267043194954  1.0000
  N   N3        1.0  0.6511574559732481  0.20288846705733474  0.4078537258811892  1.0000
  N   N4        1.0  0.3488526764545838  0.7971279859883325  0.5921487128991884  1.0000
  N   N5        1.0  0.41169525487728004  0.14119735462023897  0.4344531403101683  1.0000
  N   N6        1.0  0.588316713638072  0.8588149282712223  0.5655506268938453  1.0000
  O   O1        1.0  0.7602000444687957  0.48662626503085693  0.6247738964492696  1.0000
  O   O2        1.0  0.2398325829377157  0.5133651917523209  0.3752337174718079  1.0000
  O   O3        1.0  0.30547765662823406  0.3611277704749296  0.5857052574850667  1.0000
  O   O4        1.0  0.694553878721372  0.6388374016392503  0.4142977532502455  1.0000
  O   O5        1.0  0.6829577313889601  0.9154343923152978  0.0827301007814683  1.0000
  O   O6        1.0  0.31697211843246004  0.08454615710908091  0.9172606668757692  1.0000
  O   O7        1.0  0.27375337894373075  0.7205936903465184  0.06251852660243166  1.0000
  O   O8        1.0  0.7261858815319185  0.27937852764232934  0.9374738629585977  1.0000
