data_image0
_chemical_formula_structural       Cu2H28C32S6I2N4
_chemical_formula_sum              "Cu2 H28 C32 S6 I2 N4"
_cell_length_a       8.160867041389434
_cell_length_b       10.28300449435062
_cell_length_c       11.156398791661536
_cell_angle_alpha    74.66034146631694
_cell_angle_beta     73.3825427413833
_cell_angle_gamma    80.8560369932199

_space_group_name_H-M_alt    "P 1"
_space_group_IT_number       1

loop_
  _space_group_symop_operation_xyz
  'x, y, z'

loop_
  _atom_site_type_symbol
  _atom_site_label
  _atom_site_symmetry_multiplicity
  _atom_site_fract_x
  _atom_site_fract_y
  _atom_site_fract_z
  _atom_site_occupancy
  Cu  Cu1       1.0  0.5039609425564251  0.9243421606444713  0.62362085542356  1.0000
  Cu  Cu2       1.0  0.49603184724016103  0.07565637173659917  0.3763754006370091  1.0000
  H   H1        1.0  0.9058303946977231  0.3267504368836781  0.37916122113411876  1.0000
  H   H2        1.0  0.0941618923482395  0.6732523576014484  0.6208420819177077  1.0000
  H   H3        1.0  0.8775378203081414  0.0834432084818246  0.7034638739175134  1.0000
  H   H4        1.0  0.12246186695237778  0.9165616049564492  0.2965346385333589  1.0000
  H   H5        1.0  0.324002459659006  0.8189571944595428  0.906437328139958  1.0000
  H   H6        1.0  0.6759935179585811  0.18104647911238197  0.09355868487425308  1.0000
  H   H7        1.0  0.11642640114200016  0.12932296116725434  0.3899985111057659  1.0000
  H   H8        1.0  0.8835674138445668  0.8706777013631282  0.6100005502318236  1.0000
  H   H9        1.0  0.5535056746860362  0.8398022267027937  0.15551123496772595  1.0000
  H   H10       1.0  0.44650656177668685  0.16019480118067966  0.8444947530276392  1.0000
  H   H11       1.0  0.7696872793722986  0.841921655616332  0.1488766724909354  1.0000
  H   H12       1.0  0.2303276346083578  0.15807428715525867  0.8511254498552387  1.0000
  H   H13       1.0  0.021559694176374898  0.8026981832355559  0.03092848467688475  1.0000
  H   H14       1.0  0.9784399878828792  0.19730655908102077  0.9690673579173674  1.0000
  H   H15       1.0  0.6671763116680864  0.6634004775011417  0.34790249443071986  1.0000
  H   H16       1.0  0.33282096703682384  0.33659314534506984  0.6520985948866027  1.0000
  H   H17       1.0  0.7237650798579266  0.48846061286175757  0.39582545299727917  1.0000
  H   H18       1.0  0.2762371807208268  0.5115340896799978  0.6041751926575785  1.0000
  H   H19       1.0  0.5154999131730946  0.3662022969714086  0.3190780089354205  1.0000
  H   H20       1.0  0.4844955680114608  0.6337953399556325  0.6809215010936068  1.0000
  H   H21       1.0  0.18810951897747688  0.0849161214569634  0.5930611942968793  1.0000
  H   H22       1.0  0.8118906814361964  0.9150845721206479  0.40693561087596913  1.0000
  H   H23       1.0  0.8130307279683394  0.3409158938742323  0.21312098565545057  1.0000
  H   H24       1.0  0.1869786736477649  0.6590828519901492  0.7868743881091473  1.0000
  H   H25       1.0  0.32519521379364147  0.5778391721254365  0.29095193333319697  1.0000
  H   H26       1.0  0.6748024456257296  0.4221616892082451  0.7090525379423198  1.0000
  H   H27       1.0  0.6980905060558767  0.6890546183622559  0.8909343599708419  1.0000
  H   H28       1.0  0.3019077741838601  0.31095119630986545  0.10906418507788368  1.0000
  C   C1        1.0  0.040202116905049906  0.3434913660851463  0.3594221479487698  1.0000
  C   C2        1.0  0.9597954059906971  0.6565104126043478  0.6405785228732696  1.0000
  C   C3        1.0  0.9721255569910594  0.022281574045599894  0.752281084555733  1.0000
  C   C4        1.0  0.027871570203849675  0.9777231463691861  0.2477153045235312  1.0000
  C   C5        1.0  0.920630892816469  0.9395639152806647  0.8766798147984075  1.0000
  C   C6        1.0  0.079367900576429  0.06043777953079398  0.12331702297229437  1.0000
  C   C7        1.0  0.2210698860504223  0.8750312370199537  0.8641755794839127  1.0000
  C   C8        1.0  0.7789318544401524  0.12496749055353007  0.135823213640144  1.0000
  C   C9        1.0  0.15818950133834866  0.2305339555144101  0.3687223327491721  1.0000
  C   C10       1.0  0.841803935284936  0.769469885813585  0.6312813463677072  1.0000
  C   C11       1.0  0.7187825377233921  0.6726506625506019  0.0878951342888641  1.0000
  C   C12       1.0  0.2812282709134877  0.3273470820799318  0.9121002068778805  1.0000
  C   C13       1.0  0.6849098638081088  0.8177847259053975  0.0983966370507119  1.0000
  C   C14       1.0  0.31510224133224807  0.1822132904555858  0.9016082203477962  1.0000
  C   C15       1.0  0.050252798144995815  0.8665928604452302  0.9339843022684345  1.0000
  C   C16       1.0  0.9497498362132005  0.13340898575506796  0.06601616553578533  1.0000
  C   C17       1.0  0.7535023441375658  0.5626684178932703  0.19066772950958466  1.0000
  C   C18       1.0  0.2465061705459348  0.43732730417323024  0.8093295293836814  1.0000
  C   C19       1.0  0.7581403503293842  0.579076151362635  0.3188710381071189  1.0000
  C   C20       1.0  0.24185679531941429  0.4209184362538492  0.6811280306611492  1.0000
  C   C21       1.0  0.3798169605554947  0.36231305480048787  0.3287934530918902  1.0000
  C   C22       1.0  0.6201835007691513  0.637685638114874  0.671204723322461  1.0000
  C   C23       1.0  0.09571576513851451  0.47325104220323067  0.3309252152023203  1.0000
  C   C24       1.0  0.9042792098279122  0.5267508094134071  0.6690795619135625  1.0000
  C   C25       1.0  0.1448391221288929  0.023339774099177597  0.6900687382721457  1.0000
  C   C26       1.0  0.8551618610176915  0.9766549174916858  0.30993218062521793  1.0000
  C   C27       1.0  0.7825827655783826  0.4401438777110298  0.15599628966590726  1.0000
  C   C28       1.0  0.21742113927696488  0.5598578846112403  0.844000345086982  1.0000
  C   C29       1.0  0.27216535020732385  0.48061614000974356  0.31405302421763526  1.0000
  C   C30       1.0  0.7278324370669012  0.5193836854319612  0.6859507977503226  1.0000
  C   C31       1.0  0.719895052513536  0.6282703574622912  0.9815204652101525  1.0000
  C   C32       1.0  0.2801037530156519  0.3717315032997917  0.018482602226001215  1.0000
  S   S1        1.0  0.7002995785631257  0.9407198215388061  0.9470364734710797  1.0000
  S   S2        1.0  0.29970140346711815  0.05928523992268001  0.05297066525935179  1.0000
  S   S3        1.0  0.9648409356001153  0.6250027191508847  0.32064642862493986  1.0000
  S   S4        1.0  0.03515443159963639  0.37499614332599407  0.6793608503292956  1.0000
  S   S5        1.0  0.7655426120210008  0.45695879041113596  0.0033524889222533807  1.0000
  S   S6        1.0  0.23445989101483627  0.5430440442666722  0.9966468482851095  1.0000
  I   I1        1.0  0.3698412335370378  0.8408430723052759  0.44500561494935204  1.0000
  I   I2        1.0  0.6301473490672508  0.15915865343519897  0.5549978585224407  1.0000
  N   N1        1.0  0.27032048228935684  0.948667647343093  0.74243187431842  1.0000
  N   N2        1.0  0.7296784389583946  0.051333011576389295  0.25756431414472997  1.0000
  N   N3        1.0  0.32702574346406266  0.23695561559243566  0.354721677222308  1.0000
  N   N4        1.0  0.6729697342529803  0.7630419739201456  0.6452760529023107  1.0000
