data_image0
_chemical_formula_structural       Al4H112C98O22
_chemical_formula_sum              "Al4 H112 C98 O22"
_cell_length_a       6.844649731070897
_cell_length_b       21.655358571512597
_cell_length_c       21.434938827448587
_cell_angle_alpha    93.05999808484239
_cell_angle_beta     89.99951158776925
_cell_angle_gamma    89.9998170800648

_space_group_name_H-M_alt    "P 1"
_space_group_IT_number       1

loop_
  _space_group_symop_operation_xyz
  'x, y, z'

loop_
  _atom_site_type_symbol
  _atom_site_label
  _atom_site_symmetry_multiplicity
  _atom_site_fract_x
  _atom_site_fract_y
  _atom_site_fract_z
  _atom_site_occupancy
  Al  Al1       1.0  0.8702381248085017  0.5008874798581573  0.49738208920774707  1.0000
  Al  Al2       1.0  0.37024608039623524  0.49910847527932123  0.5026145406373673  1.0000
  Al  Al3       1.0  0.33997503243570276  0.999947781817674  0.9985698977479204  1.0000
  Al  Al4       1.0  0.8399816050168666  5.1114528361000024e-05  0.0014291315525341002  1.0000
  H   H1        1.0  0.1602132970669032  0.8036823184394134  0.9292036142285767  1.0000
  H   H2        1.0  0.6601705214260036  0.19631491877365187  0.07078050185121042  1.0000
  H   H3        1.0  0.21738886008414227  0.6946142857643167  0.9017086845245429  1.0000
  H   H4        1.0  0.7173514307170022  0.30538454370005036  0.0983028372124011  1.0000
  H   H5        1.0  0.2351312780830455  0.6071500189506195  0.8223494470262267  1.0000
  H   H6        1.0  0.7351857055950788  0.3928420912010536  0.1776503895899495  1.0000
  H   H7        1.0  0.20741790391638656  0.5681444288254481  0.7116186134011855  1.0000
  H   H8        1.0  0.7074674630600127  0.4318578373068434  0.2883807588537621  1.0000
  H   H9        1.0  0.019761585274508796  0.6902551120290495  0.5710545473905099  1.0000
  H   H10       1.0  0.5197824420826862  0.3097409857487392  0.4289393139893535  1.0000
  H   H11       1.0  0.9889745648027956  0.8014369695674687  0.596996393921117  1.0000
  H   H12       1.0  0.4889622585954569  0.19855936538377247  0.403008316943712  1.0000
  H   H13       1.0  0.18282757620984566  0.8557509460553161  0.2886470167936821  1.0000
  H   H14       1.0  0.6828514742494248  0.1442579065132179  0.711361723513221  1.0000
  H   H15       1.0  0.8656017649831113  0.751703344252185  0.33022657836653485  1.0000
  H   H16       1.0  0.36561534795375655  0.24829479810799873  0.6697756570553324  1.0000
  H   H17       1.0  0.3486994525709263  0.7468987097766155  0.1718423186831544  1.0000
  H   H18       1.0  0.8487014668214313  0.2531017302225322  0.8281594795299654  1.0000
  H   H19       1.0  0.13578635434360822  0.720454979833846  0.13473977517306676  1.0000
  H   H20       1.0  0.635782694253656  0.2795410670076492  0.8652626452667818  1.0000
  H   H21       1.0  0.3302263493215349  0.6585993802492636  0.22960098659012826  1.0000
  H   H22       1.0  0.8302508398007831  0.3414063245643177  0.7704036288553836  1.0000
  H   H23       1.0  0.3763605178143408  0.8232597817077474  0.24560252339012584  1.0000
  H   H24       1.0  0.8763755926277811  0.17673578943419696  0.7543954944190787  1.0000
  H   H25       1.0  0.4035302850827236  0.741469798681166  0.3065116692213437  1.0000
  H   H26       1.0  0.9035621494403473  0.25853089195314977  0.6934951163557344  1.0000
  H   H27       1.0  0.0866978360284847  0.6442202515730243  0.20698808820022654  1.0000
  H   H28       1.0  0.5866938000021662  0.3557788681756974  0.7930186524712539  1.0000
  H   H29       1.0  0.09616141032060452  0.004014097386807715  0.8568671221073957  1.0000
  H   H30       1.0  0.8456261072614382  0.9810653261982761  0.848597125529956  1.0000
  H   H31       1.0  0.8163133633960626  0.0432814583780683  0.7547518764499869  1.0000
  H   H32       1.0  0.9156935276220182  0.089549163800406  0.8180682383553943  1.0000
  H   H33       1.0  0.07169076152764832  0.0590625274607248  0.7578790603675358  1.0000
  H   H34       1.0  0.5961515739979432  0.9959791229372428  0.14312608102956398  1.0000
  H   H35       1.0  0.34561525650941854  0.0189418872998459  0.15140977323244442  1.0000
  H   H36       1.0  0.31631725842085257  0.9567211834469089  0.24524765861735884  1.0000
  H   H37       1.0  0.4156879512094136  0.9104484365740717  0.18193339477034703  1.0000
  H   H38       1.0  0.5717022614676921  0.940933487994272  0.24211419026756437  1.0000
  H   H39       1.0  0.5016711151068165  0.6658450031795482  0.12452746618512832  1.0000
  H   H40       1.0  0.5268020278436865  0.7275517229394024  0.0737896396434579  1.0000
  H   H41       1.0  0.6447122833222636  0.6557631035628189  0.0558322257494481  1.0000
  H   H42       1.0  0.892721110012822  0.7273991112374317  0.09620932890614849  1.0000
  H   H43       1.0  0.8524980173314844  0.6716325350229937  0.15193400639243043  1.0000
  H   H44       1.0  0.601353292947536  0.7555051968292829  0.20048390402433106  1.0000
  H   H45       1.0  0.7245491152556625  0.8069542322036438  0.15449435316464394  1.0000
  H   H46       1.0  0.0016899064665807002  0.3341529743157565  0.8754743772460786  1.0000
  H   H47       1.0  0.0268084605945234  0.27244902581421127  0.9262125813745073  1.0000
  H   H48       1.0  0.14473204076097804  0.34423592747958043  0.9441738873066755  1.0000
  H   H49       1.0  0.3927222985854256  0.27258863819171336  0.9037971133551751  1.0000
  H   H50       1.0  0.3525322186365186  0.3283636210965284  0.8480734210087421  1.0000
  H   H51       1.0  0.10137366453747632  0.24449474675171248  0.7995213878372311  1.0000
  H   H52       1.0  0.22455275790268564  0.19304001541819815  0.8455101711811752  1.0000
  H   H53       1.0  0.7874068467373191  0.9645423578361728  0.3157845549128524  1.0000
  H   H54       1.0  0.5783777606135345  0.9252899620515932  0.3417226011138723  1.0000
  H   H55       1.0  0.7676181691923604  0.9458428830334427  0.39510169881422297  1.0000
  H   H56       1.0  0.7919169982534626  0.8339936847778089  0.36580702911592067  1.0000
  H   H57       1.0  0.9956704209360011  0.8744100750535607  0.34012787464370575  1.0000
  H   H58       1.0  0.8287662994082935  0.8779320530455053  0.23247481041975962  1.0000
  H   H59       1.0  0.6364641048601741  0.8360140588241052  0.2626405479614746  1.0000
  H   H60       1.0  0.2874224244069907  0.03545718066668261  0.6842090068220729  1.0000
  H   H61       1.0  0.0784067437038587  0.074712523092316  0.6582785294905235  1.0000
  H   H62       1.0  0.2676371264237645  0.054161334503632516  0.604900296712252  1.0000
  H   H63       1.0  0.2919178467707795  0.16601289930312646  0.6341962840250305  1.0000
  H   H64       1.0  0.49567395493911454  0.12559362389947637  0.6598688185561058  1.0000
  H   H65       1.0  0.32877867253566967  0.12206433749248188  0.7675284746317673  1.0000
  H   H66       1.0  0.1364724351392113  0.16398310649087475  0.7373651341529381  1.0000
  H   H67       1.0  0.5010936970696989  0.5759170895888132  0.29517812315284436  1.0000
  H   H68       1.0  0.7387112028599317  0.5536326323011024  0.3197536514441807  1.0000
  H   H69       1.0  0.550014086293281  0.5677141106266957  0.37561258385373014  1.0000
  H   H70       1.0  0.7858182032225188  0.6555607565170191  0.37615485130474  1.0000
  H   H71       1.0  0.5513929178899701  0.6797301079395338  0.3548130142230335  1.0000
  H   H72       1.0  0.6338821204257385  0.6839141858469089  0.24744503848032204  1.0000
  H   H73       1.0  0.8319479772794692  0.6338580469006343  0.2529278581881442  1.0000
  H   H74       1.0  0.0011145991318883997  0.42408403649611853  0.7048377205610237  1.0000
  H   H75       1.0  0.23872959297973043  0.44637137789682396  0.6802521648180216  1.0000
  H   H76       1.0  0.050034132654396  0.4322918033340741  0.6243914047920568  1.0000
  H   H77       1.0  0.285829020278392  0.3444433724101898  0.6238536378176319  1.0000
  H   H78       1.0  0.0513961279756003  0.3202698039137388  0.6451910142480416  1.0000
  H   H79       1.0  0.1338883407917066  0.3160841709330384  0.752557370436044  1.0000
  H   H80       1.0  0.33195378449411805  0.3661357667786689  0.7470787084801956  1.0000
  H   H81       1.0  0.7852293144011143  0.0214872445954839  0.6486969366966875  1.0000
  H   H82       1.0  0.7337613380091027  0.9732264460961987  0.5813592086058817  1.0000
  H   H83       1.0  0.5453359570749327  0.9923108308100905  0.6358366424990153  1.0000
  H   H84       1.0  0.6608426371617567  0.8845289313318074  0.6506648041614369  1.0000
  H   H85       1.0  0.7184718915885424  0.9322332670772225  0.7172321992291799  1.0000
  H   H86       1.0  0.060646141023056495  0.9439078222092333  0.6780182641404481  1.0000
  H   H87       1.0  0.9988545616552357  0.9001773319856737  0.6089794505895441  1.0000
  H   H88       1.0  0.2852052833107948  0.9785107018555264  0.351300849172425  1.0000
  H   H89       1.0  0.23372277614510037  0.026778491632370602  0.41863119099063795  1.0000
  H   H90       1.0  0.045306375342519814  0.007693814446426502  0.3641538142228812  1.0000
  H   H91       1.0  0.16082831798662767  0.1154730891179554  0.3493220796823381  1.0000
  H   H92       1.0  0.21845550924597748  0.06776332200740137  0.28275736863417217  1.0000
  H   H93       1.0  0.5606230324800806  0.05609391190893119  0.3219777799124941  1.0000
  H   H94       1.0  0.4988261501663801  0.09982402770029349  0.3910167834433977  1.0000
  H   H95       1.0  0.19291602759538753  0.8727354173349868  0.47851815794956565  1.0000
  H   H96       1.0  0.3459202046904721  0.8126506319866634  0.5035872813108924  1.0000
  H   H97       1.0  0.4473349726878553  0.8858919470180522  0.488668676170569  1.0000
  H   H98       1.0  0.5219481554275802  0.811297080089012  0.3988809907326285  1.0000
  H   H99       1.0  0.3640540196548728  0.8697369145569808  0.3750899777387247  1.0000
  H   H100      1.0  0.0787715518840599  0.7960751276694465  0.39020352195901603  1.0000
  H   H101      1.0  0.24809512448109666  0.7387773572599841  0.40816306056470353  1.0000
  H   H102      1.0  0.6929335219194  0.1272714798883712  0.5214812208955737  1.0000
  H   H103      1.0  0.8459464650675984  0.18735583958235222  0.49641494812075143  1.0000
  H   H104      1.0  0.9473353545575733  0.11410924339959647  0.5113393865287676  1.0000
  H   H105      1.0  0.021961325218349304  0.18869309959308814  0.6011297334930745  1.0000
  H   H106      1.0  0.8640351026280514  0.13026012468024817  0.6249169438934318  1.0000
  H   H107      1.0  0.5787828968272207  0.2039379176461225  0.6097965960530729  1.0000
  H   H108      1.0  0.7481340688757641  0.26122753828946793  0.5918422558320771  1.0000
  H   H109      1.0  0.6212544814442821  0.5764138156932432  0.5293453048744537  1.0000
  H   H110      1.0  0.12125099082864918  0.42358666624564006  0.4706538519190602  1.0000
  H   H111      1.0  0.5906779520791048  0.9191236059756703  0.9922990489396213  1.0000
  H   H112      1.0  0.09067610756443399  0.08086879533338018  0.007703523054516402  1.0000
  C   C1        1.0  0.6267976871715177  0.4247304432517964  0.5784450002558471  1.0000
  C   C2        1.0  0.126777745238158  0.5752616826985884  0.42156121271018065  1.0000
  C   C3        1.0  0.6184459310870807  0.4268687436465869  0.4124968159193969  1.0000
  C   C4        1.0  0.11842156092264132  0.573125041396402  0.5875061364493135  1.0000
  C   C5        1.0  0.057093142282241195  0.8850772483826713  0.8009280105894094  1.0000
  C   C6        1.0  0.5570755949057827  0.11493093728407895  0.19906005085901063  1.0000
  C   C7        1.0  0.08896835754187289  0.8724319505850172  0.8641057202541234  1.0000
  C   C8        1.0  0.5889435975630946  0.1275784121151773  0.1358883130224555  1.0000
  C   C9        1.0  0.13158862672300128  0.81236243720204  0.880298764824964  1.0000
  C   C10       1.0  0.6315241821492493  0.18764241142141455  0.11968864702306801  1.0000
  C   C11       1.0  0.1400895721304778  0.7631186742755031  0.8355623658817135  1.0000
  C   C12       1.0  0.640074510922517  0.2368803471915868  0.16443581455246198  1.0000
  C   C13       1.0  0.10103796355621598  0.7748465315724148  0.771662680106772  1.0000
  C   C14       1.0  0.6010563831061759  0.22515714663454384  0.2283355747029319  1.0000
  C   C15       1.0  0.0582774609643337  0.8363054482504352  0.7532408575719174  1.0000
  C   C16       1.0  0.5582566272834698  0.1636944979857375  0.24675614081091624  1.0000
  C   C17       1.0  0.18756326343523  0.7017854943275167  0.8525610134788623  1.0000
  C   C18       1.0  0.6875611206679083  0.29821545026299384  0.14744683644041598  1.0000
  C   C19       1.0  0.1972315222063301  0.6535961811009868  0.8090064454091674  1.0000
  C   C20       1.0  0.6972452035822772  0.3464068093075525  0.19099715634323639  1.0000
  C   C21       1.0  0.156365376598103  0.6629722119147344  0.7446765676905611  1.0000
  C   C22       1.0  0.6563832809606254  0.3370273525313791  0.25533091134069247  1.0000
  C   C23       1.0  0.10621223394496582  0.7237904650268658  0.7268684153875425  1.0000
  C   C24       1.0  0.6062318023758094  0.2762092630334436  0.27312564731496286  1.0000
  C   C25       1.0  0.061264056589635595  0.73341498674813  0.6632789456458  1.0000
  C   C26       1.0  0.5612615727407261  0.2665777109151364  0.33672043404394003  1.0000
  C   C27       1.0  0.020265497786048994  0.7945969245510656  0.6461916502905966  1.0000
  C   C28       1.0  0.5202939210632705  0.20540019430933398  0.3538115499731731  1.0000
  C   C29       1.0  0.0194567290882048  0.845304981523192  0.6875372627588021  1.0000
  C   C30       1.0  0.5194576092821634  0.1546910190089221  0.31246267621415313  1.0000
  C   C31       1.0  0.16464572509790537  0.614295549349272  0.6987077577618307  1.0000
  C   C32       1.0  0.6646983762700459  0.385708510314302  0.301297796049667  1.0000
  C   C33       1.0  0.11378195133217159  0.6242926813638973  0.6369818588901027  1.0000
  C   C34       1.0  0.6138257535385135  0.3757062275886582  0.3630140582882789  1.0000
  C   C35       1.0  0.05978493923468871  0.6829750446346025  0.619410776840084  1.0000
  C   C36       1.0  0.5597821749622582  0.3170251935983116  0.3805834109021403  1.0000
  C   C37       1.0  0.2336663758827342  0.8125929650254875  0.265519835929922  1.0000
  C   C38       1.0  0.733677482481852  0.18740723215540103  0.7344916306704691  1.0000
  C   C39       1.0  0.8850823312588574  0.7800312324861164  0.23506191615742011  1.0000
  C   C40       1.0  0.38510974898575506  0.21997351975809207  0.7649430215083513  1.0000
  C   C41       1.0  0.8993105855722447  0.7286388063331373  0.28463197388972356  1.0000
  C   C42       1.0  0.39930369421067974  0.2713616087242271  0.715370151586427  1.0000
  C   C43       1.0  0.1354228833382223  0.6175035358926948  0.37189591626125207  1.0000
  C   C44       1.0  0.6354375825562357  0.3824896162014681  0.6281121348282711  1.0000
  C   C45       1.0  0.0972058976162771  0.7926698646432156  0.21039881494024118  1.0000
  C   C46       1.0  0.5972313734436766  0.2073255513745522  0.789607923476929  1.0000
  C   C47       1.0  0.2542617014786828  0.7600787687623053  0.31149823386688524  1.0000
  C   C48       1.0  0.7542778369132747  0.2399226236336816  0.6885103626262961  1.0000
  C   C49       1.0  0.11602878074146619  0.7056393457803123  0.2898124686171429  1.0000
  C   C50       1.0  0.6160188883001255  0.2943562321426682  0.7101895426305518  1.0000
  C   C51       1.0  0.18682523460002187  0.680663672885693  0.22476742805271502  1.0000
  C   C52       1.0  0.6868352324754383  0.31933321573296775  0.7752343773621819  1.0000
  C   C53       1.0  0.19708317840296272  0.7339313569047974  0.18041234980465498  1.0000
  C   C54       1.0  0.6970779724627505  0.2660620522773414  0.8195931915663054  1.0000
  C   C55       1.0  0.12907223054969563  0.6568909533884335  0.33361633665369794  1.0000
  C   C56       1.0  0.6290585846633833  0.3431108355741088  0.6663893323789765  1.0000
  C   C57       1.0  0.0936925515204905  0.8400479530760163  0.16475077451215722  1.0000
  C   C58       1.0  0.5936954178278738  0.1599688677896722  0.8352586224155161  1.0000
  C   C59       1.0  0.0907460174705932  0.8795716184988577  0.1264099071567841  1.0000
  C   C60       1.0  0.5907716736880743  0.12042367784258089  0.8735870349410179  1.0000
  C   C61       1.0  0.5897525140581976  0.0798906838395652  0.082264961710834  1.0000
  C   C62       1.0  0.0897548477727668  0.9201150341219916  0.9177286357275206  1.0000
  C   C63       1.0  0.588777091155343  0.0724378059327435  0.917770040039848  1.0000
  C   C64       1.0  0.08876084931085869  0.9275603316060664  0.0822203435252504  1.0000
  C   C65       1.0  0.9773365479739625  0.9938392761333927  0.8233092083631063  1.0000
  C   C66       1.0  0.9429841124238793  0.049556987778139196  0.7858068645643428  1.0000
  C   C67       1.0  0.47733684986834385  0.006161238870717502  0.1766880261980219  1.0000
  C   C68       1.0  0.442988910869218  0.9504423183969237  0.21419281094483011  1.0000
  C   C69       1.0  0.7442242429225489  0.7641273662084699  0.17935970611726046  1.0000
  C   C70       1.0  0.7864625665733199  0.7114235520963347  0.1302189950687591  1.0000
  C   C71       1.0  0.6047066132906737  0.6890517660596628  0.09420853811379  1.0000
  C   C72       1.0  0.24424560526715314  0.23587020395741118  0.8206466090495114  1.0000
  C   C73       1.0  0.2864790986761534  0.2885731347067306  0.8697886115789756  1.0000
  C   C74       1.0  0.1047219289212293  0.3109490131929178  0.905795336227122  1.0000
  C   C75       1.0  0.7959901020895543  0.8415555405784545  0.2649682931556682  1.0000
  C   C76       1.0  0.8394858104142672  0.867138241892178  0.3317516443415158  1.0000
  C   C77       1.0  0.7373836171141973  0.9289135500039265  0.3468227967968359  1.0000
  C   C78       1.0  0.29600293985676973  0.15844584973714143  0.7350331768830998  1.0000
  C   C79       1.0  0.33949196032462936  0.1328618717297303  0.6682445731545458  1.0000
  C   C80       1.0  0.23740108967034956  0.07108727202399479  0.6531760355349335  1.0000
  C   C81       1.0  0.7576718953651634  0.6731764023511103  0.27752159182325903  1.0000
  C   C82       1.0  0.6757327446684727  0.650604625570892  0.33906050829310175  1.0000
  C   C83       1.0  0.6120572044724567  0.5831165360318664  0.33202480413035573  1.0000
  C   C84       1.0  0.25768318540126245  0.3268198529842081  0.7224860977881066  1.0000
  C   C85       1.0  0.1757468940563029  0.34939188349186867  0.6609502109552636  1.0000
  C   C86       1.0  0.11207187079494219  0.41688402595138274  0.6679832578823763  1.0000
  C   C87       1.0  0.9683555787703853  0.9059485681638434  0.659448847778272  1.0000
  C   C88       1.0  0.7522741914990762  0.9239382497693996  0.6672929281533727  1.0000
  C   C89       1.0  0.7009393676414817  0.9808058249384004  0.6314625908639329  1.0000
  C   C90       1.0  0.46832712493155526  0.0940536346050251  0.34054559514097354  1.0000
  C   C91       1.0  0.2522651424817681  0.07606595497537678  0.33269321893316567  1.0000
  C   C92       1.0  0.20092122776704713  0.019200447884060192  0.3685264878404553  1.0000
  C   C93       1.0  0.2286888625831693  0.7799580946848579  0.3808040172232624  1.0000
  C   C94       1.0  0.37246333844849744  0.82962895985019  0.40443744319286173  1.0000
  C   C95       1.0  0.3381245348168989  0.8513900837640522  0.4725026740480728  1.0000
  C   C96       1.0  0.7287070799974841  0.22004423321440203  0.6191966978107145  1.0000
  C   C97       1.0  0.8724695968636523  0.17036876974754014  0.5955657109872162  1.0000
  C   C98       1.0  0.8381401678462056  0.1486154167831444  0.5274986492976268  1.0000
  O   O1        1.0  0.4546022217455246  0.4431123576739039  0.4362278007809053  1.0000
  O   O2        1.0  0.9546166953381245  0.5568860547337522  0.5637648382157749  1.0000
  O   O3        1.0  0.7892474257551356  0.44036749809031045  0.5549370676812799  1.0000
  O   O4        1.0  0.2892577089987682  0.5596336616996708  0.44506816181536374  1.0000
  O   O5        1.0  0.7853131593873428  0.44842045029388083  0.42823712993229884  1.0000
  O   O6        1.0  0.28529967967247666  0.5515746009459122  0.5717662853605318  1.0000
  O   O7        1.0  0.9560486832835124  0.5591009057281083  0.4380720096357321  1.0000
  O   O8        1.0  0.45605862110522816  0.44089203651714837  0.5619295454426593  1.0000
  O   O9        1.0  0.6195295951456858  0.5375565522622876  0.5046314788611781  1.0000
  O   O10       1.0  0.11953377253857411  0.4624436378938412  0.49537048913847304  1.0000
  O   O11       1.0  0.7548175582134605  0.0549421160942885  0.9377220694384079  1.0000
  O   O12       1.0  0.2548264927142156  0.945052057428164  0.062273958579623895  1.0000
  O   O13       1.0  0.4259812179679018  0.06423999650876769  0.05783792332878329  1.0000
  O   O14       1.0  0.925994448423225  0.9357645865215216  0.9421570870983375  1.0000
  O   O15       1.0  0.42111027693284336  0.052211994626524906  0.9329039989580253  1.0000
  O   O16       1.0  0.9210854880350394  0.9477820049438747  0.06709156933479932  1.0000
  O   O17       1.0  0.25744751278146083  0.9384928559581169  0.93669734786711  1.0000
  O   O18       1.0  0.7574371277075542  0.06150316118425539  0.06329865948647752  1.0000
  O   O19       1.0  0.5898202452669918  0.963482004311281  0.0012373219611703013  1.0000
  O   O20       1.0  0.0898244501618919  0.03651491536167841  0.9987558718491129  1.0000
  O   O21       1.0  0.0322839305746569  0.9429573050087184  0.7807500336618604  1.0000
  O   O22       1.0  0.5323147025054666  0.05704173078376579  0.2192390977762173  1.0000
