data_image0
_chemical_formula_structural       Cu4H56C56N16Cl8
_chemical_formula_sum              "Cu4 H56 C56 N16 Cl8"
_cell_length_a       8.606944338738257
_cell_length_b       12.803112555
_cell_length_c       13.1313
_cell_angle_alpha    90.0
_cell_angle_beta     92.75004610796694
_cell_angle_gamma    90.0

_space_group_name_H-M_alt    "P 1"
_space_group_IT_number       1

loop_
  _space_group_symop_operation_xyz
  'x, y, z'

loop_
  _atom_site_type_symbol
  _atom_site_label
  _atom_site_symmetry_multiplicity
  _atom_site_fract_x
  _atom_site_fract_y
  _atom_site_fract_z
  _atom_site_occupancy
  Cu  Cu1       1.0  0.9865532510276154  0.3036027359208049  0.8401962591760395  1.0000
  Cu  Cu2       1.0  0.5134539375578269  0.8035546009460222  0.6598022915036879  1.0000
  Cu  Cu3       1.0  0.0134546432083198  0.6964408038823182  0.15980871062439658  1.0000
  Cu  Cu4       1.0  0.4865516302938743  0.196402241189233  0.3401949897445888  1.0000
  H   H1        1.0  0.9245911701886627  0.2827882660912806  0.2254720989476837  1.0000
  H   H2        1.0  0.5752380500029943  0.782745598536998  0.2744858241929435  1.0000
  H   H3        1.0  0.07521898138751477  0.7172459009909886  0.7744900983757858  1.0000
  H   H4        1.0  0.4246035077603239  0.21721592995868386  0.7254720300150481  1.0000
  H   H5        1.0  0.1419024590262055  0.44222840154512977  0.20186797226929798  1.0000
  H   H6        1.0  0.35798516888014115  0.9422052604926138  0.2981418969530337  1.0000
  H   H7        1.0  0.8579681785400124  0.5577878011555129  0.7981517195757063  1.0000
  H   H8        1.0  0.6419250172180284  0.057781261925335115  0.7018683770616932  1.0000
  H   H9        1.0  0.17226875241225764  0.4494399291797819  0.9955837370135612  1.0000
  H   H10       1.0  0.3278235973065406  0.9494816161131538  0.5044470395280669  1.0000
  H   H11       1.0  0.8278194020796974  0.5505106644748992  0.0044557414519204004  1.0000
  H   H12       1.0  0.6722854946435035  0.0505681721705358  0.4955816742884593  1.0000
  H   H13       1.0  0.9540455209555957  0.16335168428893357  0.47100401376631845  1.0000
  H   H14       1.0  0.5460349487331584  0.6634128977240723  0.0290295876378792  1.0000
  H   H15       1.0  0.04602751203884738  0.8365715722632743  0.5290410814733875  1.0000
  H   H16       1.0  0.4540729800247688  0.3366368905596175  0.9709952819025672  1.0000
  H   H17       1.0  0.1362388766123246  0.0215736602184364  0.5843374316765875  1.0000
  H   H18       1.0  0.3637592545450587  0.5216325304733688  0.9157672973493051  1.0000
  H   H19       1.0  0.8637166739783808  0.9783449099733377  0.4157945921540716  1.0000
  H   H20       1.0  0.6362695771489654  0.4784102282696808  0.08432514636196228  1.0000
  H   H21       1.0  0.1353141388799344  0.09893531706126882  0.7782289829855955  1.0000
  H   H22       1.0  0.3646514228981985  0.5989137381288928  0.7218450217715429  1.0000
  H   H23       1.0  0.8646425749028879  0.9010879151800141  0.22185814661087017  1.0000
  H   H24       1.0  0.6352924957713455  0.4010735653491224  0.278227997739279  1.0000
  H   H25       1.0  0.7476929131538481  0.21112678564591655  0.9781225989713673  1.0000
  H   H26       1.0  0.7523166018158205  0.711139573356661  0.5218295709756902  1.0000
  H   H27       1.0  0.2523091651215097  0.7888566125317453  0.0218288801836266  1.0000
  H   H28       1.0  0.2476924556122313  0.2888688187432749  0.4781236507375509  1.0000
  H   H29       1.0  0.7595737574289245  0.1792962445763635  0.1107694974814208  1.0000
  H   H30       1.0  0.7404136568905386  0.679290286845408  0.3891888312992791  1.0000
  H   H31       1.0  0.24040273061987696  0.8206957452620784  0.88918574614965  1.0000
  H   H32       1.0  0.2595698103109569  0.32069389239232754  0.61077120104693  1.0000
  H   H33       1.0  0.0135709624199478  0.07565894588825732  0.17462506804911015  1.0000
  H   H34       1.0  0.48640739447146325  0.5756732957191417  0.3253571928416648  1.0000
  H   H35       1.0  0.9864066888209706  0.9243283575897581  0.8253522967994015  1.0000
  H   H36       1.0  0.5135597880404034  0.4243390016811404  0.6746320274147166  1.0000
  H   H37       1.0  0.8377053718754581  0.08488092214542323  0.8620458072488404  1.0000
  H   H38       1.0  0.662280879251888  0.5848851181953876  0.6379383772854793  1.0000
  H   H39       1.0  0.1622780953260374  0.915106381332599  0.1379317404994964  1.0000
  H   H40       1.0  0.3377002615653737  0.4151224928444748  0.3620512819304977  1.0000
  H   H41       1.0  0.7786756983614964  0.3467274056156243  0.6555943194496976  1.0000
  H   H42       1.0  0.7213489381056846  0.8467480039270826  0.844388787605844  1.0000
  H   H43       1.0  0.22136360206157946  0.6532630221026778  0.34438498413702934  1.0000
  H   H44       1.0  0.27866709847506127  0.15328147679476703  0.1555981613130086  1.0000
  H   H45       1.0  0.7494225798306644  0.2941511280027953  0.5307536613424588  1.0000
  H   H46       1.0  0.7506253204788393  0.7941826611552403  0.9692324619300763  1.0000
  H   H47       1.0  0.2506388212426174  0.7058244595741598  0.4692293834205116  1.0000
  H   H48       1.0  0.2494058375994186  0.2058530680471691  0.030756485606787  1.0000
  H   H49       1.0  0.8492407480920148  0.3767013668966399  0.3876909114410694  1.0000
  H   H50       1.0  0.6507943571042105  0.8767211841480249  0.11229176329494091  1.0000
  H   H51       1.0  0.1508113474443391  0.6232851555213088  0.6122880329860579  1.0000
  H   H52       1.0  0.3492263322450029  0.12330517233353792  0.8876930473261027  1.0000
  H   H53       1.0  0.0186134002437583  0.4710237431791456  0.6873703624818147  1.0000
  H   H54       1.0  0.4813870572978587  0.9710216907485432  0.8126148780459842  1.0000
  H   H55       1.0  0.9814061259133382  0.5289823057405769  0.31261288848082097  1.0000
  H   H56       1.0  0.5185998994799874  0.0289859202913192  0.1873726794521531  1.0000
  C   C1        1.0  0.9734219752276019  0.3160200289280368  0.15795820303505076  1.0000
  C   C2        1.0  0.5264723837225631  0.8159984499956607  0.34202385322115697  1.0000
  C   C3        1.0  0.0264556414913173  0.6839953927125323  0.8420274390247044  1.0000
  C   C4        1.0  0.4734354759913728  0.1839833860618612  0.6579566476039389  1.0000
  C   C5        1.0  0.08207483572051898  0.3944970395521139  0.1443926319222371  1.0000
  C   C6        1.0  0.4178604830625899  0.8944832712204518  0.35560883706880736  1.0000
  C   C7        1.0  0.9178458191067023  0.6055113525478149  0.8556179713121921  1.0000
  C   C8        1.0  0.5820939043359985  0.1055134049784172  0.6443906423570667  1.0000
  C   C9        1.0  0.09990191809371397  0.3988139585639986  0.039131289124505  1.0000
  C   C10       1.0  0.4001369247877378  0.8988376811157368  0.4608810508757628  1.0000
  C   C11       1.0  0.9001280767924271  0.60115694265253  0.9608896064797534  1.0000
  C   C12       1.0  0.5999186603249598  0.1011957049064591  0.5391315110170751  1.0000
  C   C13       1.0  0.9879118594193557  0.16104130859919513  0.5517039575800524  1.0000
  C   C14       1.0  0.5121488360034263  0.6610822144724935  0.9483404450530628  1.0000
  C   C15       1.0  0.012132093772180497  0.8389085039954196  0.4483478385527278  1.0000
  C   C16       1.0  0.4879265233752506  0.3389503904896358  0.05169786949356589  1.0000
  C   C17       1.0  0.07870739454406107  0.091376217695057  0.6095491212592634  1.0000
  C   C18       1.0  0.4213012053423739  0.5914007213068686  0.8905201446428421  1.0000
  C   C19       1.0  0.9212807254259018  0.9085829676204042  0.39053747291784185  1.0000
  C   C20       1.0  0.5787252999674237  0.40861626245384747  0.1095402412611222  1.0000
  C   C21       1.0  0.0783212147614734  0.12969111947325024  0.7092856687668528  1.0000
  C   C22       1.0  0.4216745900116763  0.6296890670426478  0.7907710101280542  1.0000
  C   C23       1.0  0.9216657420163654  0.8703125862662519  0.2907833734281553  1.0000
  C   C24       1.0  0.5783193459188638  0.3703122955166407  0.2092837823015117  1.0000
  C   C25       1.0  0.8269470079925296  0.18942737475605756  0.04254334459227489  1.0000
  C   C26       1.0  0.6730508750559778  0.6894300086858822  0.4574198826434639  1.0000
  C   C27       1.0  0.17304111197742594  0.8105614908420975  0.9574183571522498  1.0000
  C   C28       1.0  0.326945387258796  0.3105690106932002  0.5425451213177155  1.0000
  C   C29       1.0  0.9160777670900443  0.0912082897798143  0.020452365422720203  1.0000
  C   C30       1.0  0.5839212791505801  0.5912124858297788  0.4795261291774437  1.0000
  C   C31       1.0  0.08392198480107987  0.9087805758183478  0.9795226482882525  1.0000
  C   C32       1.0  0.41607033039572616  0.4087912199097303  0.5204592900228917  1.0000
  C   C33       1.0  0.007147815554176898  0.0425755844649771  0.0978838123208448  1.0000
  C   C34       1.0  0.492846826026863  0.5425844668753683  0.4020989606894574  1.0000
  C   C35       1.0  0.9928449571842464  0.9574148432533249  0.9020894588318881  1.0000
  C   C36       1.0  0.5071366411746325  0.4574215820443541  0.5978892486080056  1.0000
  C   C37       1.0  0.9094091866877534  0.047765728636136415  0.9225752471165123  1.0000
  C   C38       1.0  0.5905782276317098  0.5477730489263807  0.5774074509193312  1.0000
  C   C39       1.0  0.0905789332822096  0.9522223559019525  0.0774001623340226  1.0000
  C   C40       1.0  0.4094075659540195  0.4522345621134748  0.4225793084596248  1.0000
  C   C41       1.0  0.8372633588712901  0.3237634584709781  0.586734716179862  1.0000
  C   C42       1.0  0.662774072709169  0.8237824946622895  0.913254124029869  1.0000
  C   C43       1.0  0.1627898998571737  0.6762246260671105  0.41325111868023606  1.0000
  C   C44       1.0  0.3372512694085117  0.1762438618192732  0.0867361636856074  1.0000
  C   C45       1.0  0.9236199047716198  0.414232084363647  0.5423043176924764  1.0000
  C   C46       1.0  0.576398915734984  0.9142448720743914  0.9576786064632259  1.0000
  C   C47       1.0  0.07641939565145607  0.5857583433546553  0.4576757474334627  1.0000
  C   C48       1.0  0.423603162540374  0.085772892746391  0.042306380417578296  1.0000
  C   C49       1.0  0.9153088971012193  0.43123263786694116  0.4368675332736061  1.0000
  C   C50       1.0  0.5847157393659614  0.9312469876978255  0.0631163353211548  1.0000
  C   C51       1.0  0.0847362192824335  0.5687570087912874  0.5631127147521653  1.0000
  C   C52       1.0  0.4152898284857471  0.06877233924309681  0.9368702843780027  1.0000
  C   C53       1.0  0.0094090610281086  0.4837573655150891  0.60516060790399  1.0000
  C   C54       1.0  0.4905972124740927  0.9837615615650606  0.8948232924451958  1.0000
  C   C55       1.0  0.990617444281689  0.5162424349240595  0.3948205779207683  1.0000
  C   C56       1.0  0.50939207068798  0.016249954775155104  0.10516205359520821  1.0000
  N   N1        1.0  0.0091973600629558  0.32674242158140754  0.9907753282792057  1.0000
  N   N2        1.0  0.4908787049662208  0.8267778600342055  0.5092191437994131  1.0000
  N   N3        1.0  0.9908733465472536  0.6732175447941273  0.009225524525625396  1.0000
  N   N4        1.0  0.5092071231415076  0.173261774468557  0.4907745691527551  1.0000
  N   N5        1.0  0.9301116799722422  0.2780472314608957  0.0646220464438301  1.0000
  N   N6        1.0  0.5698768975393305  0.7780498653907204  0.4353469804659582  1.0000
  N   N7        1.0  0.06986829765290278  0.7219447583775462  0.9353508223292692  1.0000
  N   N8        1.0  0.430119364775436  0.22195305928871537  0.5646225927305579  1.0000
  N   N9        1.0  0.9909373221136447  0.2169292809126588  0.7130420863921643  1.0000
  N   N10       1.0  0.5090849879693025  0.716914731520923  0.7869775013861471  1.0000
  N   N11       1.0  0.0090984887330734  0.7830947323886905  0.2869812767295912  1.0000
  N   N12       1.0  0.4909170903060556  0.2830819446779458  0.21304099322048134  1.0000
  N   N13       1.0  0.937005919645081  0.23521233505238115  0.6156396143968407  1.0000
  N   N14       1.0  0.563045470240773  0.7352259038231992  0.8843664186353876  1.0000
  N   N15       1.0  0.0630519918518502  0.7647780926659209  0.3843707360382567  1.0000
  N   N16       1.0  0.43699848295076993  0.2647918609975832  0.1156366389871124  1.0000
  Cl  Cl1       1.0  0.2401456651621885  0.3460119545906792  0.8199903004820613  1.0000
  Cl  Cl2       1.0  0.259815243847477  0.8458349447041941  0.6799381039636073  1.0000
  Cl  Cl3       1.0  0.7598180277733275  0.6541667086047127  0.1799485484457009  1.0000
  Cl  Cl4       1.0  0.7401484490880392  0.1540078626607055  0.3199832295620268  1.0000
  Cl  Cl5       1.0  0.7315850287284247  0.34644622399009967  0.8329487180083816  1.0000
  Cl  Cl6       1.0  0.7684128543200827  0.8464340177785772  0.6670464938747287  1.0000
  Cl  Cl7       1.0  0.268410070394232  0.6535590438695493  0.1670444263240825  1.0000
  Cl  Cl8       1.0  0.23158340799469093  0.1535579720598648  0.3329504947338222  1.0000
