data_image0
_chemical_formula_structural       Al2Cd2B10H36C10N8O20
_chemical_formula_sum              "Al2 Cd2 B10 H36 C10 N8 O20"
_cell_length_a       8.538294049673814
_cell_length_b       8.707318349001014
_cell_length_c       10.554390136171435
_cell_angle_alpha    90.00000938536613
_cell_angle_beta     91.74887388454728
_cell_angle_gamma    89.99994493874904

_space_group_name_H-M_alt    "P 1"
_space_group_IT_number       1

loop_
  _space_group_symop_operation_xyz
  'x, y, z'

loop_
  _atom_site_type_symbol
  _atom_site_label
  _atom_site_symmetry_multiplicity
  _atom_site_fract_x
  _atom_site_fract_y
  _atom_site_fract_z
  _atom_site_occupancy
  Al  Al1       1.0  0.8106384178220977  0.2604368683464884  0.07052009868203162  1.0000
  Al  Al2       1.0  0.3106381780548589  0.7395628557958741  0.5705198859887304  1.0000
  Cd  Cd1       1.0  0.46405978335005227  0.2654834385736463  0.823500285244826  1.0000
  Cd  Cd2       1.0  0.9640583906711696  0.7345173402082421  0.3235005232229257  1.0000
  B   B1        1.0  0.6995981306300649  0.02325605871660489  0.8926841878983893  1.0000
  B   B2        1.0  0.19959910668615777  0.9767438359206151  0.392683863187763  1.0000
  B   B3        1.0  0.5582018944933794  0.8747237711817417  0.7272726966308412  1.0000
  B   B4        1.0  0.05820370535823831  0.12527737213563478  0.2272741750059808  1.0000
  B   B5        1.0  0.8110513384921914  0.7714955532398732  0.824014703057422  1.0000
  B   B6        1.0  0.311050701896349  0.22850422198345643  0.3240151931169066  1.0000
  B   B7        1.0  0.9180335313853334  0.5255690495047315  0.9171008804260269  1.0000
  B   B8        1.0  0.41803265579872567  0.474428346460712  0.4171013970668157  1.0000
  B   B9        1.0  0.06568267794720128  0.6608567836404969  0.7566364988701011  1.0000
  B   B10       1.0  0.5656805014347839  0.33914321010247045  0.2566376157155403  1.0000
  H   H1        1.0  0.0364732241643324  0.07141125042529238  0.7255914663619407  1.0000
  H   H2        1.0  0.5364728109446376  0.9285887646548328  0.2255908037146028  1.0000
  H   H3        1.0  0.06892824328082268  0.2524118606475054  0.8028344268018232  1.0000
  H   H4        1.0  0.5689268342242997  0.7475869909446967  0.3028337186335719  1.0000
  H   H5        1.0  0.24913147740922884  0.956650417344711  0.8585359986013686  1.0000
  H   H6        1.0  0.7491295773224848  0.04335057194431607  0.35853424079808605  1.0000
  H   H7        1.0  0.0840293793017537  0.019147168134324488  0.9441498328049178  1.0000
  H   H8        1.0  0.5840265681483101  0.9808516978615309  0.4441481763333712  1.0000
  H   H9        1.0  0.7683397572717537  0.12733052525643265  0.6612137139535434  1.0000
  H   H10       1.0  0.2683384873248542  0.8726669604115069  0.1612123785204886  1.0000
  H   H11       1.0  0.8335899968988939  0.3040106149518778  0.7242670346794426  1.0000
  H   H12       1.0  0.3335900593575544  0.695986821769679  0.22426286342927432  1.0000
  H   H13       1.0  0.9700313201541989  0.21137121574792414  0.5224676315585058  1.0000
  H   H14       1.0  0.4700242437999336  0.7886317931791422  0.022458576783890308  1.0000
  H   H15       1.0  0.7901713221071773  0.241431063919748  0.4393584439451034  1.0000
  H   H16       1.0  0.29016167897199097  0.758564160650266  0.9393551829721217  1.0000
  H   H17       1.0  0.7971178006307511  0.5201988706515408  0.5154735265633336  1.0000
  H   H18       1.0  0.29711690144689135  0.4797997066494089  0.015469305989057606  1.0000
  H   H19       1.0  0.9920499593886161  0.48721848081027  0.5714672264688474  1.0000
  H   H20       1.0  0.4920478637697343  0.5127833687682396  0.0714648786206808  1.0000
  H   H21       1.0  0.22439022522826235  0.26308095490059447  0.6225860888408264  1.0000
  H   H22       1.0  0.7243899982731462  0.7369200098920952  0.1225854054765492  1.0000
  H   H23       1.0  0.29633999059078064  0.08881027647483818  0.6457578142567614  1.0000
  H   H24       1.0  0.7963384262204655  0.9111906249352867  0.1457580713309241  1.0000
  H   H25       1.0  0.3629898873118832  0.08914897776816126  0.0287710671821628  1.0000
  H   H26       1.0  0.8629892167473016  0.910851836814771  0.5287705662281753  1.0000
  H   H27       1.0  0.23414579372722946  0.22569279994505811  0.0258817780280367  1.0000
  H   H28       1.0  0.7341452558567312  0.774306987521008  0.5258812623153944  1.0000
  H   H29       1.0  0.5467400968766752  0.2544937671667069  0.5668845948650727  1.0000
  H   H30       1.0  0.0467354426552546  0.7455050575154231  0.0668850629344959  1.0000
  H   H31       1.0  0.6050295204147959  0.4229818994333667  0.6187247547501898  1.0000
  H   H32       1.0  0.1050262016641668  0.577018029072313  0.11872523056535304  1.0000
  H   H33       1.0  0.8804615781534723  0.4341160496732569  0.3081641082340881  1.0000
  H   H34       1.0  0.3804638359340942  0.5658836566448071  0.8081601384459703  1.0000
  H   H35       1.0  0.06555045979413879  0.42871294022813067  0.3630882734824681  1.0000
  H   H36       1.0  0.565551290953138  0.5712870752531456  0.8630877617830565  1.0000
  C   C1        1.0  0.12472863801242082  0.1449527993997605  0.7735683985284041  1.0000
  C   C2        1.0  0.6247282925844572  0.8550482903622691  0.2735667803731232  1.0000
  C   C3        1.0  0.1850763370481516  0.0580282016202176  0.8905449080871009  1.0000
  C   C4        1.0  0.6850735673550191  0.9419705578675631  0.39054419497212933  1.0000
  C   C5        1.0  0.772809067895075  0.25118495683295805  0.6420789320314526  1.0000
  C   C6        1.0  0.2728067465748937  0.7488148176391859  0.1420775572544244  1.0000
  C   C7        1.0  0.8619827163274606  0.2806359905115555  0.521425173632359  1.0000
  C   C8        1.0  0.3619745429040151  0.7193625266173668  0.021417980532064004  1.0000
  C   C9        1.0  0.9017522873646512  0.4493113231605576  0.5020235320064118  1.0000
  C   C10       1.0  0.4017489758226773  0.5506894493101836  0.0020192671801809005  1.0000
  N   N1        1.0  0.25485297717876415  0.18437933430506342  0.6909108223458632  1.0000
  N   N2        1.0  0.754851502007618  0.815620467074339  0.1909101215310898  1.0000
  N   N3        1.0  0.2944529043645118  0.15345133704184374  0.9681549900148525  1.0000
  N   N4        1.0  0.7944525671955062  0.8465496316152891  0.468153370940982  1.0000
  N   N5        1.0  0.6099446953250975  0.30774320450455406  0.6383876761482271  1.0000
  N   N6        1.0  0.1099424363205515  0.6922544264233321  0.1383881903761122  1.0000
  N   N7        1.0  0.9585053331693982  0.48069752521291054  0.3740353339412792  1.0000
  N   N8        1.0  0.4585041283666341  0.5193021206267968  0.8740331763653942  1.0000
  O   O1        1.0  0.5695846465196154  0.0029421651150016988  0.8088013298583833  1.0000
  O   O2        1.0  0.06958676721814779  0.9970566870657719  0.30879913818218097  1.0000
  O   O3        1.0  0.6715413955344116  0.7640983845199895  0.7361116660912685  1.0000
  O   O4        1.0  0.17154075174936878  0.23590265333656635  0.2361121569503553  1.0000
  O   O5        1.0  0.8114591272071222  0.9134439716888635  0.9034858574081355  1.0000
  O   O6        1.0  0.3114598002918072  0.08655467082515857  0.40348635808182826  1.0000
  O   O7        1.0  0.803601123444345  0.6371109073581704  0.9104349009798938  1.0000
  O   O8        1.0  0.3036015279873823  0.3628888924624574  0.4104354315216412  1.0000
  O   O9        1.0  0.04940411205130599  0.5375639608528711  0.8412219895183953  1.0000
  O   O10       1.0  0.5494041555154254  0.46243606546873645  0.34122222404515423  1.0000
  O   O11       1.0  0.9526850733277997  0.7721501002398126  0.747808592365118  1.0000
  O   O12       1.0  0.45268443369197797  0.2278506739368708  0.2478081347947878  1.0000
  O   O13       1.0  0.6961391360000989  0.16075190085859245  0.9548369581155783  1.0000
  O   O14       1.0  0.19613790220657276  0.8392480096729924  0.45483656662935357  1.0000
  O   O15       1.0  0.4354979342179064  0.8733353336178167  0.6442216320509219  1.0000
  O   O16       1.0  0.9354959568410662  0.12666543579109657  0.14422083081201723  1.0000
  O   O17       1.0  0.9141677531003013  0.4050979846894406  0.9972855452999456  1.0000
  O   O18       1.0  0.4141667641129842  0.5949040250526206  0.4972870225214479  1.0000
  O   O19       1.0  0.1973976272850138  0.6602859301549128  0.6883513887911121  1.0000
  O   O20       1.0  0.6973954355150128  0.339715073535906  0.1883487154618422  1.0000
