data_image0
_chemical_formula_structural       Zn2H40C56N4O16
_chemical_formula_sum              "Zn2 H40 C56 N4 O16"
_cell_length_a       9.061703062796976
_cell_length_b       10.700373554966315
_cell_length_c       12.461020860543812
_cell_angle_alpha    96.08910770774663
_cell_angle_beta     108.76260802533943
_cell_angle_gamma    92.23438246837495

_space_group_name_H-M_alt    "P 1"
_space_group_IT_number       1

loop_
  _space_group_symop_operation_xyz
  'x, y, z'

loop_
  _atom_site_type_symbol
  _atom_site_label
  _atom_site_symmetry_multiplicity
  _atom_site_fract_x
  _atom_site_fract_y
  _atom_site_fract_z
  _atom_site_occupancy
  Zn  Zn1       1.0  0.0818098269796366  0.8452589135380251  0.9068035567608632  1.0000
  Zn  Zn2       1.0  0.9181952886500753  0.15474358062958524  0.0931954015048291  1.0000
  H   H1        1.0  0.5067828748400984  0.8739857075623975  0.6942662622105402  1.0000
  H   H2        1.0  0.4932146653101768  0.12601016552766  0.30573755392709506  1.0000
  H   H3        1.0  0.4974429653806708  0.7435837094338211  0.5369565791757225  1.0000
  H   H4        1.0  0.5025567987268715  0.2564111991441393  0.4630476379085309  1.0000
  H   H5        1.0  0.024316289982131405  0.26966027194621495  0.804875495194402  1.0000
  H   H6        1.0  0.9756791826850343  0.7303394920781584  0.19512022418842176  1.0000
  H   H7        1.0  0.9079773624317367  0.1793438642936778  0.440825400505517  1.0000
  H   H8        1.0  0.09201605269597482  0.820647397872243  0.5591714074979564  1.0000
  H   H9        1.0  0.7229128870559834  0.0024976883230464976  0.44555001659269083  1.0000
  H   H10       1.0  0.27706964866592193  0.9975002618268862  0.554446634105183  1.0000
  H   H11       1.0  0.32866511758967215  0.4481412030471219  0.4912196712058545  1.0000
  H   H12       1.0  0.6713346725096939  0.5518546974519508  0.5087806386924143  1.0000
  H   H13       1.0  0.15935391744653057  0.260738005632291  0.4900088393432043  1.0000
  H   H14       1.0  0.8406433769155298  0.7392570136918265  0.5099876118810727  1.0000
  H   H15       1.0  0.01173784499793838  0.4662710844015477  0.749696008256464  1.0000
  H   H16       1.0  0.98825125269758  0.5337240412896733  0.25029620923157836  1.0000
  H   H17       1.0  0.7951008196831066  0.7065631803020408  0.7028657845299762  1.0000
  H   H18       1.0  0.20490721906642048  0.2934345976721673  0.297130944732551  1.0000
  H   H19       1.0  0.6140678621367639  0.5116304848646678  0.6604702523000868  1.0000
  H   H20       1.0  0.3859422803797584  0.4883653958856797  0.3395259541953238  1.0000
  H   H21       1.0  0.7963973307007063  0.46671009280433395  0.01778824416911102  1.0000
  H   H22       1.0  0.20360347290448289  0.5332952532310031  0.9822116410670462  1.0000
  H   H23       1.0  0.9755693107077544  0.6587818625623143  0.043008861365216006  1.0000
  H   H24       1.0  0.0244281047162644  0.3412244589511886  0.9569903631691261  1.0000
  H   H25       1.0  0.5128953302277424  0.3339901604790753  0.7240514198692197  1.0000
  H   H26       1.0  0.4871017300331245  0.6660123512415906  0.2759505510098137  1.0000
  H   H27       1.0  0.6650398823919729  0.2741473704760082  0.8308129154225271  1.0000
  H   H28       1.0  0.3349594749172126  0.7258551390489886  0.16918796466699607  1.0000
  H   H29       1.0  0.3941284679106686  0.4143347539557283  0.8682689223246387  1.0000
  H   H30       1.0  0.6058748628313139  0.5856714535181097  0.13173643188540043  1.0000
  H   H31       1.0  0.5592826159610168  0.3829545027303213  0.9814583334827702  1.0000
  H   H32       1.0  0.4407232051105935  0.6170535975760386  0.01854536191536479  1.0000
  H   H33       1.0  0.17580392287735688  0.9684979431750943  0.7271831351927887  1.0000
  H   H34       1.0  0.8242063147093147  0.0315082478435187  0.2728197517986716  1.0000
  H   H35       1.0  0.3218765709201179  0.1649205913132832  0.711530641239456  1.0000
  H   H36       1.0  0.6781353273512989  0.8350893097180576  0.2884770055120854  1.0000
  H   H37       1.0  0.4804229817845567  0.23603155811331794  0.07975716442169305  1.0000
  H   H38       1.0  0.5195793363232823  0.7639755733018846  0.9202504640467949  1.0000
  H   H39       1.0  0.3292074267978434  0.0377510913312946  0.0798053470263156  1.0000
  H   H40       1.0  0.6707932463249974  0.9622523202029429  0.9201983268320436  1.0000
  C   C1        1.0  0.8720679668569459  0.0736950024017915  0.8459029394999077  1.0000
  C   C2        1.0  0.1279299544482981  0.9263056724022148  0.15409422310705173  1.0000
  C   C3        1.0  0.859133752809356  0.11043801367177507  0.7299596111813431  1.0000
  C   C4        1.0  0.1408594542089787  0.8895617328118065  0.27003880929090235  1.0000
  C   C5        1.0  0.9549608327121744  0.21315719968302457  0.7254501433577972  1.0000
  C   C6        1.0  0.045032311507185306  0.7868425862734654  0.27454505651463285  1.0000
  C   C7        1.0  0.9732833459658535  0.23986530899216518  0.6223598378046945  1.0000
  C   C8        1.0  0.026709427390613858  0.7601306770397184  0.3776373032624818  1.0000
  C   C9        1.0  0.8944791648038616  0.1597892612790588  0.5216030246601306  1.0000
  C   C10       1.0  0.1055115464771745  0.8402096040295746  0.478391537138137  1.0000
  C   C11       1.0  0.7923212926375881  0.06072594261308239  0.524180140942356  1.0000
  C   C12       1.0  0.20766573809809327  0.9392700489079715  0.475819727098596  1.0000
  C   C13       1.0  0.7715444103862479  0.0362277042360546  0.6268231941901519  1.0000
  C   C14       1.0  0.22844427562650077  0.9637730089552928  0.3731759161249926  1.0000
  C   C15       1.0  0.6508025919119547  0.936576611093379  0.6207208767292799  1.0000
  C   C16       1.0  0.34919091828590615  0.06342496134080729  0.37928261177024325  1.0000
  C   C17       1.0  0.36736856483015146  0.6727769403992028  0.6177101436129462  1.0000
  C   C18       1.0  0.6326283743687497  0.3272142691320851  0.3822890539560221  1.0000
  C   C19       1.0  0.26418543389205235  0.563454671047232  0.6186936447272444  1.0000
  C   C20       1.0  0.7358116828884247  0.4365384433804706  0.381304179669378  1.0000
  C   C21       1.0  0.2570729978339088  0.4516100572506759  0.546533050242715  1.0000
  C   C22       1.0  0.7429270169462611  0.5483877185401339  0.4534683019330572  1.0000
  C   C23       1.0  0.16285755112833297  0.34644548499395  0.5464477530034841  1.0000
  C   C24       1.0  0.8371382969377096  0.6535466978198343  0.45354969307416587  1.0000
  C   C25       1.0  0.07473686272413  0.35002401360563334  0.6210343296872126  1.0000
  C   C26       1.0  0.9252560308226094  0.6499729051380072  0.37896373509369863  1.0000
  C   C27       1.0  0.08332222537973881  0.4612188933766461  0.6939963252885732  1.0000
  C   C28       1.0  0.9166691433722816  0.5387752381977933  0.30599870859594364  1.0000
  C   C29       1.0  0.1750360426558757  0.5685633960752838  0.6928574588136343  1.0000
  C   C30       1.0  0.8249589389581188  0.4314316353127339  0.307139278050201  1.0000
  C   C31       1.0  0.15894908068768387  0.6848844583082608  0.7660683411120245  1.0000
  C   C32       1.0  0.8410527086881385  0.315108602386978  0.2339313274553447  1.0000
  C   C33       1.0  0.790769604513777  0.6511953638758924  0.7704528754804656  1.0000
  C   C34       1.0  0.2092363147690078  0.34880432119039273  0.22954357139922624  1.0000
  C   C35       1.0  0.6896613715009252  0.5428002258410131  0.7476632021525803  1.0000
  C   C36       1.0  0.3103442186105239  0.45719664135355476  0.2523320838858254  1.0000
  C   C37       1.0  0.687424275328908  0.47226432191727946  0.8357236537586206  1.0000
  C   C38       1.0  0.3125794984953316  0.5277362783199777  0.16427641792422784  1.0000
  C   C39       1.0  0.7901011498721214  0.5175820334225776  0.9451743864450889  1.0000
  C   C40       1.0  0.20989927746249745  0.48242052434572696  0.0548219224999116  1.0000
  C   C41       1.0  0.8895653734556601  0.6249582614512972  0.9602675774083026  1.0000
  C   C42       1.0  0.11043529425951701  0.37504616174051364  0.03973057896416071  1.0000
  C   C43       1.0  0.5863610586460978  0.35095683700306773  0.8143053242701227  1.0000
  C   C44       1.0  0.4136374636105202  0.649048501359708  0.1856964569054966  1.0000
  C   C45       1.0  0.48634937425695307  0.3485192138329154  0.893542970359306  1.0000
  C   C46       1.0  0.5136540452758139  0.6514879460891265  0.10646169726456382  1.0000
  C   C47       1.0  0.2452232984556985  0.0310853136936231  0.8029592536769457  1.0000
  C   C48       1.0  0.754784490492895  0.9689199665453571  0.19704219009038584  1.0000
  C   C49       1.0  0.3269245179922321  0.14091132526549194  0.7954659309296517  1.0000
  C   C50       1.0  0.6730809008169983  0.8590929948527235  0.20453809536331855  1.0000
  C   C51       1.0  0.40956903438669184  0.2214829614565375  0.8949075699637208  1.0000
  C   C52       1.0  0.5904377576275052  0.7785232328555692  0.105096953212005  1.0000
  C   C53       1.0  0.4127320455902889  0.18081823488871146  0.9989021609487737  1.0000
  C   C54       1.0  0.5872700895283103  0.8191880032876427  0.0011013232061714271  1.0000
  C   C55       1.0  0.3295785156943367  0.06913882643508631  0.9997083556149208  1.0000
  C   C56       1.0  0.6704246006589115  0.9308665075363578  0.0002912439816711533  1.0000
  N   N1        1.0  0.8921263945667375  0.6918948118463532  0.8752199787897937  1.0000
  N   N2        1.0  0.10787530148231639  0.30810867753586285  0.12477670847418665  1.0000
  N   N3        1.0  0.2431915974527854  0.9959010720584514  0.9032996752701125  1.0000
  N   N4        1.0  0.756813685466433  0.0041023252162303995  0.096702622159178  1.0000
  O   O1        1.0  0.8994614689535678  0.961393073520071  0.8624227078991141  1.0000
  O   O2        1.0  0.10054326011350409  0.0386056305911637  0.1375773864113725  1.0000
  O   O3        1.0  0.85911801771568  0.16056430789551254  0.9201930050080807  1.0000
  O   O4        1.0  0.1408842784130613  0.8394334755678585  0.07980645122822953  1.0000
  O   O5        1.0  0.584964879084822  0.9512755541323373  0.700645126273834  1.0000
  O   O6        1.0  0.41503033261765404  0.04872034088984378  0.2993581703534076  1.0000
  O   O7        1.0  0.6118421268566436  0.8476553908641831  0.5404234473982257  1.0000
  O   O8        1.0  0.388149738356219  0.15234246168904517  0.45957608649116827  1.0000
  O   O9        1.0  0.42360120084987324  0.6640486153188832  0.5318075450965765  1.0000
  O   O10       1.0  0.5764030842632621  0.3359453265513109  0.4681959821447706  1.0000
  O   O11       1.0  0.3994212045711477  0.765251490769863  0.6940213088054108  1.0000
  O   O12       1.0  0.6005807677939287  0.23474246316422404  0.3059825040754944  1.0000
  O   O13       1.0  0.0715242512778431  0.7665783347162007  0.7182347621723367  1.0000
  O   O14       1.0  0.9284856885369804  0.2334250186942413  0.2817685742777414  1.0000
  O   O15       1.0  0.21827392407536186  0.6889608913118722  0.8741655943989031  1.0000
  O   O16       1.0  0.7817245345105944  0.3110341170461837  0.12583111658057078  1.0000
