data_image0
_chemical_formula_structural       Zn4H66C64N4O22
_chemical_formula_sum              "Zn4 H66 C64 N4 O22"
_cell_length_a       9.882237885134776
_cell_length_b       11.007964258863806
_cell_length_c       23.946901274858295
_cell_angle_alpha    90.08755905044167
_cell_angle_beta     89.3772377566802
_cell_angle_gamma    89.9693314688911

_space_group_name_H-M_alt    "P 1"
_space_group_IT_number       1

loop_
  _space_group_symop_operation_xyz
  'x, y, z'

loop_
  _atom_site_type_symbol
  _atom_site_label
  _atom_site_symmetry_multiplicity
  _atom_site_fract_x
  _atom_site_fract_y
  _atom_site_fract_z
  _atom_site_occupancy
  Zn  Zn1       1.0  0.6258779221680795  0.5016450704288502  0.5030545648129987  1.0000
  Zn  Zn2       1.0  0.3359177519320085  0.4825753391945539  0.4897317763865416  1.0000
  Zn  Zn3       1.0  0.37413727696769417  0.5031258895446555  0.0442770676055986  1.0000
  Zn  Zn4       1.0  0.6640397198028721  0.4841148137512547  0.057716961229402786  1.0000
  H   H1        1.0  0.8645110700426671  0.2787657139731934  0.4079477537816416  1.0000
  H   H2        1.0  0.718751123809234  0.3677842968069314  0.42265684061114667  1.0000
  H   H3        1.0  0.8393566940417043  0.4170120076013006  0.37214295523326507  1.0000
  H   H4        1.0  0.14106631429699945  0.5369993975192812  0.616370564234323  1.0000
  H   H5        1.0  0.2403360547863115  0.6226854899282086  0.5698000551274375  1.0000
  H   H6        1.0  0.08889059392073047  0.6863881098930021  0.5980285743439708  1.0000
  H   H7        1.0  0.0650227755163826  0.37679906872018876  0.36881497418190173  1.0000
  H   H8        1.0  0.22297043957528465  0.3895030990040168  0.4032245787934698  1.0000
  H   H9        1.0  0.11437558337598115  0.265176852574207  0.41771923588871107  1.0000
  H   H10       1.0  0.8917030938147406  0.726962770017181  0.5804927127213375  1.0000
  H   H11       1.0  0.7382487385108476  0.6466083787016004  0.5724118832197647  1.0000
  H   H12       1.0  0.8606979071395314  0.5969475948884763  0.6215710131950161  1.0000
  H   H13       1.0  0.207176796829124  0.08511187732872828  0.5846443101439576  1.0000
  H   H14       1.0  0.2843254824012503  0.22411970187868482  0.5652303376658878  1.0000
  H   H15       1.0  0.1672783521537937  0.154823260683763  0.5203235904007001  1.0000
  H   H16       1.0  0.7800235884228003  0.8325165457129272  0.49649461130790223  1.0000
  H   H17       1.0  0.6719491681195394  0.7551985125956479  0.4500710078538788  1.0000
  H   H18       1.0  0.7516002546429091  0.8917106407513486  0.42908914244306107  1.0000
  H   H19       1.0  0.13265907292129947  0.9395955347312606  0.5225129124330508  1.0000
  H   H20       1.0  0.20431614536160236  0.7921218871097505  0.5207704729470705  1.0000
  H   H21       1.0  0.20422238036020698  0.8786653415638238  0.5836702773233355  1.0000
  H   H22       1.0  0.7470863616827473  0.09828552047949297  0.4240132605241982  1.0000
  H   H23       1.0  0.7409627020625322  0.19244122684334283  0.4844043601360184  1.0000
  H   H24       1.0  0.8133320840925505  0.04478565096474799  0.4875891218474847  1.0000
  H   H25       1.0  0.8016408282001207  0.7238515056355651  0.3188544194064277  1.0000
  H   H26       1.0  0.7631068863885347  0.6134647049940369  0.3701777045721073  1.0000
  H   H27       1.0  0.8398601127018779  0.5706277151476087  0.3047926169105111  1.0000
  H   H28       1.0  0.1971331975365587  0.7255161502784375  0.22899060050970377  1.0000
  H   H29       1.0  0.23543350494805534  0.615496997544291  0.17726076090048784  1.0000
  H   H30       1.0  0.1582840886582844  0.5722562900705412  0.24246798208307746  1.0000
  H   H31       1.0  0.8169461798751667  0.5704299681474579  0.207876614637037  1.0000
  H   H32       1.0  0.7241354310422707  0.6704820173191733  0.16470684443098088  1.0000
  H   H33       1.0  0.7983289669564898  0.7241730950780578  0.2274083435425922  1.0000
  H   H34       1.0  0.1815330242943105  0.5695022752538179  0.33965559168624526  1.0000
  H   H35       1.0  0.27414236767867095  0.6695074259584358  0.3830224864097076  1.0000
  H   H36       1.0  0.19960564452517807  0.723395776665768  0.3204995235709731  1.0000
  H   H37       1.0  0.1351239331962688  0.28012450954388163  0.1392608019956043  1.0000
  H   H38       1.0  0.2813404657863003  0.36795141851762025  0.12412378278055768  1.0000
  H   H39       1.0  0.1618788392121857  0.418535927963127  0.1749454444265623  1.0000
  H   H40       1.0  0.8575875553280452  0.5385993462876115  0.9313605897997232  1.0000
  H   H41       1.0  0.7598843975318771  0.6255984177172563  0.9781515974500647  1.0000
  H   H42       1.0  0.9115167330189136  0.6876972288960487  0.949488280706653  1.0000
  H   H43       1.0  0.9348509886029035  0.3795484549271178  0.1785595940909346  1.0000
  H   H44       1.0  0.7770635963129209  0.3913214841295056  0.1439655295388462  1.0000
  H   H45       1.0  0.886237603111553  0.26706505363336663  0.1298040380767134  1.0000
  H   H46       1.0  0.10853005945374859  0.7281240233256694  0.9670920242051152  1.0000
  H   H47       1.0  0.2619132887402031  0.6475872488506341  0.9752121155382412  1.0000
  H   H48       1.0  0.139622603013656  0.5978970825963187  0.9259997754033619  1.0000
  H   H49       1.0  0.7974406804531639  0.0840244271850139  0.9646357603065282  1.0000
  H   H50       1.0  0.719215595143325  0.22369763581324514  0.982685010977967  1.0000
  H   H51       1.0  0.834133130624501  0.15574792653303857  0.028914336883872196  1.0000
  H   H52       1.0  0.22058297601201818  0.8339011430690062  0.04916761546164849  1.0000
  H   H53       1.0  0.3266813210595956  0.7582265450022021  0.0968296014224208  1.0000
  H   H54       1.0  0.2458557857884713  0.8953445390952125  0.11645619567389079  1.0000
  H   H55       1.0  0.868643581832437  0.9403054732030967  0.028597044080989096  1.0000
  H   H56       1.0  0.7971383423194212  0.7927885462321241  0.029299880354408  1.0000
  H   H57       1.0  0.8015456567112974  0.8793403694839198  0.9665261295508356  1.0000
  H   H58       1.0  0.2495259369276539  0.10200697189383588  0.12056421377047137  1.0000
  H   H59       1.0  0.2584178124526987  0.19414094080453026  0.0597112127025099  1.0000
  H   H60       1.0  0.1869580923974823  0.0461552559854042  0.05669189743233009  1.0000
  H   H61       1.0  0.14699695086549272  0.37656463774946036  0.6907618109361876  1.0000
  H   H62       1.0  0.1924439238540785  0.402036922247589  0.8115152213321505  1.0000
  H   H63       1.0  0.31050318181205216  0.43878203976230173  0.9098680431789318  1.0000
  H   H64       1.0  0.8534330318536546  0.37888027987741413  0.8564929543356996  1.0000
  H   H65       1.0  0.8078452921503823  0.40344456521511046  0.7357729071533186  1.0000
  H   H66       1.0  0.6895737187356374  0.4386275028742546  0.6374351344442104  1.0000
  C   C1        1.0  0.4560040064517706  0.7270208525801037  0.5066930495977076  1.0000
  C   C2        1.0  0.4823039087910246  0.44278206613500243  0.6065449990056777  1.0000
  C   C3        1.0  0.48029018352658437  0.2553797827422101  0.49213487306543857  1.0000
  C   C4        1.0  0.505445184305728  0.5550723621139396  0.3913511287942342  1.0000
  C   C5        1.0  0.5444340748045134  0.7283905952081186  0.041223139794752194  1.0000
  C   C6        1.0  0.5179312921823823  0.44420234069528414  0.9408052973920673  1.0000
  C   C7        1.0  0.5203841808366008  0.2569524983067594  0.05482850674601989  1.0000
  C   C8        1.0  0.4928922986159775  0.5565441407205824  0.15599075439264706  1.0000
  C   C9        1.0  0.9049975951841204  0.43744305236820935  0.45647866573636253  1.0000
  C   C10       1.0  0.05747904255503041  0.5500358666513704  0.5354418782443204  1.0000
  C   C11       1.0  0.04759463737131139  0.432521330020151  0.45436790971655217  1.0000
  C   C12       1.0  0.9149159104614455  0.559905580275263  0.5359505572513042  1.0000
  C   C13       1.0  0.4833029161462292  0.11957616025323152  0.5013723836670536  1.0000
  C   C14       1.0  0.4615778069571307  0.8640849612411613  0.5037062373649519  1.0000
  C   C15       1.0  0.3636752506855884  0.0642281079724327  0.522301098904549  1.0000
  C   C16       1.0  0.5841004597911663  0.9189419311989228  0.4861910448011173  1.0000
  C   C17       1.0  0.3506369656611171  0.9367728700441231  0.5209199597618337  1.0000
  C   C18       1.0  0.5958017334236629  0.04670941006715879  0.485940352606768  1.0000
  C   C19       1.0  0.4220327670318227  0.4189767148990739  0.8452804694614854  1.0000
  C   C20       1.0  0.6660026157451141  0.4055802642794007  0.8542126793476824  1.0000
  C   C21       1.0  0.6803771242662933  0.405536043527725  0.796491992207514  1.0000
  C   C22       1.0  0.5663121003608963  0.41159414960168306  0.7611343332501191  1.0000
  C   C23       1.0  0.5782443331569523  0.41880595538509613  0.7020529404501586  1.0000
  C   C24       1.0  0.3343294655542621  0.4039682827431078  0.6930811208891257  1.0000
  C   C25       1.0  0.31995663731026264  0.4042432279501539  0.7508203875216779  1.0000
  C   C26       1.0  0.4339565239364092  0.4112883833951813  0.7861830412131708  1.0000
  C   C27       1.0  0.5363011738652401  0.4203709492077721  0.8801845872593785  1.0000
  C   C28       1.0  0.4639494575682193  0.4192867336233589  0.6671455882909214  1.0000
  C   C29       1.0  0.5064478860550921  0.6015256840155344  0.3321432017152688  1.0000
  C   C30       1.0  0.4917813863280855  0.6025330549650149  0.215319804045123  1.0000
  C   C31       1.0  0.6266743763242388  0.6165374059499341  0.3000381027452902  1.0000
  C   C32       1.0  0.3715837513286289  0.6172452725997813  0.24748443364637035  1.0000
  C   C33       1.0  0.6183924353303922  0.6200546196878775  0.241346066429756  1.0000
  C   C34       1.0  0.3798201060405474  0.6196537529909917  0.306204115134797  1.0000
  C   C35       1.0  0.0951487307566268  0.43858638491495583  0.0907697566902215  1.0000
  C   C36       1.0  0.9424972303032745  0.5516476751887112  0.0120778129350612  1.0000
  C   C37       1.0  0.9525501655915392  0.4340412567494525  0.0929299516906781  1.0000
  C   C38       1.0  0.0850602910341891  0.5612502952738225  0.0115413277673184  1.0000
  C   C39       1.0  0.51749720839981  0.12107950433851039  0.0456066329382097  1.0000
  C   C40       1.0  0.5390849634909928  0.8654695958332183  0.04410958995029551  1.0000
  C   C41       1.0  0.6379583830151105  0.0651278048893573  0.025733261803054595  1.0000
  C   C42       1.0  0.4158675527389733  0.920862272144539  0.06052634995987209  1.0000
  C   C43       1.0  0.6508532076817132  0.9376800494101899  0.027606724994747398  1.0000
  C   C44       1.0  0.40420109945532795  0.04864368611722371  0.06027975199389599  1.0000
  C   C45       1.0  0.8265732570948643  0.37191370809942736  0.41277083323436864  1.0000
  C   C46       1.0  0.13609715974826028  0.6033166712593427  0.5820632974620565  1.0000
  C   C47       1.0  0.11702863064277119  0.36321142441946813  0.4085811869703946  1.0000
  C   C48       1.0  0.8463953951168932  0.6357627397864859  0.5797304737854319  1.0000
  C   C49       1.0  0.2503357597920229  0.1362776835950967  0.5494018256232066  1.0000
  C   C50       1.0  0.7023116748409277  0.8452457998557177  0.46436244082934747  1.0000
  C   C51       1.0  0.2160305103359192  0.8831879225163773  0.5379001043516495  1.0000
  C   C52       1.0  0.7314325525515386  0.0992780625996588  0.46966893984565417  1.0000
  C   C53       1.0  0.7649972863477571  0.6303144773566345  0.32536041617147754  1.0000
  C   C54       1.0  0.23343196904227878  0.6318758930419219  0.222148661624594  1.0000
  C   C55       1.0  0.7453981321957456  0.6471198371255794  0.20809780780914616  1.0000
  C   C56       1.0  0.25279067522976106  0.6463114435322693  0.3395827333879495  1.0000
  C   C57       1.0  0.17370343742700808  0.37295147688193714  0.13432578006925405  1.0000
  C   C58       1.0  0.8637348834098687  0.6051635063716176  0.9656084869709074  1.0000
  C   C59       1.0  0.883149854574732  0.365226293630556  0.1387538113082911  1.0000
  C   C60       1.0  0.1537625069898496  0.6368721110815088  0.9678705842942745  1.0000
  C   C61       1.0  0.7525290866764252  0.13634177596379257  0.9992308508830448  1.0000
  C   C62       1.0  0.29678683032657455  0.8477921292931679  0.0818166478631781  1.0000
  C   C63       1.0  0.7865023430077117  0.8838365472068973  0.012147576882981098  1.0000
  C   C64       1.0  0.2675934282678086  0.1014767442201503  0.07505278552566348  1.0000
  N   N1        1.0  0.8408876582850908  0.5014882222623456  0.4971749865369332  1.0000
  N   N2        1.0  0.1214549611450124  0.4880553023702917  0.4940842387266214  1.0000
  N   N3        1.0  0.15914424836247318  0.5025787068840586  0.0501505317703064  1.0000
  N   N4        1.0  0.8785896361411573  0.4897241329840369  0.0533513829164249  1.0000
  O   O1        1.0  0.556411155148801  0.6731481304383564  0.5286860037155137  1.0000
  O   O2        1.0  0.3533079891300658  0.6708249182585034  0.48736811776839767  1.0000
  O   O3        1.0  0.3814690988854252  0.4525614832001351  0.5748921306626683  1.0000
  O   O4        1.0  0.6065900895397219  0.45579604186725203  0.5886291171094697  1.0000
  O   O5        1.0  0.3650823419285558  0.30044891314444294  0.4808867609825569  1.0000
  O   O6        1.0  0.5888502331989115  0.31832695730357585  0.4950896266471431  1.0000
  O   O7        1.0  0.607370971298593  0.5708943370582276  0.4231621500480997  1.0000
  O   O8        1.0  0.40131019574780413  0.4951537288159073  0.40641016961359355  1.0000
  O   O9        1.0  0.4443256378597553  0.6745758759203255  0.0189572946284855  1.0000
  O   O10       1.0  0.6468217232228  0.6720829915588167  0.0607539222292814  1.0000
  O   O11       1.0  0.6187556201875921  0.4544357811558086  0.9724250329453737  1.0000
  O   O12       1.0  0.39356484463144886  0.45698429134422713  0.9587160447394893  1.0000
  O   O13       1.0  0.6355462455398921  0.30211550437491747  0.0660732077399189  1.0000
  O   O14       1.0  0.4117362346989139  0.31991242884473786  0.05206075518174198  1.0000
  O   O15       1.0  0.39128052358888965  0.5731116004236653  0.12409643218339278  1.0000
  O   O16       1.0  0.5967715340972147  0.4960333252276924  0.1409485596141806  1.0000
  O   O17       1.0  0.21892700516352187  0.3880065905038991  0.6625953986608764  1.0000
  O   O18       1.0  0.189010739542482  0.3936348767497504  0.7703357440963641  1.0000
  O   O19       1.0  0.29447378546831965  0.4277293299166445  0.8672735469353653  1.0000
  O   O20       1.0  0.7815001519919489  0.39019913637740433  0.8846926046109543  1.0000
  O   O21       1.0  0.8114031100008744  0.395562898351372  0.776968974582239  1.0000
  O   O22       1.0  0.7057087678415711  0.4280848677512168  0.6800585620971376  1.0000
