data_image0
_chemical_formula_structural       Zn8H64C108O26
_chemical_formula_sum              "Zn8 H64 C108 O26"
_cell_length_a       21.652219191021
_cell_length_b       21.65222301100682
_cell_length_c       34.71769646302662
_cell_angle_alpha    90.00003862739503
_cell_angle_beta     90.00013663978609
_cell_angle_gamma    90.00008231749533

_space_group_name_H-M_alt    "P 1"
_space_group_IT_number       1

loop_
  _space_group_symop_operation_xyz
  'x, y, z'

loop_
  _atom_site_type_symbol
  _atom_site_label
  _atom_site_symmetry_multiplicity
  _atom_site_fract_x
  _atom_site_fract_y
  _atom_site_fract_z
  _atom_site_occupancy
  Zn  Zn1       1.0  0.5525216527918033  0.5525215109260272  0.03240331094779239  1.0000
  Zn  Zn2       1.0  0.4474760088641148  0.5525200925524629  0.9675954634844003  1.0000
  Zn  Zn3       1.0  0.44747553194328293  0.4474791033703837  0.0324020585077989  1.0000
  Zn  Zn4       1.0  0.5525215169628055  0.4474806070066036  0.9675969597094394  1.0000
  Zn  Zn5       1.0  0.447478672763296  0.44747749074723225  0.46759683060828644  1.0000
  Zn  Zn6       1.0  0.44747887205311077  0.5525217051814907  0.5324035717638081  1.0000
  Zn  Zn7       1.0  0.5525206369930231  0.5525231312233457  0.4675963548206139  1.0000
  Zn  Zn8       1.0  0.5525211472205385  0.4474757537840475  0.5324042038724528  1.0000
  H   H1        1.0  0.25669417372873937  0.4303749551359673  0.044013282394502085  1.0000
  H   H2        1.0  0.14148427411004863  0.43009591724108287  0.0441298518145459  1.0000
  H   H3        1.0  0.2566941690045041  0.5696239666722177  0.955986259981621  1.0000
  H   H4        1.0  0.141484731189486  0.5699037627264475  0.9558703832222405  1.0000
  H   H5        1.0  0.0571750440527268  0.5001067021823218  0.9379785657435064  1.0000
  H   H6        1.0  0.0571747556222491  0.4998928566489199  0.06202183186337609  1.0000
  H   H7        1.0  0.7433035172241631  0.5696252098407298  0.04401309773122359  1.0000
  H   H8        1.0  0.8585143409817346  0.569903786015942  0.04413012675941989  1.0000
  H   H9        1.0  0.7433037742969972  0.43037348743711573  0.9559863046921676  1.0000
  H   H10       1.0  0.8585145972088809  0.43009461495148577  0.955870311230377  1.0000
  H   H11       1.0  0.9428234659991972  0.5001068659105812  0.06202133875831349  1.0000
  H   H12       1.0  0.9428232922757189  0.49989257988435293  0.9379780725479204  1.0000
  H   H13       1.0  0.42997222924768147  0.42996317064250167  0.15145976800037175  1.0000
  H   H14       1.0  0.42938073890331907  0.4293757398788711  0.22229050364681055  1.0000
  H   H15       1.0  0.5700354858425741  0.570027517801435  0.34853950944683015  1.0000
  H   H16       1.0  0.5706223577255755  0.570618181486296  0.2777090618351749  1.0000
  H   H17       1.0  0.4299624452217685  0.4299715901818857  0.3485399517936897  1.0000
  H   H18       1.0  0.42937622633922956  0.4293808500802712  0.27770921502276014  1.0000
  H   H19       1.0  0.5700272578704498  0.5700357247175916  0.1514596136811477  1.0000
  H   H20       1.0  0.5706180952151242  0.5706227700519405  0.22229063849228226  1.0000
  H   H21       1.0  0.5700275655732412  0.42996318544263085  0.84853981891451  1.0000
  H   H22       1.0  0.570617207687384  0.4293756791100023  0.777708794981656  1.0000
  H   H23       1.0  0.42996312465640324  0.570027118732817  0.6514592723612792  1.0000
  H   H24       1.0  0.4293757917774669  0.5706173961454725  0.7222908723715165  1.0000
  H   H25       1.0  0.5700359640727015  0.42997185421707934  0.6514599231612976  1.0000
  H   H26       1.0  0.570622182105744  0.42938072952862444  0.7222903716457336  1.0000
  H   H27       1.0  0.4299722763344178  0.570035538285957  0.8485397442062349  1.0000
  H   H28       1.0  0.42938005429344617  0.5706220445063649  0.7777087196412678  1.0000
  H   H29       1.0  0.4296587667494549  0.25670238059943523  0.04356605220773699  1.0000
  H   H30       1.0  0.42944438755830555  0.1414915775242207  0.0437264646916518  1.0000
  H   H31       1.0  0.5703412410085491  0.2567025122538452  0.956433749752918  1.0000
  H   H32       1.0  0.5705559165310632  0.14149124746727176  0.9562730006951552  1.0000
  H   H33       1.0  0.5994462805933551  0.057191402607955404  0.9999308548807091  1.0000
  H   H34       1.0  0.400553440542879  0.05719118220720531  6.88630289361e-05  1.0000
  H   H35       1.0  0.4296580895434019  0.7432972515708013  0.956433459532036  1.0000
  H   H36       1.0  0.4294443371001647  0.8585094398773236  0.956272758692307  1.0000
  H   H37       1.0  0.5703421554214145  0.7432982457439365  0.04356683546101439  1.0000
  H   H38       1.0  0.570554687839568  0.8585099726832933  0.0437267207241305  1.0000
  H   H39       1.0  0.40055321619333734  0.9428093318378433  0.9999314695101801  1.0000
  H   H40       1.0  0.5994463916999706  0.9428093972067375  6.83334583087e-05  1.0000
  H   H41       1.0  0.569624772304735  0.7433030861660584  0.45598619043644817  1.0000
  H   H42       1.0  0.569904733772816  0.8585138893123201  0.45587013578300867  1.0000
  H   H43       1.0  0.43037454897421407  0.7433044191524514  0.5440132404458209  1.0000
  H   H44       1.0  0.4300952148677196  0.8585142983299363  0.5441302077485941  1.0000
  H   H45       1.0  0.4998923122529604  0.9428234842150331  0.5620211533729245  1.0000
  H   H46       1.0  0.5001072956600366  0.9428234174562673  0.4379783615639567  1.0000
  H   H47       1.0  0.43037449307842474  0.2566947522003318  0.4559862723595315  1.0000
  H   H48       1.0  0.4300945311665031  0.14148441077502127  0.4558698807155821  1.0000
  H   H49       1.0  0.569624590976339  0.2566948997231506  0.5440138176347701  1.0000
  H   H50       1.0  0.5699043873744145  0.14148409697917688  0.5441301607422631  1.0000
  H   H51       1.0  0.49989282459571166  0.057174401482583896  0.4379784628871589  1.0000
  H   H52       1.0  0.5001064346702222  0.0571749303955968  0.5620212550151322  1.0000
  H   H53       1.0  0.7432969162664235  0.5703408322948745  0.45643360553543016  1.0000
  H   H54       1.0  0.8585086631401493  0.570555211679391  0.4562729663590019  1.0000
  H   H55       1.0  0.7432979054024003  0.42965786497432396  0.5435663729537692  1.0000
  H   H56       1.0  0.8585091907360791  0.42944365112626304  0.5437271835850978  1.0000
  H   H57       1.0  0.9428089905953101  0.40055242834810656  0.5000682376299679  1.0000
  H   H58       1.0  0.9428091332013294  0.5994470174262573  0.49993117365496426  1.0000
  H   H59       1.0  0.2567026183784549  0.5703414534198288  0.543566328555748  1.0000
  H   H60       1.0  0.1414913336593457  0.5705561292876312  0.5437269678228914  1.0000
  H   H61       1.0  0.25670235082835546  0.429658392093451  0.45643407794557317  1.0000
  H   H62       1.0  0.14149106518769367  0.42944447438236466  0.4562735552616032  1.0000
  H   H63       1.0  0.05719136695069688  0.5994473049636113  0.5000687726988244  1.0000
  H   H64       1.0  0.05719168566658078  0.4005527157377173  0.499931336895358  1.0000
  C   C1        1.0  0.49999963791584173  0.6674972565241433  0.9999997504125345  1.0000
  C   C2        1.0  0.33249468393950105  0.49999832194885135  6.407632184999997e-07  1.0000
  C   C3        1.0  0.49999734363613857  0.4999966509985612  0.10399960080170699  1.0000
  C   C4        1.0  0.49999801174736547  0.33250301614809524  0.9999999678850596  1.0000
  C   C5        1.0  0.6675038259577093  0.49999910205602316  0.9999995517306244  1.0000
  C   C6        1.0  0.4999997807179567  0.5000007730042311  0.8959985754282938  1.0000
  C   C7        1.0  0.3325025670559754  0.499999053518529  0.4999995395585017  1.0000
  C   C8        1.0  0.49999822065350935  0.6675039145002799  0.5000002755485297  1.0000
  C   C9        1.0  0.4999960542185135  0.4999981940523242  0.3959999646732583  1.0000
  C   C10       1.0  0.6674977902254965  0.49999790864102084  0.5000000768615249  1.0000
  C   C11       1.0  0.4999989037054319  0.33249489504262897  0.49999991694457435  1.0000
  C   C12       1.0  0.49999829906276017  0.5000010773350853  0.604000515855418  1.0000
  C   C13       1.0  0.263618603069922  0.49999965800682844  1.3438587099999995e-08  1.0000
  C   C14       1.0  0.23092081968835737  0.4609814834627954  0.024991846376096295  1.0000
  C   C15       1.0  0.16670754068852736  0.46125485041695663  0.0250854108549703  1.0000
  C   C16       1.0  0.2309199199978593  0.5390187868529567  0.9750085217570256  1.0000
  C   C17       1.0  0.1667075639398874  0.53874625132989  0.9749142856433362  1.0000
  C   C18       1.0  0.1335247787305747  0.5000004882397987  0.9999999166375912  1.0000
  C   C19       1.0  0.06539926175667429  0.4999991313494761  0.9999999678248481  1.0000
  C   C20       1.0  0.03212131340765719  0.5003741079274988  0.9652508058747525  1.0000
  C   C21       1.0  0.0321213822125017  0.4996249530601843  0.03474926641042229  1.0000
  C   C22       1.0  0.7363793815242444  0.49999953579280293  7.717635240000015e-08  1.0000
  C   C23       1.0  0.769080031494802  0.5390191228405  0.024991111101393  1.0000
  C   C24       1.0  0.833288692388372  0.5387452941378328  0.0250850590596983  1.0000
  C   C25       1.0  0.7690794815398262  0.46097822593371524  0.9750086177186147  1.0000
  C   C26       1.0  0.8332890661617185  0.4612526087388531  0.9749150533523618  1.0000
  C   C27       1.0  0.8664741295564439  0.4999987055604933  1.7397803730000004e-07  1.0000
  C   C28       1.0  0.934599248141204  0.4999992163480798  2.2466918640000016e-07  1.0000
  C   C29       1.0  0.9678771970282156  0.5003747400759622  0.034748810702282584  1.0000
  C   C30       1.0  0.9678771271483767  0.49962427987049557  0.9652515020009034  1.0000
  C   C31       1.0  0.5000006585885401  0.500000368927509  0.1469255478529803  1.0000
  C   C32       1.0  0.4999982814275156  0.5000004801298132  0.35307401762737806  1.0000
  C   C33       1.0  0.4605926996767237  0.46058915590992194  0.16743925602825974  1.0000
  C   C34       1.0  0.4607008482658088  0.4606981733057793  0.20744651875294545  1.0000
  C   C35       1.0  0.5394076258717532  0.5394052272989783  0.3325591573015885  1.0000
  C   C36       1.0  0.5393008628292151  0.5392994428299145  0.2925544869165079  1.0000
  C   C37       1.0  0.46059116781144377  0.4605938634436057  0.3325585059792003  1.0000
  C   C38       1.0  0.4606968542770957  0.46069914290605846  0.29255469990928856  1.0000
  C   C39       1.0  0.5394026918938336  0.539406061917539  0.1674413475347265  1.0000
  C   C40       1.0  0.5392974672749344  0.5393012443017611  0.2074451536050788  1.0000
  C   C41       1.0  0.4999989673422291  0.49999902746613145  0.22863834244952835  1.0000
  C   C42       1.0  0.49999904897821074  0.4999995123585066  0.27136064695456236  1.0000
  C   C43       1.0  0.500000160542676  0.49999890246455436  0.8530749326805135  1.0000
  C   C44       1.0  0.4999997666224018  0.49999879125947905  0.6469250227163386  1.0000
  C   C45       1.0  0.5394043680607723  0.4605914187031174  0.8325580394869403  1.0000
  C   C46       1.0  0.5392985288675404  0.46069808355326103  0.7925553854101037  1.0000
  C   C47       1.0  0.460590940636976  0.5394035039392264  0.6674413398307946  1.0000
  C   C48       1.0  0.4606972416807124  0.5392986864755613  0.7074454340960867  1.0000
  C   C49       1.0  0.5394063617809762  0.4605931770196534  0.6674408058005168  1.0000
  C   C50       1.0  0.5393011373147871  0.4606994231826107  0.707445187990416  1.0000
  C   C51       1.0  0.4605940272294262  0.539406825935643  0.8325577094094425  1.0000
  C   C52       1.0  0.4607001753911106  0.539299656081596  0.792555055445298  1.0000
  C   C53       1.0  0.49999908070845567  0.4999997820771256  0.7713612739691696  1.0000
  C   C54       1.0  0.4999994609175786  0.4999997590309633  0.7286381053519477  1.0000
  C   C55       1.0  0.5000007333508732  0.2636283329707467  0.9999990892665592  1.0000
  C   C56       1.0  0.4600472826220283  0.23093182804303317  0.024408404345287196  1.0000
  C   C57       1.0  0.4598906702322765  0.16671763609955553  0.024237584439354996  1.0000
  C   C58       1.0  0.5399522262681414  0.230931936703719  0.9755919628333629  1.0000
  C   C59       1.0  0.5401105937885404  0.1667172833235284  0.9757610274628588  1.0000
  C   C60       1.0  0.5000006398995183  0.1335271420417357  0.9999999259743647  1.0000
  C   C61       1.0  0.5000001291066382  0.06538679454661182  0.9999996235832354  1.0000
  C   C62       1.0  0.555728341648198  0.032123275346471296  0.9997680758583484  1.0000
  C   C63       1.0  0.4442718053183795  0.0321231179349653  0.00023019130311039993  1.0000
  C   C64       1.0  0.5000001492365341  0.7363724015498505  5.2958448300000026e-08  1.0000
  C   C65       1.0  0.46004671565431465  0.7690687714824875  0.9755914406557337  1.0000
  C   C66       1.0  0.4598897343190201  0.8332829631997499  0.9757605321030737  1.0000
  C   C67       1.0  0.5399535663325848  0.7690687776311336  0.0244082891191724  1.0000
  C   C68       1.0  0.5401097162238031  0.8332838930826866  0.024237496498542992  1.0000
  C   C69       1.0  0.5000007045339814  0.8664731306328478  0.9999992162508844  1.0000
  C   C70       1.0  0.49999936793961547  0.9346120925874645  0.9999992306028102  1.0000
  C   C71       1.0  0.4442716163637498  0.9678769970780506  0.9997693421838816  1.0000
  C   C72       1.0  0.5557280275431111  0.9678774616536147  0.00023075938285899988  1.0000
  C   C73       1.0  0.5000001175116039  0.7363795213726974  0.4999994259453968  1.0000
  C   C74       1.0  0.5390205738986609  0.7690791806509053  0.4750090365692826  1.0000
  C   C75       1.0  0.5387476686040672  0.8332887536792909  0.47491457357722294  1.0000
  C   C76       1.0  0.4609806317999839  0.7690800752424067  0.5249924214361386  1.0000
  C   C77       1.0  0.46125547672162526  0.8332887250727622  0.5250854712921793  1.0000
  C   C78       1.0  0.500001134654461  0.8664742464545157  0.5000003174621737  1.0000
  C   C79       1.0  0.5000002598954651  0.9345993530188821  0.4999997557364394  1.0000
  C   C80       1.0  0.49962486905771897  0.9678767859952303  0.5347494758091997  1.0000
  C   C81       1.0  0.5003752366945661  0.9678762871977398  0.46525062575759063  1.0000
  C   C82       1.0  0.4999997779235699  0.2636183644790436  0.4999999024369401  1.0000
  C   C83       1.0  0.46098014972277207  0.23091960193215755  0.47500857710391386  1.0000
  C   C84       1.0  0.4612535165033832  0.1667086432636182  0.47491495158021724  1.0000
  C   C85       1.0  0.5390188973022916  0.23091968495781148  0.5249912139941484  1.0000
  C   C86       1.0  0.5387449764295908  0.16670872599740252  0.5250853885414912  1.0000
  C   C87       1.0  0.499999222629448  0.13352456309070956  0.49999987503333176  1.0000
  C   C88       1.0  0.49999871184828487  0.06539899467885141  0.500000148720396  1.0000
  C   C89       1.0  0.4996254496339815  0.032122023011169204  0.4652507161282101  1.0000
  C   C90       1.0  0.5003737736402839  0.032122061038514005  0.5347487031822522  1.0000
  C   C91       1.0  0.7363715618621995  0.4999993436586649  0.4999992639973029  1.0000
  C   C92       1.0  0.7690674996461695  0.5399513718208908  0.47559214746813433  1.0000
  C   C93       1.0  0.8332826268463762  0.5401102931867642  0.47576242547140163  1.0000
  C   C94       1.0  0.7690679973757426  0.46004551509020086  0.5244084454465322  1.0000
  C   C95       1.0  0.8332831236979104  0.4598885333741408  0.5242379749694661  1.0000
  C   C96       1.0  0.866473699440597  0.49999943712512607  0.5000008009923957  1.0000
  C   C97       1.0  0.9346131352621753  0.499999024229851  0.4999999875813754  1.0000
  C   C98       1.0  0.9678785080381187  0.4442722067454525  0.5002304306299975  1.0000
  C   C99       1.0  0.9678795109097602  0.5557281987423792  0.4997693060011412  1.0000
  C   C100      1.0  0.2636274098825524  0.5000003895780979  0.5000006404598238  1.0000
  C   C101      1.0  0.23093152949545004  0.5399537826339227  0.5244077738204564  1.0000
  C   C102      1.0  0.16671778806485088  0.5401116878606302  0.5242389360726774  1.0000
  C   C103      1.0  0.2309309169704719  0.46004648769680045  0.47559144217864  1.0000
  C   C104      1.0  0.1667171759639672  0.4598898757479121  0.47576277670330563  1.0000
  C   C105      1.0  0.13352665784716317  0.49999937242118625  0.5000014077659074  1.0000
  C   C106      1.0  0.0653881457171153  0.5000002471630011  0.5000013570650879  1.0000
  C   C107      1.0  0.0321218501290659  0.5557279885878755  0.5002314860477881  1.0000
  C   C108      1.0  0.0321226928796605  0.44427199609444307  0.49976973838912636  1.0000
  O   O1        1.0  0.4999999794474376  0.4999994435675105  3.1682815999999775e-09  1.0000
  O   O2        1.0  0.537146369347674  0.6407221383102452  0.023241995982168393  1.0000
  O   O3        1.0  0.3592707377916113  0.537072659492999  0.9767120708826905  1.0000
  O   O4        1.0  0.4627646119687157  0.46278426993833227  0.08736165264225088  1.0000
  O   O5        1.0  0.4628555756411855  0.640722137454908  0.9767585438362545  1.0000
  O   O6        1.0  0.5372355538757602  0.5372159418062665  0.08735913139567227  1.0000
  O   O7        1.0  0.3592693245353615  0.46293010446724736  0.023287336107507894  1.0000
  O   O8        1.0  0.46285262775874964  0.3592793897953114  0.023239001042078693  1.0000
  O   O9        1.0  0.6407277465629662  0.4629262025157246  0.9767111125427801  1.0000
  O   O10       1.0  0.5371475273568435  0.3592771864539799  0.9767582517943295  1.0000
  O   O11       1.0  0.6407273635181595  0.5370718855334927  0.023287273116700594  1.0000
  O   O12       1.0  0.46276624240833536  0.5372149479543255  0.9126387724790703  1.0000
  O   O13       1.0  0.537233844465824  0.46278245939042506  0.91263938828596  1.0000
  O   O14       1.0  0.4999999477210578  0.5000014830812205  0.5000005283043334  1.0000
  O   O15       1.0  0.3592771186906276  0.4628559918305868  0.47675837835934226  1.0000
  O   O16       1.0  0.46292999010212543  0.6407297442775003  0.5232877896691333  1.0000
  O   O17       1.0  0.5372167779055416  0.5372392095788568  0.4126410812427891  1.0000
  O   O18       1.0  0.3592781845671169  0.5371458484477715  0.5232407406044572  1.0000
  O   O19       1.0  0.4627860165994803  0.46276781895171126  0.41263870587265916  1.0000
  O   O20       1.0  0.5370710312018615  0.640730234261703  0.47671102192665415  1.0000
  O   O21       1.0  0.6407217642330708  0.5371437163316841  0.4767588914643992  1.0000
  O   O22       1.0  0.5370713798745682  0.3592713996246317  0.5232877855498969  1.0000
  O   O23       1.0  0.6407217996906523  0.46285344801764694  0.5232415104491037  1.0000
  O   O24       1.0  0.4629296989287609  0.3592703975439234  0.4767123476595215  1.0000
  O   O25       1.0  0.4627817854890565  0.5372318608130513  0.5873602790885284  1.0000
  O   O26       1.0  0.5372175201173235  0.46276473375027644  0.5873603187893222  1.0000
