data_image0
_chemical_formula_structural       Na4H44C32S4N8O8
_chemical_formula_sum              "Na4 H44 C32 S4 N8 O8"
_cell_length_a       7.668140508243203
_cell_length_b       10.161517212278989
_cell_length_c       14.21937559463794
_cell_angle_alpha    108.42059713522254
_cell_angle_beta     90.00060161028217
_cell_angle_gamma    89.99916368371287

_space_group_name_H-M_alt    "P 1"
_space_group_IT_number       1

loop_
  _space_group_symop_operation_xyz
  'x, y, z'

loop_
  _atom_site_type_symbol
  _atom_site_label
  _atom_site_symmetry_multiplicity
  _atom_site_fract_x
  _atom_site_fract_y
  _atom_site_fract_z
  _atom_site_occupancy
  Na  Na1       1.0  0.5402872198223534  0.5077745405719584  0.8858287665269698  1.0000
  Na  Na2       1.0  0.04028647514056869  0.9922379877575122  0.6141732479514557  1.0000
  Na  Na3       1.0  0.459707555659996  0.49222922020579324  0.11417045718649625  1.0000
  Na  Na4       1.0  0.959710908545375  0.007771903269350802  0.3858330330594058  1.0000
  H   H1        1.0  0.2525192162556848  0.23861627914180164  0.6790517480631875  1.0000
  H   H2        1.0  0.752509906016904  0.2613829706937452  0.8209504421114884  1.0000
  H   H3        1.0  0.7474742551929195  0.7613761074144209  0.3209427109527495  1.0000
  H   H4        1.0  0.24748486953052404  0.7386165833040295  0.17905131628072002  1.0000
  H   H5        1.0  0.3276552016101776  0.9576504283196313  0.3613867414755133  1.0000
  H   H6        1.0  0.8276544016039152  0.5423528755544779  0.13861233471446602  1.0000
  H   H7        1.0  0.6723473984418715  0.042352330055727805  0.6386101383685272  1.0000
  H   H8        1.0  0.1723442861575037  0.45764885726020305  0.861383602440746  1.0000
  H   H9        1.0  0.5301615805666273  0.002441795054799899  0.3185968836868938  1.0000
  H   H10       1.0  0.030163340227694797  0.49755930362215395  0.1814013128734686  1.0000
  H   H11       1.0  0.46983189088589933  0.9975546822114156  0.6814020466573182  1.0000
  H   H12       1.0  0.9698327392798021  0.5024486755363781  0.8185946755628705  1.0000
  H   H13       1.0  0.6626462315298198  0.573381670793438  0.6292993455252044  1.0000
  H   H14       1.0  0.16265172214426118  0.9266068546889695  0.8706991782032957  1.0000
  H   H15       1.0  0.3373563686508945  0.4266147251804569  0.3707044890401078  1.0000
  H   H16       1.0  0.8373573984424636  0.073394796827202  0.12930166317532607  1.0000
  H   H17       1.0  0.7391322526742387  0.5077202940704028  0.5042352446501042  1.0000
  H   H18       1.0  0.23914411835806956  0.9922810583931821  0.9957624937221465  1.0000
  H   H19       1.0  0.2608638268670235  0.49228865263238936  0.49576518947163345  1.0000
  H   H20       1.0  0.7608636981675189  0.007718483935697398  0.004239965293876899  1.0000
  H   H21       1.0  0.8894806264175372  0.5744118342268081  0.6035679135101188  1.0000
  H   H22       1.0  0.38948272323553806  0.9255786867668692  0.8964323827784142  1.0000
  H   H23       1.0  0.11052327792761217  0.42557727822318003  0.3964356276905575  1.0000
  H   H24       1.0  0.6105211810040884  0.07442289513207362  0.10357266219516958  1.0000
  H   H25       1.0  0.8164041443016499  0.3799576237736275  0.6695951446941706  1.0000
  H   H26       1.0  0.31640302256735  0.12004005204425987  0.8304028263136161  1.0000
  H   H27       1.0  0.18359323948737938  0.6200336559357851  0.33040327585172236  1.0000
  H   H28       1.0  0.6836021857334058  0.879963639041975  0.16960060102255878  1.0000
  H   H29       1.0  0.890997929234089  0.3128608474184347  0.5440040098594634  1.0000
  H   H30       1.0  0.39100316529012247  0.18713199474878914  0.9559918561056618  1.0000
  H   H31       1.0  0.10899032579840907  0.6871315855905422  0.4559876467444183  1.0000
  H   H32       1.0  0.6090033471008596  0.8128717079382639  0.0440108706321212  1.0000
  H   H33       1.0  0.1884526821051367  0.16349024065345935  0.31924285469086294  1.0000
  H   H34       1.0  0.6884626816314423  0.3365134925271178  0.18075757203063594  1.0000
  H   H35       1.0  0.8115486139262272  0.8365021458656301  0.680751604338944  1.0000
  H   H36       1.0  0.3115451348068845  0.6634923425612272  0.8192421358683359  1.0000
  H   H37       1.0  0.2759682570699908  0.034330710067273194  0.21408130675472845  1.0000
  H   H38       1.0  0.775979110626473  0.4656732875795057  0.2859161693324096  1.0000
  H   H39       1.0  0.7240265184735077  0.9656647532205088  0.7859159803091982  1.0000
  H   H40       1.0  0.22402870574752137  0.5343357287095712  0.7140800612059264  1.0000
  H   H41       1.0  0.39294350395725525  0.19049364422414783  0.2701034736054169  1.0000
  H   H42       1.0  0.8929497595539501  0.30950918500938235  0.2298979202127924  1.0000
  H   H43       1.0  0.607052575684115  0.8095007934781934  0.7298928707789327  1.0000
  H   H44       1.0  0.10705805684148828  0.6904987708794509  0.7700994694457532  1.0000
  C   C1        1.0  0.3473996069217477  0.2319718669278998  0.6208608520902883  1.0000
  C   C2        1.0  0.8473743433202401  0.2680138735881386  0.8791485778900208  1.0000
  C   C3        1.0  0.6526095137591454  0.7680234802218069  0.37914344100609293  1.0000
  C   C4        1.0  0.1526204324017115  0.731973094890691  0.12085868273629789  1.0000
  C   C5        1.0  0.5923612310750241  0.2137630227253808  0.4702338217034025  1.0000
  C   C6        1.0  0.09236021048788957  0.2862364831626678  0.029762251497572775  1.0000
  C   C7        1.0  0.4076335444820671  0.7862231987421708  0.5297556818241844  1.0000
  C   C8        1.0  0.9076371732086697  0.7137682683609513  0.9702400167045153  1.0000
  C   C9        1.0  0.40402792487142136  0.04313623272231129  0.3510436761878992  1.0000
  C   C10       1.0  0.9040336856677555  0.45686857727299923  0.14895754049092594  1.0000
  C   C11       1.0  0.59596945884266  0.9568633676910705  0.6489552798061309  1.0000
  C   C12       1.0  0.09596761025584748  0.5431393554327785  0.8510412503574611  1.0000
  C   C13       1.0  0.3108925890841761  0.14791645915722282  0.5246277095937016  1.0000
  C   C14       1.0  0.8108858283801794  0.3520915247989366  0.9753796686818033  1.0000
  C   C15       1.0  0.6891008823562499  0.8520872087707263  0.4753771189230633  1.0000
  C   C16       1.0  0.1891259003739449  0.6479091475536052  0.024617427616739473  1.0000
  C   C17       1.0  0.5066737829497895  0.30144581724000125  0.6463258867851633  1.0000
  C   C18       1.0  0.006663775210121499  0.19855166399600682  0.853671661015774  1.0000
  C   C19       1.0  0.49333272947697526  0.698546557647326  0.3536692728545886  1.0000
  C   C20       1.0  0.9933283921011122  0.8014582038416124  0.14633602118723837  1.0000
  C   C21       1.0  0.7678048046897387  0.5156254108829756  0.581507558598119  1.0000
  C   C22       1.0  0.26780358840986196  0.9843662767542157  0.9184916056822487  1.0000
  C   C23       1.0  0.23219649136009932  0.48437001755285536  0.4184918302794783  1.0000
  C   C24       1.0  0.7322003158236041  0.015634291172482096  0.08151179600873347  1.0000
  C   C25       1.0  0.7877550682918085  0.3719903229859653  0.5924939907450336  1.0000
  C   C26       1.0  0.28775398324942353  0.1279971948887209  0.9075049608791089  1.0000
  C   C27       1.0  0.21224622774422383  0.6280051286638654  0.40750399693116174  1.0000
  C   C28       1.0  0.7122525292142824  0.872001263832104  0.09250005845621702  1.0000
  C   C29       1.0  0.30927222988874087  0.11202674687722687  0.28516096316336353  1.0000
  C   C30       1.0  0.8092792903811911  0.38797686500402767  0.21484083460048706  1.0000
  C   C31       1.0  0.690726457945395  0.8879697419712259  0.7148372665893914  1.0000
  C   C32       1.0  0.19072330966098858  0.6120300072953243  0.785159115370426  1.0000
  S   S1        1.0  0.7291757629318524  0.21425871448649053  0.3772394305249378  1.0000
  S   S2        1.0  0.22917394585326184  0.28574054147196654  0.12275666923100909  1.0000
  S   S3        1.0  0.270819012532769  0.7857409787952605  0.6227539206588515  1.0000
  S   S4        1.0  0.7708260460269328  0.7142693495425122  0.877249611784478  1.0000
  N   N1        1.0  0.43998324234009795  0.13830201246302917  0.4513764880889397  1.0000
  N   N2        1.0  0.9399771551366738  0.3616972123125847  0.04862714864599126  1.0000
  N   N3        1.0  0.5600063168050228  0.8616975647734934  0.5486238690926157  1.0000
  N   N4        1.0  0.0600215327312199  0.6383002440801276  0.9513755267921693  1.0000
  N   N5        1.0  0.6257580548522768  0.29022775399739237  0.5669289891916164  1.0000
  N   N6        1.0  0.1257467615675907  0.20976026451352683  0.9330691459728652  1.0000
  N   N7        1.0  0.37424193705138  0.7097687812728708  0.4330664381606438  1.0000
  N   N8        1.0  0.8742532304356485  0.7902320059417605  0.06693231906164239  1.0000
  O   O1        1.0  0.5517135433455848  0.37189648935006403  0.7326544152095379  1.0000
  O   O2        1.0  0.05168105010959321  0.12809741806817954  0.7673446677985323  1.0000
  O   O3        1.0  0.4482890568343905  0.6281009322030825  0.2673503620376677  1.0000
  O   O4        1.0  0.948307205010913  0.87188769660208  0.23264879724051465  1.0000
  O   O5        1.0  0.17161152897844542  0.07768469003896432  0.4987066421868106  1.0000
  O   O6        1.0  0.671619005888594  0.4223388283097266  0.001303228567479722  1.0000
  O   O7        1.0  0.8283780299997898  0.9223264355302515  0.501287970679442  1.0000
  O   O8        1.0  0.32839533103408064  0.5776782765124011  0.9987075494445887  1.0000
