data_image0
_chemical_formula_structural       Dy4P4H44C36S4N4O36
_chemical_formula_sum              "Dy4 P4 H44 C36 S4 N4 O36"
_cell_length_a       6.718145314002013
_cell_length_b       13.341467351715256
_cell_length_c       14.97294716732632
_cell_angle_alpha    90.54091179534608
_cell_angle_beta     90.00007155957022
_cell_angle_gamma    90.0000522044856

_space_group_name_H-M_alt    "P 1"
_space_group_IT_number       1

loop_
  _space_group_symop_operation_xyz
  'x, y, z'

loop_
  _atom_site_type_symbol
  _atom_site_label
  _atom_site_symmetry_multiplicity
  _atom_site_fract_x
  _atom_site_fract_y
  _atom_site_fract_z
  _atom_site_occupancy
  Dy  Dy1       1.0  0.8749675499333306  0.5474822881790757  0.6191050705662988  1.0000
  Dy  Dy2       1.0  0.3749697122165117  0.4525184943115832  0.8808950563428796  1.0000
  Dy  Dy3       1.0  0.1250294977651976  0.45252009648552155  0.3808944102285565  1.0000
  Dy  Dy4       1.0  0.6250303124925338  0.5474801412662771  0.11910572596719503  1.0000
  P   P1        1.0  0.8695331164263465  0.37777747127115896  0.8033187854789219  1.0000
  P   P2        1.0  0.3695306089692423  0.6222225579256105  0.6966826672542582  1.0000
  P   P3        1.0  0.130466908282223  0.6222226646664241  0.1966806747863288  1.0000
  P   P4        1.0  0.630466438729073  0.3777775768033536  0.30331812874193526  1.0000
  H   H1        1.0  0.8565801937794575  0.22514397911880477  0.9440496385919275  1.0000
  H   H2        1.0  0.3565879917177384  0.7748545461563268  0.5559504574248351  1.0000
  H   H3        1.0  0.14341387690373608  0.7748539074857348  0.0559504690070938  1.0000
  H   H4        1.0  0.6434150100055049  0.2251463381499192  0.44405034541651395  1.0000
  H   H5        1.0  0.8586624347687959  0.0378123512565196  0.938048932349595  1.0000
  H   H6        1.0  0.35866314814974487  0.96218692455421  0.561951171682253  1.0000
  H   H7        1.0  0.1413375899358371  0.9621855371612824  0.0619491716534313  1.0000
  H   H8        1.0  0.6413398535741879  0.03781470932793239  0.4380496380025818  1.0000
  H   H9        1.0  0.8560492541912126  0.8782813302113226  0.8451441540481639  1.0000
  H   H10       1.0  0.3560472069435789  0.12171869517613489  0.6548546196217516  1.0000
  H   H11       1.0  0.14395374752461268  0.12171655881113  0.1548532820898174  1.0000
  H   H12       1.0  0.6439543062752264  0.8782829381017051  0.3451468579285475  1.0000
  H   H13       1.0  0.8613420998302884  0.798243174771649  0.6951475034798307  1.0000
  H   H14       1.0  0.3613450819100096  0.201759102392252  0.8048506258392296  1.0000
  H   H15       1.0  0.1386579248745647  0.20175696358177933  0.3048492853218577  1.0000
  H   H16       1.0  0.6386579198146193  0.798243281065794  0.19515019068908404  1.0000
  H   H17       1.0  0.8646970964252673  0.9002242638956448  0.5595456205967864  1.0000
  H   H18       1.0  0.3646972936150661  0.09977876378849262  0.9404531853218145  1.0000
  H   H19       1.0  0.13530441678657468  0.09977587385416341  0.4404518360712117  1.0000
  H   H20       1.0  0.6353042196058212  0.900225118217051  0.0595483127589276  1.0000
  H   H21       1.0  0.8668070742927937  0.08914420691920097  0.5703267580865088  1.0000
  H   H22       1.0  0.36679978789582895  0.9108595695013618  0.9296740594603747  1.0000
  H   H23       1.0  0.13319295041461027  0.9108566798022082  0.42967137329044663  1.0000
  H   H24       1.0  0.6331942827949959  0.0891435623225973  0.07032809964068319  1.0000
  H   H25       1.0  0.8664560446115105  0.23144641182113193  0.6622874886103958  1.0000
  H   H26       1.0  0.366452708232103  0.7685543667386413  0.8377126334999404  1.0000
  H   H27       1.0  0.1335439800947498  0.7685522255686122  0.337711290102007  1.0000
  H   H28       1.0  0.6335443394682868  0.23144801671802634  0.16228818302669626  1.0000
  H   H29       1.0  0.055586939982127596  0.6101219023974666  0.7912642462336379  1.0000
  H   H30       1.0  0.5555877173971311  0.38987948221629404  0.7087357075079979  1.0000
  H   H31       1.0  0.9444145732350577  0.3898789819084385  0.20873655660729185  1.0000
  H   H32       1.0  0.4444152843242506  0.6101214032978745  0.291263759601577  1.0000
  H   H33       1.0  0.8368710862751242  0.6511492675022338  0.8099881354906131  1.0000
  H   H34       1.0  0.33687252776892507  0.34885299534365544  0.6900133193650078  1.0000
  H   H35       1.0  0.16312744993111042  0.34885086601915566  0.1900139962377736  1.0000
  H   H36       1.0  0.6631319624617547  0.6511493881147316  0.3099874971637249  1.0000
  H   H37       1.0  0.7101673427851622  0.3676030247840316  0.5508733117068871  1.0000
  H   H38       1.0  0.2101670458780589  0.6323976810167052  0.9491273901821061  1.0000
  H   H39       1.0  0.2898326819268888  0.6323978589175637  0.449128158999514  1.0000
  H   H40       1.0  0.7898329788302975  0.3676002049852513  0.0508733852844898  1.0000
  H   H41       1.0  0.6653543440332398  0.44300203590708526  0.47620841829438393  1.0000
  H   H42       1.0  0.16535272446139967  0.5569989694333657  0.0237924153381144  1.0000
  H   H43       1.0  0.33464568067812184  0.5569980982186138  0.5237930455685387  1.0000
  H   H44       1.0  0.8346458117425186  0.4429996655401779  0.9762090348374316  1.0000
  C   C1        1.0  0.8612107502850392  0.24006266558505027  0.800924089054348  1.0000
  C   C2        1.0  0.36120850036572694  0.7599366107975456  0.6990766842788431  1.0000
  C   C3        1.0  0.13878927442145536  0.7599352216248293  0.1990753506804595  1.0000
  C   C4        1.0  0.6387915243463311  0.24006427290404278  0.30092478642755793  1.0000
  C   C5        1.0  0.860627316691371  0.18480557143726628  0.8806650195445799  1.0000
  C   C6        1.0  0.3606249452081087  0.8151929557040064  0.6193350787503746  1.0000
  C   C7        1.0  0.1393741965186308  0.8151915674049802  0.1193330776153942  1.0000
  C   C8        1.0  0.6393750795023224  0.18480717902564683  0.3806657172466572  1.0000
  C   C9        1.0  0.8603086769195301  0.08153916363372099  0.8767762366955268  1.0000
  C   C10       1.0  0.36030501588003716  0.9184593639641037  0.6232231935535781  1.0000
  C   C11       1.0  0.13968985927904498  0.9184587247837328  0.12322186730708751  1.0000
  C   C12       1.0  0.6396920318182778  0.08154077076486743  0.37677760244261554  1.0000
  C   C13       1.0  0.8613474915467663  0.030091006163111403  0.7937115367686617  1.0000
  C   C14       1.0  0.3613426672047381  0.969908271489949  0.7062879009090963  1.0000
  C   C15       1.0  0.1386555101697482  0.9699076324352447  0.2062859062127984  1.0000
  C   C16       1.0  0.6386573575059343  0.030091113059846495  0.2937135561103475  1.0000
  C   C17       1.0  0.8606799549809381  0.924221875970744  0.785289525027828  1.0000
  C   C18       1.0  0.36067799084820246  0.07577815155465119  0.7147092512520885  1.0000
  C   C19       1.0  0.1393245352407035  0.07577676323191442  0.21470725008816777  1.0000
  C   C20       1.0  0.6393264993810918  0.9242227327519358  0.2852915515896797  1.0000
  C   C21       1.0  0.8616532810505005  0.8794782387950519  0.7019394107759139  1.0000
  C   C22       1.0  0.3616531192079435  0.12052178978408533  0.7980586981872124  1.0000
  C   C23       1.0  0.138349720666703  0.12052114937920068  0.29805803904903166  1.0000
  C   C24       1.0  0.638349882513438  0.8794790957300763  0.2019407689223627  1.0000
  C   C25       1.0  0.8637773245676428  0.9386329698607838  0.6240667045077046  1.0000
  C   C26       1.0  0.3637757834788857  0.061369307218441804  0.8759327619144202  1.0000
  C   C27       1.0  0.1362227001367557  0.06136566873687601  0.375930738472924  1.0000
  C   C28       1.0  0.6362242412350055  0.9386345753907149  0.1240680683000193  1.0000
  C   C29       1.0  0.8640250957604464  0.04200959315774361  0.629334978891528  1.0000
  C   C30       1.0  0.3640207077920579  0.9579934336111222  0.8706644945129158  1.0000
  C   C31       1.0  0.1359779059611768  0.9579905421765671  0.37066514924045185  1.0000
  C   C32       1.0  0.6359793169199789  0.0420104502059573  0.1293349999697355  1.0000
  C   C33       1.0  0.8623432448507061  0.08847941299230648  0.7144586901887351  1.0000
  C   C34       1.0  0.3623400235141574  0.9115213642726446  0.7855407617376715  1.0000
  C   C35       1.0  0.1376567798520725  0.9115184766334183  0.2855380780825173  1.0000
  C   C36       1.0  0.637658512693463  0.088480268400545  0.2144613836776799  1.0000
  S   S1        1.0  0.9110041943304735  0.6924183859347509  0.46173138719479573  1.0000
  S   S2        1.0  0.4110066262750394  0.30758048348724293  0.0382702322284771  1.0000
  S   S3        1.0  0.0889928533669107  0.30758174939818156  0.5382687409355071  1.0000
  S   S4        1.0  0.5889919099286586  0.6924159015506816  0.9617325331483997  1.0000
  N   N1        1.0  0.8615842115602845  0.1910373393483837  0.7226314103390976  1.0000
  N   N2        1.0  0.36158226913495645  0.8089634351505808  0.7773707126234228  1.0000
  N   N3        1.0  0.13841581314921567  0.8089627959852381  0.27736871779205075  1.0000
  N   N4        1.0  0.6384162670742841  0.19103894649454395  0.22263210750130474  1.0000
  O   O1        1.0  0.8269572723969247  0.4094976306248627  0.7070521999029256  1.0000
  O   O2        1.0  0.3269609294539819  0.5905038798804939  0.7929472389245121  1.0000
  O   O3        1.0  0.1730382867948563  0.59050400446349  0.2929472740480321  1.0000
  O   O4        1.0  0.6730390952538984  0.40949550648119265  0.20705221449726713  1.0000
  O   O5        1.0  0.7072801227910049  0.4096403625362798  0.869140516313017  1.0000
  O   O6        1.0  0.20727588535321217  0.5903603425345237  0.6308595160816637  1.0000
  O   O7        1.0  0.2927243674331876  0.5903590250343527  0.1308576013782314  1.0000
  O   O8        1.0  0.7927211623474194  0.40964129074227873  0.3691419614673777  1.0000
  O   O9        1.0  0.0772401092815471  0.4012091523066417  0.8357252279249607  1.0000
  O   O10       1.0  0.5772381663381552  0.5987899959915239  0.6642720460261557  1.0000
  O   O11       1.0  0.9227614039270476  0.598789487499289  0.1642708793242988  1.0000
  O   O12       1.0  0.4227573928517714  0.4012116403047515  0.3357260921930206  1.0000
  O   O13       1.0  0.8451930259321402  0.7148270056660664  0.5547019573462038  1.0000
  O   O14       1.0  0.34519803986632513  0.2851722615112137  0.9453008105587345  1.0000
  O   O15       1.0  0.1548055102699237  0.28517163051540706  0.4452981570975609  1.0000
  O   O16       1.0  0.6548064503623009  0.7148248731039858  0.054701961663305106  1.0000
  O   O17       1.0  0.926477108233918  0.5787814881826207  0.4595284733916856  1.0000
  O   O18       1.0  0.4264812418267852  0.42121663941140514  0.04047248004360431  1.0000
  O   O19       1.0  0.0735169624457725  0.4212186507733975  0.5404676475424353  1.0000
  O   O20       1.0  0.5735187828808819  0.5787804970146554  0.9595282885795059  1.0000
  O   O21       1.0  0.11304588344005849  0.7360745175232991  0.4452579684922853  1.0000
  O   O22       1.0  0.613044513767008  0.2639242113158319  0.0547468223228691  1.0000
  O   O23       1.0  0.8869541412733781  0.2639278653300964  0.5547435159010803  1.0000
  O   O24       1.0  0.38695402244134414  0.7360721707022861  0.9452592823834608  1.0000
  O   O25       1.0  0.7699607406309071  0.7276319070722151  0.3941089466001984  1.0000
  O   O26       1.0  0.2699588313589985  0.27236689783542545  0.10589192546046182  1.0000
  O   O27       1.0  0.2300407725885734  0.2723734758970124  0.6058905615698364  1.0000
  O   O28       1.0  0.7300411933472831  0.7276287394388278  0.8941088294756839  1.0000
  O   O29       1.0  0.9258970547421156  0.6239820495967693  0.7628902857891973  1.0000
  O   O30       1.0  0.4259001654801011  0.37602100573903385  0.7371092224898917  1.0000
  O   O31       1.0  0.0741029699701556  0.37602108404045254  0.23710986971586587  1.0000
  O   O32       1.0  0.5741058132533965  0.6239798797758241  0.2628902446205146  1.0000
  O   O33       1.0  0.650259487168043  0.4344540486626515  0.5414141344953691  1.0000
  O   O34       1.0  0.1502576063376253  0.5655458792994424  0.9585871946500717  1.0000
  O   O35       1.0  0.3497405375426296  0.565545335887144  0.45858732252406753  1.0000
  O   O36       1.0  0.8497424183700417  0.43445125712661076  0.0414135739730384  1.0000
