data_image0
_chemical_formula_structural       U4H24C12Se4N8O28
_chemical_formula_sum              "U4 H24 C12 Se4 N8 O28"
_cell_length_a       8.887384182934841
_cell_length_b       10.015622519647842
_cell_length_c       10.63861738600265
_cell_angle_alpha    90.00008061062539
_cell_angle_beta     90.00000758580985
_cell_angle_gamma    89.61275200230487

_space_group_name_H-M_alt    "P 1"
_space_group_IT_number       1

loop_
  _space_group_symop_operation_xyz
  'x, y, z'

loop_
  _atom_site_type_symbol
  _atom_site_label
  _atom_site_symmetry_multiplicity
  _atom_site_fract_x
  _atom_site_fract_y
  _atom_site_fract_z
  _atom_site_occupancy
  U   U1        1.0  0.8864750938449857  0.8132380335146859  0.7903006498924866  1.0000
  U   U2        1.0  0.6135240501678892  0.686762921045023  0.2903023086869466  1.0000
  U   U3        1.0  0.11352585726852027  0.18676280269365006  0.2096984316616997  1.0000
  U   U4        1.0  0.38647690111675803  0.31323691672351117  0.7096986528101183  1.0000
  H   H1        1.0  0.27502023848477813  0.5147737001998605  0.972168037398461  1.0000
  H   H2        1.0  0.22497895806328214  0.9852271904502812  0.47216728372386285  1.0000
  H   H3        1.0  0.7249773369803945  0.4852271557996345  0.027832924099101295  1.0000
  H   H4        1.0  0.7750186172308274  0.014774663989712198  0.5278327378025907  1.0000
  H   H5        1.0  0.31831056717635414  0.5213715808040078  0.1355236120828565  1.0000
  H   H6        1.0  0.18168857763821217  0.9786288074488282  0.6355221508089386  1.0000
  H   H7        1.0  0.6816892587210643  0.4786292620016114  0.8644764094430499  1.0000
  H   H8        1.0  0.8183089978267402  0.021372048548563786  0.3644759907733146  1.0000
  H   H9        1.0  0.6033163902369905  0.9941031112830031  0.8165757856019483  1.0000
  H   H10       1.0  0.8966838833716649  0.5058958790082927  0.3165753547292312  1.0000
  H   H11       1.0  0.39668343566057723  0.005897731524022701  0.1834261158674906  1.0000
  H   H12       1.0  0.10331706791290429  0.4941039587595454  0.6834246667960642  1.0000
  H   H13       1.0  0.4127646588072692  0.008243145464319902  0.8541730528705854  1.0000
  H   H14       1.0  0.08723474630256327  0.49175581091112247  0.35417417318993216  1.0000
  H   H15       1.0  0.5872351672611414  0.9917566989001044  0.14582696865465997  1.0000
  H   H16       1.0  0.9127650799369815  0.5082430350135068  0.6458277282781779  1.0000
  H   H17       1.0  0.3385768256237184  0.6793113690813044  0.837397817549615  1.0000
  H   H18       1.0  0.16142235038473268  0.8206883220016435  0.3373977790045473  1.0000
  H   H19       1.0  0.6614241256607797  0.32068846868583006  0.1626012640039107  1.0000
  H   H20       1.0  0.8385774756836849  0.1793115223627808  0.6626022425206911  1.0000
  H   H21       1.0  0.27283809651348884  0.8255928947113841  0.9133410501183121  1.0000
  H   H22       1.0  0.22716109116543484  0.6744069097065405  0.41334082464030786  1.0000
  H   H23       1.0  0.7271617295548507  0.17440694965233655  0.08665803143515659  1.0000
  H   H24       1.0  0.7728398599482131  0.32559392650319546  0.586660136857418  1.0000
  C   C1        1.0  0.5118627664874039  0.820510332900049  0.8740615191543455  1.0000
  C   C2        1.0  0.9881363907390933  0.6794887497770784  0.3740603881121771  1.0000
  C   C3        1.0  0.48813705975207  0.17948851302387678  0.125939442342009  1.0000
  C   C4        1.0  0.011863435500309497  0.320510096146151  0.6259396334124006  1.0000
  C   C5        1.0  0.3661938665734893  0.7529991475762258  0.9102954984239275  1.0000
  C   C6        1.0  0.13380532080848437  0.7469996538561928  0.4102962992451324  1.0000
  C   C7        1.0  0.6338048342786919  0.24700070338408145  0.0897035831294914  1.0000
  C   C8        1.0  0.8661956306471552  0.2529991854711468  0.5897046622512646  1.0000
  C   C9        1.0  0.3750406575391167  0.6848580017964423  0.0367411503087851  1.0000
  C   C10       1.0  0.1249595973113813  0.8151422324407348  0.5367404062824405  1.0000
  C   C11       1.0  0.6249591683583019  0.3151428410091839  0.9632588712171142  1.0000
  C   C12       1.0  0.8750391035408709  0.18485761852027585  0.46325961524274106  1.0000
  Se  Se1       1.0  0.10833471757068477  0.10470598154310547  0.8860005447499829  1.0000
  Se  Se2       1.0  0.39166581747542745  0.3952940141758532  0.3860025094540589  1.0000
  Se  Se3       1.0  0.891666233713671  0.8952938562226221  0.11399665686000299  1.0000
  Se  Se4       1.0  0.6083351338092129  0.6047058235926881  0.6139984520430061  1.0000
  N   N1        1.0  0.31421846749035603  0.5655295580004988  0.0487849262678708  1.0000
  N   N2        1.0  0.18577953877865375  0.9344707074036972  0.5487843468659362  1.0000
  N   N3        1.0  0.6857802331909041  0.43447129140170637  0.9512150952579715  1.0000
  N   N4        1.0  0.8142191619026136  0.065530141998515  0.45121567465991314  1.0000
  N   N5        1.0  0.5079227166688867  0.949257314403205  0.8481042838851565  1.0000
  N   N6        1.0  0.9920764365687229  0.5507417295367957  0.34810392257216444  1.0000
  N   N7        1.0  0.4920771092286029  0.0507435284031175  0.1518966776125126  1.0000
  N   N8        1.0  0.007924514715924097  0.4492581082317455  0.6518970389249004  1.0000
  O   O1        1.0  0.7924682691459777  0.9423222782141774  0.6950947499059267  1.0000
  O   O2        1.0  0.70752973536198  0.5576765439768252  0.19509530758718796  1.0000
  O   O3        1.0  0.20753043170620333  0.05767757274612961  0.30490433164749214  1.0000
  O   O4        1.0  0.2924712162647154  0.44232129691001626  0.8049065938803182  1.0000
  O   O5        1.0  0.9711091663555604  0.689040194855252  0.8936993465560474  1.0000
  O   O6        1.0  0.5288911187630843  0.8109609074160102  0.3937002210354663  1.0000
  O   O7        1.0  0.02888953415463649  0.31096165298745143  0.1062997349986929  1.0000
  O   O8        1.0  0.4711109575665871  0.1890399221957395  0.6062988605187769  1.0000
  O   O9        1.0  0.09785292553013387  0.9546506504939101  0.8074852656827006  1.0000
  O   O10       1.0  0.40214624571066776  0.5453499943909106  0.3074867676299817  1.0000
  O   O11       1.0  0.9021469007091268  0.0453481954279127  0.1925128758983448  1.0000
  O   O12       1.0  0.5978558307901309  0.45464983678104426  0.6925141938671331  1.0000
  O   O13       1.0  0.15546769582201136  0.05193104465248409  0.0368384762446041  1.0000
  O   O14       1.0  0.34453503565731564  0.44807041367754846  0.5368398116448887  1.0000
  O   O15       1.0  0.8445343801655979  0.9480717818409656  0.9631596653391981  1.0000
  O   O16       1.0  0.6554670406723486  0.5519304159342011  0.4631592699093615  1.0000
  O   O17       1.0  0.28573649505396753  0.14847991523412668  0.8362309579621224  1.0000
  O   O18       1.0  0.2142651573891  0.35152099805564047  0.33623378580447383  1.0000
  O   O19       1.0  0.7142633310140807  0.8515199291267873  0.1637643637042743  1.0000
  O   O20       1.0  0.7857357937246262  0.6484798381547988  0.6637681156650217  1.0000
  O   O21       1.0  0.6312781015384202  0.7503377860625873  0.865415618648754  1.0000
  O   O22       1.0  0.8687210543594331  0.7496612837117452  0.3654145679622047  1.0000
  O   O23       1.0  0.3687217245299904  0.2496620583018298  0.13458440287648438  1.0000
  O   O24       1.0  0.1312787717089066  0.2503385606519827  0.6345845135912711  1.0000
  O   O25       1.0  0.4348804301102689  0.7457126419671808  0.1287503303855004  1.0000
  O   O26       1.0  0.06511983870863959  0.7542887280225299  0.6287494993494106  1.0000
  O   O27       1.0  0.5651205211742293  0.2542871957999607  0.8712487511680322  1.0000
  O   O28       1.0  0.9348799871887079  0.24571211478239258  0.3712495822047258  1.0000
