data_image0
_chemical_formula_structural       Cu4H60C40S8N20Cl4
_chemical_formula_sum              "Cu4 H60 C40 S8 N20 Cl4"
_cell_length_a       10.086644897663579
_cell_length_b       10.502815565
_cell_length_c       13.435
_cell_angle_alpha    90.0
_cell_angle_beta     103.11561747667669
_cell_angle_gamma    90.0

_space_group_name_H-M_alt    "P 1"
_space_group_IT_number       1

loop_
  _space_group_symop_operation_xyz
  'x, y, z'

loop_
  _atom_site_type_symbol
  _atom_site_label
  _atom_site_symmetry_multiplicity
  _atom_site_fract_x
  _atom_site_fract_y
  _atom_site_fract_z
  _atom_site_occupancy
  Cu  Cu1       1.0  0.7675217475535803  0.18474189020951567  0.138758171487261  1.0000
  Cu  Cu2       1.0  0.232478638763908  0.6847411492177358  0.36124330854360664  1.0000
  Cu  Cu3       1.0  0.2324735489418899  0.8152566278069243  0.8612431857499914  1.0000
  Cu  Cu4       1.0  0.7675258194111976  0.3152573687987044  0.6387558878836685  1.0000
  H   H1        1.0  0.6339505662264386  0.907572825687339  0.435053549724266  1.0000
  H   H2        1.0  0.3660508380554575  0.40757261455348015  0.0649466150811762  1.0000
  H   H3        1.0  0.3660488021266488  0.0924266444547399  0.5649470125584486  1.0000
  H   H4        1.0  0.6339515841908394  0.5924268555886059  0.935054467472419  1.0000
  H   H5        1.0  0.6790372276509871  0.7137324228543633  0.7433732860980413  1.0000
  H   H6        1.0  0.3209631586665083  0.21373316384614327  0.7566281939328264  1.0000
  H   H7        1.0  0.3209611227376996  0.2862651430364309  0.2566278470855679  1.0000
  H   H8        1.0  0.6790392635797957  0.7862663062959356  0.2433728886207689  1.0000
  H   H9        1.0  0.7012940013834879  0.5513064534138579  0.7221371081423555  1.0000
  H   H10       1.0  0.2987053669695996  0.051306242279999  0.7778619654913042  1.0000
  H   H11       1.0  0.2987063849340004  0.448693016728221  0.277864371888505  1.0000
  H   H12       1.0  0.7012950193478957  0.9486941799877258  0.22213653724146096  1.0000
  H   H13       1.0  0.6426958984225593  0.2930966445091556  0.4074448091172727  1.0000
  H   H14       1.0  0.3573065238237447  0.7930949513917297  0.09255552911179879  1.0000
  H   H15       1.0  0.3573034699305282  0.7069009213816457  0.5925572418144895  1.0000
  H   H16       1.0  0.64269691638696  0.2069026144990644  0.9074427495673304  1.0000
  H   H17       1.0  0.5383392775303335  0.5490737187861896  0.2132799814105297  1.0000
  H   H18       1.0  0.4616621267515626  0.0490725555266849  0.2867194390703887  1.0000
  H   H19       1.0  0.4616621267515626  0.4509247992302504  0.786721672043967  1.0000
  H   H20       1.0  0.5383392775303335  0.9509250103641165  0.7132777484369512  1.0000
  H   H21       1.0  0.550717724684894  0.3810911441059872  0.23332331217512345  1.0000
  H   H22       1.0  0.4492826616326012  0.8810904031142073  0.2666766792066895  1.0000
  H   H23       1.0  0.4492826616326012  0.6189083260360988  0.7666781678557442  1.0000
  H   H24       1.0  0.550717724684894  0.1189081149022329  0.733321079201545  1.0000
  H   H25       1.0  0.8136497865635803  0.4139966062519349  0.28030630646301086  1.0000
  H   H26       1.0  0.1863495817895071  0.9139977695114396  0.21969276717064898  1.0000
  H   H27       1.0  0.1863495817895071  0.5860000075132206  0.719692767170649  1.0000
  H   H28       1.0  0.8136497865635803  0.0860017006306464  0.7803077951120585  1.0000
  H   H29       1.0  0.780787859668564  0.5670650848946934  0.21941123156362607  1.0000
  H   H30       1.0  0.21921354461333206  0.0670648737608275  0.2805904218908637  1.0000
  H   H31       1.0  0.21921354461333206  0.43293343312174665  0.7805911662153947  1.0000
  H   H32       1.0  0.780787859668564  0.9329345963812514  0.7194089985900547  1.0000
  H   H33       1.0  0.8757792080425375  0.42797095428191767  0.9930203832500765  1.0000
  H   H34       1.0  0.1242221962393586  0.9279711654157765  0.5069797815553656  1.0000
  H   H35       1.0  0.12422117827495778  0.5720304201114459  0.006980352456260199  1.0000
  H   H36       1.0  0.8757802260069383  0.0720302089775871  0.493019812349182  1.0000
  H   H37       1.0  0.8967818496291146  0.5472580151891862  0.0893948867960361  1.0000
  H   H38       1.0  0.1032195546527817  0.0472606604322507  0.410605278009406  1.0000
  H   H39       1.0  0.1032195546527817  0.4527424070785315  0.9106052780094059  1.0000
  H   H40       1.0  0.8967818496291146  0.9527426182123975  0.5893948867960361  1.0000
  H   H41       1.0  0.0196253357477545  0.3933811818773946  0.2211030173125579  1.0000
  H   H42       1.0  0.9803750505697337  0.8933813930112535  0.278897718393786  1.0000
  H   H43       1.0  0.9803750505697337  0.6066182882646842  0.7788962297447313  1.0000
  H   H44       1.0  0.0196263537121624  0.10661902925646419  0.7211031907361871  1.0000
  H   H45       1.0  0.10183206916990882  0.4036574739185212  0.1188862071489467  1.0000
  H   H46       1.0  0.8981703530763879  0.9036548286754567  0.38111413108012476  1.0000
  H   H47       1.0  0.8981683171475794  0.5963467568517657  0.8811122955838186  1.0000
  H   H48       1.0  0.10183206916990882  0.09634844996918449  0.6188869514734705  1.0000
  H   H49       1.0  0.9164753889919481  0.2424759326905317  0.9454689578050691  1.0000
  H   H50       1.0  0.0835249973255401  0.7424751916987518  0.5545310335767509  1.0000
  H   H51       1.0  0.0835249973255401  0.7575244895771931  0.0545302892522201  1.0000
  H   H52       1.0  0.9164743710275474  0.2575242784433271  0.4454702730304874  1.0000
  H   H53       1.0  0.9746703780488346  0.0843878476694897  0.9743129011327979  1.0000
  H   H54       1.0  0.0253300082686536  0.5843871066777098  0.5256870902490149  1.0000
  H   H55       1.0  0.0253300082686536  0.9156135267238666  0.0256863459244911  1.0000
  H   H56       1.0  0.9746693600844337  0.4156142677156467  0.47431347203369256  1.0000
  H   H57       1.0  0.0962353008758541  0.20988848050861006  0.9831139670612854  1.0000
  H   H58       1.0  0.9037650854416414  0.7098877395168302  0.5168845356714797  1.0000
  H   H59       1.0  0.9037650854416414  0.7901119417591147  0.016882302697901325  1.0000
  H   H60       1.0  0.0962353008758541  0.2901126827508946  0.4831176886839117  1.0000
  C   C1        1.0  0.6408818858543484  0.8072264001524445  0.45757045373413513  1.0000
  C   C2        1.0  0.3591144286055297  0.3072261890185857  0.0424288439531608  1.0000
  C   C3        1.0  0.3591195184275477  0.1927730699896344  0.542429711071307  1.0000
  C   C4        1.0  0.6408798499255397  0.6927713768722157  0.9575723398604552  1.0000
  C   C5        1.0  0.6387675737869145  0.6018652770658264  0.41722811664630655  1.0000
  C   C6        1.0  0.3612297586373643  0.10186316168068289  0.08277135446462579  1.0000
  C   C7        1.0  0.3612338304949816  0.3981332409506138  0.5827720481591356  1.0000
  C   C8        1.0  0.6387655378581059  0.8981372605870348  0.9172270254745243  1.0000
  C   C9        1.0  0.667158601018869  0.5655845295232496  0.520542013666649  1.0000
  C   C10       1.0  0.332837713441009  0.0655824141381061  0.9794595169942255  1.0000
  C   C11       1.0  0.3328478930850451  0.43442065337267616  0.4794590182569393  1.0000
  C   C12       1.0  0.6671504573036344  0.934420864506535  0.02053616033046518  1.0000
  C   C13       1.0  0.6743332141393736  0.664279969197004  0.5936504217480731  1.0000
  C   C14       1.0  0.3256671721781217  0.1642788059374993  0.9063495696337399  1.0000
  C   C15       1.0  0.3256722620001398  0.3357195009450749  0.4063496924273551  1.0000
  C   C16       1.0  0.6743291422817563  0.8357216163302184  0.0936541940007132  1.0000
  C   C17       1.0  0.6455156598220739  0.3920843867546324  0.431782282259391  1.0000
  C   C18       1.0  0.3544837085310135  0.8920826936372065  0.0682182800233235  1.0000
  C   C19       1.0  0.3544867624242301  0.6079150833874536  0.5682180559696803  1.0000
  C   C20       1.0  0.6455136238932653  0.1079139201279489  0.9317811910876088  1.0000
  C   C21       1.0  0.603740436604248  0.4723066847456323  0.25240555413267163  1.0000
  C   C22       1.0  0.3962599497132402  0.9723049916282135  0.2475944372491412  1.0000
  C   C23       1.0  0.3962609676776481  0.5276927853964466  0.747596099321818  1.0000
  C   C24       1.0  0.6037394186398473  0.027693526388226496  0.7524038920599948  1.0000
  C   C25       1.0  0.7415046133121166  0.47031198152816234  0.22371323130499118  1.0000
  C   C26       1.0  0.2584957730053716  0.9703121926620283  0.2762867600768217  1.0000
  C   C27       1.0  0.2584947550409709  0.5296865364882777  0.7762873309777162  1.0000
  C   C28       1.0  0.7415056312765245  0.0296882296056964  0.7237126604040967  1.0000
  C   C29       1.0  0.8857746005269577  0.4442332602267314  0.075178012143617  1.0000
  C   C30       1.0  0.11422578579053069  0.9442334713605901  0.42482197923819603  1.0000
  C   C31       1.0  0.1142247678261299  0.5557681141666322  0.9248225501390905  1.0000
  C   C32       1.0  0.8857756184913653  0.0557669509071275  0.5751774412427224  1.0000
  C   C33       1.0  0.0072387448779665  0.3732199214335168  0.1393508186974515  1.0000
  C   C34       1.0  0.9927626594039297  0.8732201325673755  0.36065009043251456  1.0000
  C   C35       1.0  0.9927616414395288  0.6267795487085692  0.8606491726843614  1.0000
  C   C36       1.0  0.0072387448779665  0.12678028970034919  0.6393508186974515  1.0000
  C   C37       1.0  0.9954836782562424  0.1844391142557384  0.9947913592720213  1.0000
  C   C38       1.0  0.0045167080612458  0.6844374211383197  0.5052078877852679  1.0000
  C   C39       1.0  0.0045167080612458  0.815562260137625  0.0052071434607441  1.0000
  C   C40       1.0  0.9954826602918416  0.3155630011294051  0.4947926744974394  1.0000
  S   S1        1.0  0.7231619127136  0.39652605286894976  0.09928425437397688  1.0000
  S   S2        1.0  0.2768384736038882  0.8965272161284473  0.400715737007836  1.0000
  S   S3        1.0  0.2768354197106788  0.6034705608962128  0.900716705386003  1.0000
  S   S4        1.0  0.7231639486424086  0.10347130188799268  0.5992838568967045  1.0000
  S   S5        1.0  0.9927657132971462  0.2013964719183363  0.12851439931523598  1.0000
  S   S6        1.0  0.0072336550559413005  0.7013966830521952  0.37148541864294765  1.0000
  S   S7        1.0  0.0072316191271327  0.7986020460981038  0.8714835831466415  1.0000
  S   S8        1.0  0.9927677492259548  0.298601834964245  0.628516979136066  1.0000
  N   N1        1.0  0.6610874613124764  0.7858968815473019  0.558326472124179  1.0000
  N   N2        1.0  0.338911907040611  0.2858947661621656  0.9416755788075832  1.0000
  N   N3        1.0  0.3389139429694197  0.2141016364691382  0.4416759256548417  1.0000
  N   N4        1.0  0.6610864433480685  0.7141037518542745  0.05832257707792367  1.0000
  N   N5        1.0  0.6279710433164141  0.7218511981934412  0.381283091559574  1.0000
  N   N6        1.0  0.3720273070722655  0.22184908280829768  0.1187172972995114  1.0000
  N   N7        1.0  0.372030360965482  0.2781520804511999  0.6187163289213444  1.0000
  N   N8        1.0  0.6279690073876054  0.7781484830824965  0.881280511738737  1.0000
  N   N9        1.0  0.691464537096941  0.6426552916432158  0.6940457078510676  1.0000
  N   N10       1.0  0.3085348312561464  0.14265508050935688  0.8059555987561708  1.0000
  N   N11       1.0  0.3085368671849551  0.3573460827501478  0.30595817857700774  1.0000
  N   N12       1.0  0.691464537096941  0.8573472460096454  0.19403826460580828  1.0000
  N   N13       1.0  0.6726321956200252  0.43342472995239933  0.5278779364100359  1.0000
  N   N14       1.0  0.3273651368042536  0.9334230368349806  0.9721222790254203  1.0000
  N   N15       1.0  0.3273702266262717  0.5665795008178804  0.4721224018190355  1.0000
  N   N16       1.0  0.6726291417268158  0.0665783375583828  0.027875927490093495  1.0000
  N   N17       1.0  0.6235581676243953  0.4895477758491893  0.36234894062118167  1.0000
  N   N18       1.0  0.3764412007286921  0.9895460827317705  0.1376516216615329  1.0000
  N   N19       1.0  0.3764432366575008  0.5104535985441743  0.6376519685087841  1.0000
  N   N20       1.0  0.6235571496599874  0.0104514831590308  0.862346534223974  1.0000
  Cl  Cl1       1.0  0.7435782068033916  0.1339507479011885  0.30050639103085786  1.0000
  Cl  Cl2       1.0  0.2564231974785045  0.6339481026581311  0.19949823972173417  1.0000
  Cl  Cl3       1.0  0.2564231974785045  0.8660496743665291  0.6995012170198365  1.0000
  Cl  Cl4       1.0  0.7435771888389837  0.3660494632326703  0.8004995186865003  1.0000
