data_image0
_chemical_formula_structural       Hg2H36C44N16
_chemical_formula_sum              "Hg2 H36 C44 N16"
_cell_length_a       10.308302519969986
_cell_length_b       11.331250111201651
_cell_length_c       12.885957130208048
_cell_angle_alpha    90.00025276002847
_cell_angle_beta     90.00060113525066
_cell_angle_gamma    89.56551655049273

_space_group_name_H-M_alt    "P 1"
_space_group_IT_number       1

loop_
  _space_group_symop_operation_xyz
  'x, y, z'

loop_
  _atom_site_type_symbol
  _atom_site_label
  _atom_site_symmetry_multiplicity
  _atom_site_fract_x
  _atom_site_fract_y
  _atom_site_fract_z
  _atom_site_occupancy
  Hg  Hg1       1.0  0.9999925555816064  3.0670368431921786e-06  0.5000050758103924  1.0000
  Hg  Hg2       1.0  0.4999912390813606  0.9999974586160432  1.7110458472e-06  1.0000
  H   H1        1.0  0.2666860833509547  0.11923590403542757  0.8278994935621639  1.0000
  H   H2        1.0  0.23331084595378127  0.8807714800746423  0.3278952913161319  1.0000
  H   H3        1.0  0.7333295829485778  0.8807593108999965  0.172103758483857  1.0000
  H   H4        1.0  0.7666912842228657  0.11922921894520036  0.6721126169153991  1.0000
  H   H5        1.0  0.129968712358135  0.07621951685194969  0.673190112107804  1.0000
  H   H6        1.0  0.370035981454258  0.9237975611667723  0.17318799854801634  1.0000
  H   H7        1.0  0.8700392533341346  0.9237828658228293  0.3268077076497704  1.0000
  H   H8        1.0  0.6299662464658341  0.07621460952930899  0.826819133667648  1.0000
  H   H9        1.0  0.3248067031652013  0.7355278546753607  0.6570684567380667  1.0000
  H   H10       1.0  0.175167638931093  0.26448162169777584  0.1570590420589681  1.0000
  H   H11       1.0  0.6751759198712363  0.26446076085282033  0.3429301389251762  1.0000
  H   H12       1.0  0.8248190223894624  0.7355254708811926  0.8429426578114914  1.0000
  H   H13       1.0  0.4489296224703097  0.792412557092369  0.8096468104473259  1.0000
  H   H14       1.0  0.051072775409089395  0.20758141957601586  0.3096307025439344  1.0000
  H   H15       1.0  0.5510646115308474  0.20757236628384845  0.19034480091006153  1.0000
  H   H16       1.0  0.9489283846159822  0.7924192929532552  0.6903678932204826  1.0000
  H   H17       1.0  0.1746559858060692  0.6952151277093036  0.5592985276918725  1.0000
  H   H18       1.0  0.32534625345459744  0.30480228676800886  0.05929052775358199  1.0000
  H   H19       1.0  0.8253354958299111  0.3047883674381352  0.4406938597286967  1.0000
  H   H20       1.0  0.6746568918460056  0.6952036933097073  0.9407049638750352  1.0000
  H   H21       1.0  0.8031001069161904  0.484570892169657  0.2681116703140276  1.0000
  H   H22       1.0  0.6969007736025006  0.5154298786763148  0.7681082927324282  1.0000
  H   H23       1.0  0.19689818041240406  0.5154342731328112  0.7318838212926551  1.0000
  H   H24       1.0  0.3031002736663027  0.48455759731269393  0.23189495923730874  1.0000
  H   H25       1.0  0.8319342580926802  0.6828148820543304  0.34809692204409254  1.0000
  H   H26       1.0  0.6680744833959337  0.3171888343053552  0.8480933078364004  1.0000
  H   H27       1.0  0.16806502941312831  0.3171937994667714  0.6519001216507974  1.0000
  H   H28       1.0  0.33192951171986357  0.6828030132630046  0.1519068399998247  1.0000
  H   H29       1.0  0.21896774542936007  0.5705775154981365  0.4352494783219427  1.0000
  H   H30       1.0  0.2810518945394307  0.42942568608424375  0.9352480231034903  1.0000
  H   H31       1.0  0.7810285867154221  0.4294259120087317  0.5647514455433011  1.0000
  H   H32       1.0  0.7189628543185975  0.5705757194466655  0.0647575570664998  1.0000
  H   H33       1.0  0.17141049666921046  0.37722099096652767  0.35664861052172364  1.0000
  H   H34       1.0  0.3286090386632949  0.6227765163459578  0.8566521860169233  1.0000
  H   H35       1.0  0.8285965139910516  0.6227831701217494  0.6433523133896699  1.0000
  H   H36       1.0  0.6714116060157878  0.3772336323913236  0.1433665868507887  1.0000
  C   C1        1.0  0.2753235025383276  0.03451486984103269  0.7879000079217421  1.0000
  C   C2        1.0  0.22467679819381914  0.965494028517156  0.2878968389391972  1.0000
  C   C3        1.0  0.7246902009566157  0.9654777248238843  0.2120931556092884  1.0000
  C   C4        1.0  0.7753147135796254  0.0345129964002737  0.712104860951449  1.0000
  C   C5        1.0  0.20007336634751738  0.010784347911190699  0.7011765581318414  1.0000
  C   C6        1.0  0.29992680602730803  0.9892285230686608  0.20117411182820177  1.0000
  C   C7        1.0  0.7999277410386442  0.9892101875587115  0.2988212615817503  1.0000
  C   C8        1.0  0.7000695411811294  0.010776669321302302  0.7988306922334871  1.0000
  C   C9        1.0  0.21264249823012446  0.9006715750935397  0.6508918170110789  1.0000
  C   C10       1.0  0.2873570003291306  0.0993392839633458  0.1508795954664564  1.0000
  C   C11       1.0  0.7873459979937748  0.0993231363020755  0.3491083307658016  1.0000
  C   C12       1.0  0.7126393844342261  0.9006703205952672  0.8491190002952536  1.0000
  C   C13       1.0  0.3054526138288196  0.8213038561251762  0.6919646697774623  1.0000
  C   C14       1.0  0.19454352738780048  0.17870549396554478  0.1919550836499653  1.0000
  C   C15       1.0  0.6945338895597716  0.17868470526995847  0.30803237382475146  1.0000
  C   C16       1.0  0.8054508946726316  0.8213014903606888  0.8080489443685508  1.0000
  C   C17       1.0  0.3760750268974462  0.8535925143098382  0.7789535220276279  1.0000
  C   C18       1.0  0.1239280442962141  0.14641365216985489  0.278941666648997  1.0000
  C   C19       1.0  0.6239182971660782  0.14639948209293147  0.2210380893397073  1.0000
  C   C20       1.0  0.8760740858346806  0.8535870468328285  0.7210592572352255  1.0000
  C   C21       1.0  0.1214363683083519  0.7690318757863537  0.5236953499324244  1.0000
  C   C22       1.0  0.3785623815661125  0.23097216785768634  0.0236968210854442  1.0000
  C   C23       1.0  0.8785570234526431  0.2309680625569683  0.4763001416435912  1.0000
  C   C24       1.0  0.621427077249578  0.7690216475764584  0.9763064308480905  1.0000
  C   C25       1.0  0.8943009184980255  0.5062325098220198  0.3066757800795656  1.0000
  C   C26       1.0  0.6057092206154451  0.4937709760079299  0.8066793146874289  1.0000
  C   C27       1.0  0.1056992638563585  0.49376733377990684  0.6933135032159896  1.0000
  C   C28       1.0  0.3943064758012156  0.506227768689868  0.1933301456743024  1.0000
  C   C29       1.0  0.9099601675758322  0.6172294364609171  0.35076902215268285  1.0000
  C   C30       1.0  0.5900495414036939  0.38276986730644313  0.8507642334143809  1.0000
  C   C31       1.0  0.0900361419607663  0.38277134371654825  0.6492241413214187  1.0000
  C   C32       1.0  0.4099534836367695  0.617221993799937  0.1492382425335776  1.0000
  C   C33       1.0  0.027094134686578297  0.644400955640357  0.401657211857092  1.0000
  C   C34       1.0  0.47291236386188035  0.3555916676103477  0.9016609568854008  1.0000
  C   C35       1.0  0.9729022274889302  0.35560600159648453  0.5983367276678351  1.0000
  C   C36       1.0  0.527086743225766  0.6443958354432694  0.0983422950762645  1.0000
  C   C37       1.0  0.1238436824136855  0.5555473366268303  0.4009070149509455  1.0000
  C   C38       1.0  0.37616967963349174  0.4444548950100752  0.900907967090447  1.0000
  C   C39       1.0  0.8761545898715964  0.44445606380017466  0.5990877006136586  1.0000
  C   C40       1.0  0.6238538000397328  0.5555463887300716  0.09909761311587321  1.0000
  C   C41       1.0  0.09757290849311322  0.44712542158745794  0.3553353799268351  1.0000
  C   C42       1.0  0.4024398866208756  0.5528801159107956  0.8553307655866718  1.0000
  C   C43       1.0  0.9024321093521622  0.5528725895079631  0.6446655439642514  1.0000
  C   C44       1.0  0.5975769001566675  0.44713273422983946  0.1446732625369336  1.0000
  N   N1        1.0  0.36191169279027247  0.9577077270046883  0.8278021902845367  1.0000
  N   N2        1.0  0.1380929132326401  0.042289841556268484  0.3277947047664114  1.0000
  N   N3        1.0  0.6380923022746856  0.04228412054461469  0.17219019716579004  1.0000
  N   N4        1.0  0.8619053215078765  0.9577091467058948  0.6722077711753442  1.0000
  N   N5        1.0  0.13576596482123188  0.8769010834667837  0.5654581364677043  1.0000
  N   N6        1.0  0.3642265715350916  0.1231067897968785  0.0654536356867439  1.0000
  N   N7        1.0  0.8642254792496544  0.12309799950818248  0.4345389071756713  1.0000
  N   N8        1.0  0.6357648951287302  0.8768949405017776  0.9345488402320044  1.0000
  N   N9        1.0  0.0400864862033927  0.7546231491739444  0.4470316809650754  1.0000
  N   N10       1.0  0.4599246449347234  0.24538817399925247  0.9470255759896915  1.0000
  N   N11       1.0  0.9598991297490044  0.24537513253711998  0.5529568262278346  1.0000
  N   N12       1.0  0.5400813880497637  0.7546151181597691  0.0529652594142505  1.0000
  N   N13       1.0  0.9851519677672586  0.420151165376893  0.3083925905370961  1.0000
  N   N14       1.0  0.5148562085372035  0.5798470613298219  0.8083956989329338  1.0000
  N   N15       1.0  0.0148530801494076  0.5798503754637422  0.6916075573223921  1.0000
  N   N16       1.0  0.48515948789979285  0.42015168337560027  0.19161686558315688  1.0000
