data_image0
_chemical_formula_structural       Cu2Ag4H12W2C20N8O12F8
_chemical_formula_sum              "Cu2 Ag4 H12 W2 C20 N8 O12 F8"
_cell_length_a       7.302063411295795
_cell_length_b       8.20934732954662
_cell_length_c       13.845434370784545
_cell_angle_alpha    89.99783643259994
_cell_angle_beta     93.55365781494106
_cell_angle_gamma    89.99970295806838

_space_group_name_H-M_alt    "P 1"
_space_group_IT_number       1

loop_
  _space_group_symop_operation_xyz
  'x, y, z'

loop_
  _atom_site_type_symbol
  _atom_site_label
  _atom_site_symmetry_multiplicity
  _atom_site_fract_x
  _atom_site_fract_y
  _atom_site_fract_z
  _atom_site_occupancy
  Cu  Cu1       1.0  0.9999995866776744  1.4934521196600001e-05  0.9999974414864287  1.0000
  Cu  Cu2       1.0  0.5000016166864186  0.499994839613123  0.5000014615875231  1.0000
  Ag  Ag1       1.0  0.5448728356170208  0.31118343785645664  0.9913299261576329  1.0000
  Ag  Ag2       1.0  0.9551473801964362  0.8111876266366667  0.5086828612077741  1.0000
  Ag  Ag3       1.0  0.45514552264634034  0.6888025870636483  0.008669917031916401  1.0000
  Ag  Ag4       1.0  0.0448586227612751  0.18881057953735342  0.4913172700919192  1.0000
  H   H1        1.0  0.3043348397017596  0.20743011653514998  0.30319952908139675  1.0000
  H   H2        1.0  0.19563756287272577  0.7074539789441021  0.19678829014709015  1.0000
  H   H3        1.0  0.6956602055438381  0.7925644353723413  0.6967980505317259  1.0000
  H   H4        1.0  0.804367093463263  0.29253204608935596  0.8032089049152805  1.0000
  H   H5        1.0  0.7547370182262441  0.09663492457135453  0.33487927568553744  1.0000
  H   H6        1.0  0.7452612671877007  0.5966301233559294  0.16511776970234146  1.0000
  H   H7        1.0  0.2452607394063051  0.9033669359548426  0.6651220104642023  1.0000
  H   H8        1.0  0.2547529176386761  0.4033412838886009  0.834888427453784  1.0000
  H   H9        1.0  0.7227523614042538  0.9990411201718885  0.16033345723055706  1.0000
  H   H10       1.0  0.777231259640402  0.49902237705920544  0.33966701273354977  1.0000
  H   H11       1.0  0.2772358168580454  0.0009826667024554997  0.8396646030958409  1.0000
  H   H12       1.0  0.22277602013741674  0.5009624294079702  0.6603439975819827  1.0000
  W   W1        1.0  7.327548928500003e-06  0.5000068623697871  1.1283090585999997e-06  1.0000
  W   W2        1.0  0.49999570567440804  1.586349682999971e-07  0.49999532702926086  1.0000
  C   C1        1.0  0.3053335299181796  0.11947198792463351  0.10606235184791764  1.0000
  C   C2        1.0  0.19462860706526902  0.619477292691144  0.39393503253462114  1.0000
  C   C3        1.0  0.6946450628180542  0.8805286547005483  0.8939332052138415  1.0000
  C   C4        1.0  0.8053581864559761  0.38053065853478785  0.6060644238615469  1.0000
  C   C5        1.0  0.8520844288469931  0.04414171653409231  0.1933541459962811  1.0000
  C   C6        1.0  0.6479088152011059  0.5441417821542274  0.30664607107130604  1.0000
  C   C7        1.0  0.14790375576041728  0.9558845066103389  0.806643192258079  1.0000
  C   C8        1.0  0.3520957521627325  0.4558418063124209  0.6933612326380827  1.0000
  C   C9        1.0  0.17411295442717292  0.161455749597252  0.2718345118675885  1.0000
  C   C10       1.0  0.32587208447410637  0.6614892459736269  0.22816850946398406  1.0000
  C   C11       1.0  0.82587797446039  0.8385522016836833  0.728162922994237  1.0000
  C   C12       1.0  0.6741380221189743  0.33849799702856853  0.7718332106476569  1.0000
  C   C13       1.0  0.8696392237512425  0.10052561489975892  0.28841243429369723  1.0000
  C   C14       1.0  0.6303522111356868  0.6005147163684795  0.21157922703392276  1.0000
  C   C15       1.0  0.13035717446660305  0.8994823362947529  0.7115873594986157  1.0000
  C   C16       1.0  0.36966334573611453  0.39946887210790294  0.7884270181826027  1.0000
  C   C17       1.0  0.1575011146623382  0.10716581373185362  0.17645974688377214  1.0000
  C   C18       1.0  0.3424775904224191  0.6071737150202879  0.323539218852119  1.0000
  C   C19       1.0  0.8424843258109432  0.8928457919379441  0.8235374951385455  1.0000
  C   C20       1.0  0.6575256365404131  0.3928281454194861  0.6764644262281081  1.0000
  N   N1        1.0  0.996191566346809  0.04937011120022561  0.13842477940573167  1.0000
  N   N2        1.0  0.5037989061293189  0.5493734152146318  0.36157305573100734  1.0000
  N   N3        1.0  0.0037952588999842977  0.9506500213761769  0.8615710666302479  1.0000
  N   N4        1.0  0.4962056929762896  0.45061870023157274  0.6384306376599014  1.0000
  N   N5        1.0  0.029691583171796796  0.15926533654189262  0.3273775671621664  1.0000
  N   N6        1.0  0.470298957327877  0.6592749239260131  0.17262641929065842  1.0000
  N   N7        1.0  0.9703034239111973  0.8407353058468275  0.6726243446468134  1.0000
  N   N8        1.0  0.5297097644808774  0.34070622841684184  0.82737669677951  1.0000
  O   O1        1.0  0.26269202873528036  0.06273701444955289  0.020795040120539506  1.0000
  O   O2        1.0  0.2373007919258043  0.5627294320113236  0.47920542207950945  1.0000
  O   O3        1.0  0.7373016697533855  0.9372758094082415  0.979199602907656  1.0000
  O   O4        1.0  0.7626914646400992  0.43726268349810493  0.520797115472128  1.0000
  O   O5        1.0  0.4546303090595104  0.187906273275118  0.1312291420777854  1.0000
  O   O6        1.0  0.04535178896250609  0.6879272144025564  0.36876884687723793  1.0000
  O   O7        1.0  0.5453660955683404  0.8120894967058733  0.8687699298093465  1.0000
  O   O8        1.0  0.9546555733612437  0.3120758642158635  0.6312327766547415  1.0000
  O   O9        1.0  0.24751983610242692  0.46980199316548277  0.9931005280858901  1.0000
  O   O10       1.0  0.2524836516934883  0.9697888978363736  0.5069051674281158  1.0000
  O   O11       1.0  0.7524916425685361  0.530190122326758  0.006901240169582893  1.0000
  O   O12       1.0  0.7475127466271091  0.030195909009080407  0.4930946266283841  1.0000
  F   F1        1.0  0.047077101796475104  0.7195159636783047  0.0489527118972148  1.0000
  F   F2        1.0  0.4528951618445376  0.2195028152563339  0.451038442059506  1.0000
  F   F3        1.0  0.9529537196177671  0.28050416907401404  0.9510345679019212  1.0000
  F   F4        1.0  0.547083437225986  0.7805026998862131  0.5489563929023973  1.0000
  F   F5        1.0  0.014104107083426198  0.42302211073247525  0.13215283265121516  1.0000
  F   F6        1.0  0.4858922985917006  0.9230156264062616  0.3678483098898369  1.0000
  F   F7        1.0  0.9859045827455901  0.577004112070732  0.8678538931256344  1.0000
  F   F8        1.0  0.5141027784497539  0.07697527124445712  0.6321456595438522  1.0000
