data_image0
_chemical_formula_structural       AgH14C15S9N2O3F3
_chemical_formula_sum              "Ag1 H14 C15 S9 N2 O3 F3"
_cell_length_a       7.510923860616902
_cell_length_b       8.042030841070284
_cell_length_c       10.960137219547073
_cell_angle_alpha    94.396907766189
_cell_angle_beta     93.46489808801157
_cell_angle_gamma    110.27005131657961

_space_group_name_H-M_alt    "P 1"
_space_group_IT_number       1

loop_
  _space_group_symop_operation_xyz
  'x, y, z'

loop_
  _atom_site_type_symbol
  _atom_site_label
  _atom_site_symmetry_multiplicity
  _atom_site_fract_x
  _atom_site_fract_y
  _atom_site_fract_z
  _atom_site_occupancy
  Ag  Ag1       1.0  0.35490854273669475  0.7551626185200252  0.1501324606118359  1.0000
  H   H1        1.0  0.8891906013874618  0.8181707723023809  0.3529076895203503  1.0000
  H   H2        1.0  0.9090526663933078  0.6876858680516098  0.21486750057495396  1.0000
  H   H3        1.0  0.003360595265100158  0.9254877801325284  0.22731730720499851  1.0000
  H   H4        1.0  0.4743817492765671  0.2643798782081462  0.2996257462360888  1.0000
  H   H5        1.0  0.5801092649347694  0.40806220338236454  0.18634698036172645  1.0000
  H   H6        1.0  0.32629873364552964  0.31918105456059476  0.18429334078483353  1.0000
  H   H7        1.0  0.13688199298631076  0.19198413700198816  0.794495454372786  1.0000
  H   H8        1.0  0.34290542272513147  0.32178590748126384  0.7297647923967432  1.0000
  H   H9        1.0  0.4214881070587921  0.3394904040491441  0.9529608711468782  1.0000
  H   H10       1.0  0.5502006551706414  0.22065444892898264  0.8762616087301824  1.0000
  H   H11       1.0  0.8100948110578584  0.7151121196093089  0.6743165042150991  1.0000
  H   H12       1.0  0.6631910219679681  0.5560193666820017  0.7611388995071877  1.0000
  H   H13       1.0  0.8426702398357548  0.9600005018827394  0.8471906385969988  1.0000
  H   H14       1.0  0.9398528946466623  0.7966023247383093  0.8898268928086921  1.0000
  C   C1        1.0  0.9767657484377635  0.8087021209249273  0.2781280107200814  1.0000
  C   C2        1.0  0.460353933948717  0.3669573836585658  0.2433926267749058  1.0000
  C   C3        1.0  0.16074109321188962  0.6229230931971231  0.40809341093265783  1.0000
  C   C4        1.0  0.26512586003691746  0.5137117974914603  0.4028754233507641  1.0000
  C   C5        1.0  0.9662467952571276  0.3457739385660049  0.5105954421043251  1.0000
  C   C6        1.0  0.8111551055671811  0.2166233197666331  0.5445121068718138  1.0000
  C   C7        1.0  0.48641161576649233  0.05313217213354452  0.6303547581789034  1.0000
  C   C8        1.0  0.5821088049364535  0.9366093377696321  0.6319629045599912  1.0000
  C   C9        1.0  0.2823614591764709  0.20159654088656967  0.7767215980010037  1.0000
  C   C10       1.0  0.40623413158883165  0.21551448384492042  0.8959657631975803  1.0000
  C   C11       1.0  0.3251630477865959  0.06671730067957071  0.9669933267203775  1.0000
  C   C12       1.0  0.7086379586096853  0.6968926230958703  0.7444666732242881  1.0000
  C   C13       1.0  0.8070493382726625  0.8184044010198125  0.8617543067710471  1.0000
  C   C14       1.0  0.688084169423668  0.7820637416018814  0.9624372240421978  1.0000
  C   C15       1.0  0.8841633402726073  0.24642793955072773  0.10778092367058181  1.0000
  S   S1        1.0  0.21164578781528573  0.8219830979716393  0.3398192348529605  1.0000
  S   S2        1.0  0.4810059133555812  0.5680519290412891  0.3390695247568872  1.0000
  S   S3        1.0  0.9646849051247199  0.5613592704765155  0.49542782106711764  1.0000
  S   S4        1.0  0.1823479195291426  0.319920387765734  0.4787564032010111  1.0000
  S   S5        1.0  0.5965611461288489  0.2527682596208792  0.5650098772293575  1.0000
  S   S6        1.0  0.8016028301467345  0.00030252944890920696  0.5673597426719398  1.0000
  S   S7        1.0  0.25541621116943963  0.005970489349778104  0.6718157346602567  1.0000
  S   S8        1.0  0.4922108369236611  0.7256931126381617  0.6824926035162664  1.0000
  S   S9        1.0  0.9567598468069888  0.3895013134474895  0.9806353622807222  1.0000
  N   N1        1.0  0.25879060412322735  0.9472817491872265  0.023944299177827595  1.0000
  N   N2        1.0  0.5898713075467726  0.7514640262754075  0.04194282264457172  1.0000
  O   O1        1.0  0.16432265739085491  0.46666317564221077  0.0067981254689754985  1.0000
  O   O2        1.0  0.8552493123529388  0.5130167821693093  0.9983778142598183  1.0000
  O   O3        1.0  0.8901873185196506  0.2620214604055208  0.8707520276675496  1.0000
  F   F1        1.0  0.9217645110213866  0.34505000387072493  0.21859789961066417  1.0000
  F   F2        1.0  0.694565487055634  0.14924993733947645  0.09402827328755592  1.0000
  F   F3        1.0  0.98002110161336  0.13028362975908447  0.11129964570228172  1.0000
