data_image0
_chemical_formula_structural       Cu2H28C40S2N8Cl2
_chemical_formula_sum              "Cu2 H28 C40 S2 N8 Cl2"
_cell_length_a       9.441805658389876
_cell_length_b       10.232440224044401
_cell_length_c       11.87289613087461
_cell_angle_alpha    86.28054240690895
_cell_angle_beta     67.54183035936856
_cell_angle_gamma    69.28985737948888

_space_group_name_H-M_alt    "P 1"
_space_group_IT_number       1

loop_
  _space_group_symop_operation_xyz
  'x, y, z'

loop_
  _atom_site_type_symbol
  _atom_site_label
  _atom_site_symmetry_multiplicity
  _atom_site_fract_x
  _atom_site_fract_y
  _atom_site_fract_z
  _atom_site_occupancy
  Cu  Cu1       1.0  0.26197106949798876  0.028726244314214  0.2312615476418571  1.0000
  Cu  Cu2       1.0  0.7380302156657239  0.9712734946637411  0.7687380959961345  1.0000
  H   H1        1.0  0.709194446251935  0.8628665397892731  0.4218437251220948  1.0000
  H   H2        1.0  0.2908038980352217  0.13712908537443977  0.5781561656004187  1.0000
  H   H3        1.0  0.7978306843156066  0.7097032606004063  0.4812869802636825  1.0000
  H   H4        1.0  0.2021726937777331  0.2902912499398411  0.5187106109883005  1.0000
  H   H5        1.0  0.3843119108112919  0.8337542360898733  0.45832342233316586  1.0000
  H   H6        1.0  0.6156767860166144  0.1662539846584536  0.5416863191509548  1.0000
  H   H7        1.0  0.6337554932927038  0.7612388326892868  0.28285349384464803  1.0000
  H   H8        1.0  0.3662469555234083  0.23876091215662149  0.7171424306669111  1.0000
  H   H9        1.0  0.12072742415337252  0.20360274940918544  0.0527277250150249  1.0000
  H   H10       1.0  0.8792723995241833  0.7963949536634162  0.9472690904578657  1.0000
  H   H11       1.0  0.9383714076428615  0.6265817721134823  0.5954177920235681  1.0000
  H   H12       1.0  0.061632693520302075  0.37341373837792696  0.40458374334585306  1.0000
  H   H13       1.0  0.3714238164048141  0.6588354015631311  0.6168574759593  1.0000
  H   H14       1.0  0.6285703317920907  0.34117065647397743  0.38314989291507123  1.0000
  H   H15       1.0  0.7142638900244123  0.6271134584736943  0.09382777972659548  1.0000
  H   H16       1.0  0.28574004073984577  0.3728883702816078  0.9061642261903701  1.0000
  H   H17       1.0  0.6751670539265718  0.12558229334593562  0.1193888773746394  1.0000
  H   H18       1.0  0.32483307525798477  0.8744174577655743  0.8806119553549011  1.0000
  H   H19       1.0  0.7341048315412098  0.9667288609180742  0.272132881765323  1.0000
  H   H20       1.0  0.2658921531171501  0.033273016636528  0.7278696320807897  1.0000
  H   H21       1.0  0.8700471931557487  0.24923004372801222  0.004542902037577853  1.0000
  H   H22       1.0  0.12995105697983436  0.7507687195658833  0.9954551756660734  1.0000
  H   H23       1.0  0.13521178511344098  0.600371565362032  0.2556379698312555  1.0000
  H   H24       1.0  0.8647919112756458  0.3996250232196417  0.7443594219525735  1.0000
  H   H25       1.0  0.21901922724536152  0.4679608153106329  0.06392803543455022  1.0000
  H   H26       1.0  0.7809842757250752  0.5320420375303883  0.9360674170014819  1.0000
  H   H27       1.0  0.1507923024352138  0.5603843860146895  0.6846718079282113  1.0000
  H   H28       1.0  0.8492086490862436  0.43961323891880993  0.31533309524770203  1.0000
  C   C1        1.0  0.44887600681658324  0.17765434826252147  0.030110354326580963  1.0000
  C   C2        1.0  0.5511298740959493  0.8223338677507639  0.9698876414350722  1.0000
  C   C3        1.0  0.014806496242549561  0.9119247535601713  0.3323428483816002  1.0000
  C   C4        1.0  0.9851885965780841  0.08807610617429867  0.6676611271634343  1.0000
  C   C5        1.0  0.17154545593076176  0.8243551026587282  0.4357733178196312  1.0000
  C   C6        1.0  0.828447538844742  0.17565097351243958  0.5642343968013322  1.0000
  C   C7        1.0  0.8779691528493603  0.6903939813709173  0.2843004368081949  1.0000
  C   C8        1.0  0.12203915978307835  0.30960254067503  0.7156947286443297  1.0000
  C   C9        1.0  0.8240798262814409  0.7734402745279425  0.4032345542655945  1.0000
  C   C10       1.0  0.17592459573521785  0.226557320005405  0.5967659382907087  1.0000
  C   C11       1.0  0.961124278605816  0.9984331829510962  0.24381734723263548  1.0000
  C   C12       1.0  0.0388723877567969  0.0015666165620800026  0.756185366081631  1.0000
  C   C13       1.0  0.974744870431472  0.5370376014829006  0.0599429275081961  1.0000
  C   C14       1.0  0.02526481465103814  0.4629641065995855  0.9400515664006478  1.0000
  C   C15       1.0  0.290853168106409  0.7862872895571301  0.48665366449408515  1.0000
  C   C16       1.0  0.7091397248442777  0.21372190674271246  0.5133547671429001  1.0000
  C   C17       1.0  0.04704131933652896  0.7649594029682376  0.47400380796493385  1.0000
  C   C18       1.0  0.9529571344812311  0.2350445284932334  0.5259990040114035  1.0000
  C   C19       1.0  0.7622073063484008  0.694885238726428  0.23641617692136674  1.0000
  C   C20       1.0  0.2378005861634663  0.30511232540675337  0.7635799050153337  1.0000
  C   C21       1.0  0.031762784808705605  0.15343324049157303  0.0988634311366567  1.0000
  C   C22       1.0  0.9682354627691226  0.8465655168018245  0.9011354899119581  1.0000
  C   C23       1.0  0.036320501799842586  0.6693899769077803  0.5637824770444269  1.0000
  C   C24       1.0  0.9636748151649644  0.33061609899829847  0.43621948601358435  1.0000
  C   C25       1.0  0.2811817086980215  0.6899358296017226  0.5748513360748149  1.0000
  C   C26       1.0  0.7188116069309843  0.31007233061138356  0.42515533573303094  1.0000
  C   C27       1.0  0.8096698488961354  0.6188834365584767  0.12695718166782655  1.0000
  C   C28       1.0  0.19033753701682346  0.3811183257936435  0.8730354736993036  1.0000
  C   C29       1.0  0.7856207863309876  0.109088236634193  0.13612568400030522  1.0000
  C   C30       1.0  0.21437828614149623  0.8909084004816991  0.863876464149719  1.0000
  C   C31       1.0  0.8200311099115255  0.017891421501687405  0.222353217934355  1.0000
  C   C32       1.0  0.17996818414738433  0.9821104257853077  0.7776477610736168  1.0000
  C   C33       1.0  0.8926925093075441  0.17785705321603731  0.07299864901851555  1.0000
  C   C34       1.0  0.10730616094861041  0.8221406679906167  0.9269985122009601  1.0000
  C   C35       1.0  0.04207770569149016  0.6063102193209317  0.22044772020285563  1.0000
  C   C36       1.0  0.9579301944936207  0.39368736281376465  0.779545831698961  1.0000
  C   C37       1.0  0.08967381106725733  0.5308326376758074  0.11058295921930748  1.0000
  C   C38       1.0  0.910330524471078  0.46916811298923017  0.889413190283257  1.0000
  C   C39       1.0  0.15565564577567415  0.6331594625439294  0.6134787888490225  1.0000
  C   C40       1.0  0.8443397704562091  0.36684348723298404  0.3865233005379309  1.0000
  S   S1        1.0  0.5757495445243493  0.23447676582420476  0.9233257861245648  1.0000
  S   S2        1.0  0.4242567872342847  0.7655218885327955  0.0766673413180925  1.0000
  N   N1        1.0  0.14674368346639027  0.9157254582211535  0.34815027102443  1.0000
  N   N2        1.0  0.8532475212962184  0.08427648000122188  0.6518581882794265  1.0000
  N   N3        1.0  0.950272225842362  0.8222810850572414  0.4069364496339744  1.0000
  N   N4        1.0  0.0497251687055709  0.17771972640810674  0.5930685211078099  1.0000
  N   N5        1.0  0.3507447595421952  0.1392992787186316  0.10686630780725179  1.0000
  N   N6        1.0  0.649266496492018  0.860689954717138  0.8931215989110657  1.0000
  N   N7        1.0  0.06459134894868161  0.06636526211891437  0.18182338012571359  1.0000
  N   N8        1.0  0.9354076344877245  0.9336345251281627  0.8181752683155353  1.0000
  Cl  Cl1       1.0  0.42086730081828705  0.038872767610612896  0.3308982739735812  1.0000
  Cl  Cl2       1.0  0.5791312548242973  0.9611280437221905  0.6691038209867274  1.0000
