data_image0
_chemical_formula_structural       Zr6H13C52S10N7O46
_chemical_formula_sum              "Zr6 H13 C52 S10 N7 O46"
_cell_length_a       16.425441750967803
_cell_length_b       16.443054216922974
_cell_length_c       16.506966915833015
_cell_angle_alpha    61.8502587547839
_cell_angle_beta     59.867414180004
_cell_angle_gamma    60.32576177974404

_space_group_name_H-M_alt    "P 1"
_space_group_IT_number       1

loop_
  _space_group_symop_operation_xyz
  'x, y, z'

loop_
  _atom_site_type_symbol
  _atom_site_label
  _atom_site_symmetry_multiplicity
  _atom_site_fract_x
  _atom_site_fract_y
  _atom_site_fract_z
  _atom_site_occupancy
  Zr  Zr1       1.0  0.887888648901189  0.9017785416328866  0.5964482158816296  1.0000
  Zr  Zr2       1.0  0.11190029366090926  0.10124447372353979  0.3983386320409964  1.0000
  Zr  Zr3       1.0  0.10100543096572778  0.8937733547578971  0.6077757138933819  1.0000
  Zr  Zr4       1.0  0.8979776719838383  0.1100576080337205  0.38768458663736277  1.0000
  Zr  Zr5       1.0  0.11007612696837285  0.8919666084744193  0.38866208123227614  1.0000
  Zr  Zr6       1.0  0.8889839644950399  0.11163730639457023  0.6062577248064188  1.0000
  H   H1        1.0  0.07849380671416366  0.7518985092544457  0.5768087724189145  1.0000
  H   H2        1.0  0.09431981618909899  0.07992298240053232  0.247438329224977  1.0000
  H   H3        1.0  0.08125718463524127  0.08219998492834432  0.5906463933752448  1.0000
  H   H4        1.0  0.7447587354623906  0.0931983078522406  0.5753940132989258  1.0000
  H   H5        1.0  0.12445575752528985  0.6132440084822265  0.3572183356576134  1.0000
  H   H6        1.0  0.6071234586761562  0.12959500138365596  0.8940160409996736  1.0000
  H   H7        1.0  0.8784587931831426  0.13308986526838848  0.10880981442540628  1.0000
  H   H8        1.0  0.6152899807310349  0.39068845316080586  0.3665678971952533  1.0000
  H   H9        1.0  0.09732995390666588  0.6409444555386656  0.8738343326860162  1.0000
  H   H10       1.0  0.8388929848972497  0.656115273043028  0.8540130975649874  1.0000
  H   H11       1.0  0.8948519655878401  0.37141607992408143  0.1307879100005992  1.0000
  H   H12       1.0  0.14303662434362957  0.36625018197982945  0.1598447475218165  1.0000
  H   H13       1.0  0.6199329208936674  0.8776878564499385  0.6124086623224161  1.0000
  C   C1        1.0  0.9956495380194778  0.7379369397133505  0.48330505518723754  1.0000
  C   C2        1.0  0.28324300622942616  0.9877455855760006  0.23547516460489964  1.0000
  C   C3        1.0  0.9975723462588346  0.2725514532335963  0.5030597682717756  1.0000
  C   C4        1.0  0.7236550423511616  0.007442516442409909  0.7667340784429939  1.0000
  C   C5        1.0  0.9792406630797145  0.7418398231487445  0.7661857302073541  1.0000
  C   C6        1.0  0.7326403017091465  0.004699203677965619  0.4839108199710722  1.0000
  C   C7        1.0  0.01241333102131394  0.27030009172012365  0.23749502996844293  1.0000
  C   C8        1.0  0.27382618194317143  0.9909190553285326  0.5044931545675339  1.0000
  C   C9        1.0  0.2744382324597152  0.7317716731277458  0.4965404228361337  1.0000
  C   C10       1.0  0.9863342496133573  0.999069040226381  0.7780500356609253  1.0000
  C   C11       1.0  0.7335255773912905  0.2799737321860221  0.4911110776472329  1.0000
  C   C12       1.0  0.0027814989232053146  0.9989026163894581  0.2247433417221033  1.0000
  C   C13       1.0  0.927738331512131  0.4224435409684588  0.5604246104746764  1.0000
  C   C14       1.0  0.06132794887064102  0.5938690987643725  0.41959076597773765  1.0000
  C   C15       1.0  0.9951707770221108  0.36511934598289053  0.49793393312427997  1.0000
  C   C16       1.0  0.9941089881457613  0.6492095756280493  0.4837979334134133  1.0000
  C   C17       1.0  0.03614270352258577  0.5114338775133761  0.4475839296989649  1.0000
  C   C18       1.0  0.9498577896502737  0.5063462173998872  0.5329841814145694  1.0000
  C   C19       1.0  0.4255547497023782  0.9240090420249775  0.09054298490094949  1.0000
  C   C20       1.0  0.5876127312544525  0.0663344338873911  0.9150483130965912  1.0000
  C   C21       1.0  0.37289448012515414  0.9877647995599049  0.14669097175833193  1.0000
  C   C22       1.0  0.6386180687024067  0.002427311302135072  0.8595965374990727  1.0000
  C   C23       1.0  0.5094597244887566  0.037465473524186235  0.9991015682601375  1.0000
  C   C24       1.0  0.5034482793069724  0.9515695078455482  0.00548833548521794  1.0000
  C   C25       1.0  0.04827838584009908  0.9269885743477391  0.9210168520772798  1.0000
  C   C26       1.0  0.9345993732169405  0.0673486509662809  0.08798549099017818  1.0000
  C   C27       1.0  0.9855442921505927  0.997265093043879  0.8683882891847433  1.0000
  C   C28       1.0  0.9990903786581529  0.9968644792298704  0.13844041930379788  1.0000
  C   C29       1.0  0.9533257474564396  0.04161655762987959  0.00832613559156667  1.0000
  C   C30       1.0  0.03176964162040716  0.9512877394548767  0.0005377716907730757  1.0000
  C   C31       1.0  0.4241324897970741  0.5987011768640613  0.5551025285121511  1.0000
  C   C32       1.0  0.5934108930555695  0.4164380327851447  0.42671992902718614  1.0000
  C   C33       1.0  0.36866126720747133  0.647176148603343  0.4934289825311782  1.0000
  C   C34       1.0  0.6451443408148594  0.3696994833225133  0.4908611299646922  1.0000
  C   C35       1.0  0.5109508506245461  0.499090156732251  0.4518281457018388  1.0000
  C   C36       1.0  0.5033021746221492  0.5130441677964299  0.5337650493272932  1.0000
  C   C37       1.0  0.03919153726096888  0.610631483899759  0.902111806311332  1.0000
  C   C38       1.0  0.893193407266182  0.6193072151732225  0.8904424026640289  1.0000
  C   C39       1.0  0.8880922746305728  0.536752130286324  0.9695040635963182  1.0000
  C   C40       1.0  0.9567603931214067  0.4868010863718054  0.020485548932384644  1.0000
  C   C41       1.0  0.9508789108971099  0.40376904275504444  0.10401021791341947  1.0000
  C   C42       1.0  0.09181426776182619  0.3999028388247511  0.12047347795465414  1.0000
  C   C43       1.0  0.09950631968256123  0.479611982894575  0.038492416307192905  1.0000
  C   C44       1.0  0.033665609841179535  0.5267570336929805  0.9849187534928704  1.0000
  C   C45       1.0  0.9706582983867307  0.6553956383450341  0.855629965554563  1.0000
  C   C46       1.0  0.01740155753178385  0.36087593285341774  0.15232810583020043  1.0000
  C   C47       1.0  0.4155104545788291  0.05621438231792543  0.4330323819175563  1.0000
  C   C48       1.0  0.5951462189464961  0.9359565989491615  0.5526967259563167  1.0000
  C   C49       1.0  0.36470287662458406  0.9907484651844244  0.5012666730476527  1.0000
  C   C50       1.0  0.6445192202469627  0.002173569225711001  0.4842132040318037  1.0000
  C   C51       1.0  0.5114566883099129  0.9559843510960775  0.5335908871806013  1.0000
  C   C52       1.0  0.4997406769840468  0.03746438520403206  0.45003940504732753  1.0000
  S   S1        1.0  0.0875027049057593  0.41369804934711857  0.4036064511737223  1.0000
  S   S2        1.0  0.8996886213967131  0.60286141620697  0.5781151175309419  1.0000
  S   S3        1.0  0.41926345807853244  0.08249221766465101  0.0961966662828075  1.0000
  S   S4        1.0  0.5933077693414216  0.9068788343432959  0.9082085997930491  1.0000
  S   S5        1.0  0.9037865768683345  0.0947695278259246  0.9171192357231918  1.0000
  S   S6        1.0  0.08296480166890761  0.8990897841886325  0.09007392957010307  1.0000
  S   S7        1.0  0.41709567878747567  0.5888549801509413  0.4064153256204295  1.0000
  S   S8        1.0  0.5946263586887782  0.42447967620036303  0.5817109639629338  1.0000
  S   S9        1.0  0.4200654093912416  0.9045460298559505  0.5881636577892095  1.0000
  S   S10       1.0  0.5910247489490957  0.08902352058448328  0.3956422534245548  1.0000
  N   N1        1.0  0.8425559907019107  0.39870564003908265  0.6474930538852633  1.0000
  N   N2        1.0  0.4035771757233132  0.836829587264802  0.11526764922982835  1.0000
  N   N3        1.0  0.12420117639983622  0.8351993156551886  0.89874540508049  1.0000
  N   N4        1.0  0.4127337836716763  0.6292711698379988  0.6311885663179736  1.0000
  N   N5        1.0  0.3865522921922634  0.1381335902734619  0.3510542567420742  1.0000
  N   N6        1.0  0.18215345994042298  0.513908053313962  0.0060405369669069816  1.0000
  N   N7        1.0  0.807278487126176  0.5012683304562557  0.9993337562869657  1.0000
  O   O1        1.0  0.9242032013877622  0.7756475265717598  0.5514208043006122  1.0000
  O   O2        1.0  0.2487047557717403  0.05596887286188948  0.2728214619806338  1.0000
  O   O3        1.0  0.0708436917938116  0.23286475987025304  0.4372659980110144  1.0000
  O   O4        1.0  0.7566383473329026  0.9412072474010742  0.7271032223427769  1.0000
  O   O5        1.0  0.05066871818151931  0.7719874657918453  0.7354272439522235  1.0000
  O   O6        1.0  0.7685604193455974  0.07222069923226133  0.41735843254479493  1.0000
  O   O7        1.0  0.9423482361882877  0.23897923775719215  0.2662889735274305  1.0000
  O   O8        1.0  0.2355857158039637  0.925989743715782  0.5730236320958751  1.0000
  O   O9        1.0  0.2429922170521904  0.7632402502183241  0.4265685527523289  1.0000
  O   O10       1.0  0.9197800216225146  0.07018084855590699  0.7426722827659235  1.0000
  O   O11       1.0  0.7655868946434128  0.24549754260302586  0.5614100969666611  1.0000
  O   O12       1.0  0.07098631517633444  0.9292867124515142  0.2588082130444462  1.0000
  O   O13       1.0  0.05575872308703085  0.9296612389889777  0.7415481018078084  1.0000
  O   O14       1.0  0.7706156817943963  0.24282615718334438  0.4219178676186958  1.0000
  O   O15       1.0  0.9371488326163729  0.07158062682960777  0.2580482600097655  1.0000
  O   O16       1.0  0.23057010160144376  0.7643906573067981  0.5698527046424998  1.0000
  O   O17       1.0  0.914281756497097  0.7774074620274547  0.7264722089382263  1.0000
  O   O18       1.0  0.24004512902784828  0.059235478627073214  0.43677969296793867  1.0000
  O   O19       1.0  0.08131550936546714  0.23037373404999076  0.27327607156156836  1.0000
  O   O20       1.0  0.7649628075015755  0.9383489463386498  0.5531424989474161  1.0000
  O   O21       1.0  0.7570654739216852  0.07705462583982126  0.7329202571411886  1.0000
  O   O22       1.0  0.06815969027345398  0.7687607618411575  0.4173813551518323  1.0000
  O   O23       1.0  0.2460464825671024  0.9217499164176176  0.26605965183198077  1.0000
  O   O24       1.0  0.9276651451871699  0.23948488438702498  0.5722922838397438  1.0000
  O   O25       1.0  0.8172782124600316  0.06782971294177272  0.5526364364157247  1.0000
  O   O26       1.0  0.05752769415649083  0.059108145462033634  0.5649315612875583  1.0000
  O   O27       1.0  0.06787668660133052  0.05735064213206438  0.31851340763007846  1.0000
  O   O28       1.0  0.0558201992450265  0.8229335809784503  0.5538114273137112  1.0000
  O   O29       1.0  0.13420482916585255  0.9524139801254281  0.4569558993603026  1.0000
  O   O30       1.0  0.9572513709972482  0.9598206372250786  0.4475752558335912  1.0000
  O   O31       1.0  0.9581764423760646  0.13350422360242206  0.4560552086285767  1.0000
  O   O32       1.0  0.9494100888403596  0.9612816630330837  0.6293010439271287  1.0000
  O   O33       1.0  0.8579093748885498  0.35033369880680726  0.725826445511814  1.0000
  O   O34       1.0  0.7623540806328108  0.4316993706297227  0.6354491564323937  1.0000
  O   O35       1.0  0.3621723471078936  0.8430886488147209  0.06634562390783565  1.0000
  O   O36       1.0  0.43078614317685976  0.7641127121219783  0.18028345161469167  1.0000
  O   O37       1.0  0.2118153196788412  0.8327439841853278  0.8560164615611684  1.0000
  O   O38       1.0  0.09387862608411261  0.7672752654526606  0.9280791917375882  1.0000
  O   O39       1.0  0.43299557519951287  0.561575502020105  0.7032700549153434  1.0000
  O   O40       1.0  0.3898424554177992  0.7173524023787934  0.6171106205181616  1.0000
  O   O41       1.0  0.32870425894386546  0.21744346499922784  0.3675046325155407  1.0000
  O   O42       1.0  0.4260976777110628  0.12187253967910293  0.27136156025232344  1.0000
  O   O43       1.0  0.23428644889638384  0.530673390980219  0.9178363861931161  1.0000
  O   O44       1.0  0.19464828561553563  0.5205309923093111  0.0704026645365587  1.0000
  O   O45       1.0  0.8269339613928821  0.41137231666150587  0.024774356267144398  1.0000
  O   O46       1.0  0.7253710474261935  0.5641411445352275  0.9950776763025505  1.0000
