data_image0
_chemical_formula_structural       Cd4H40C58O20
_chemical_formula_sum              "Cd4 H40 C58 O20"
_cell_length_a       12.647694363910379
_cell_length_b       14.07123533482985
_cell_length_c       14.309274214492893
_cell_angle_alpha    117.24173045134351
_cell_angle_beta     113.82517339948227
_cell_angle_gamma    94.40265621435962

_space_group_name_H-M_alt    "P 1"
_space_group_IT_number       1

loop_
  _space_group_symop_operation_xyz
  'x, y, z'

loop_
  _atom_site_type_symbol
  _atom_site_label
  _atom_site_symmetry_multiplicity
  _atom_site_fract_x
  _atom_site_fract_y
  _atom_site_fract_z
  _atom_site_occupancy
  Cd  Cd1       1.0  0.9999984378494206  0.9999987541234178  0.49999578411988194  1.0000
  Cd  Cd2       1.0  1.676069679514531e-06  0.5000035136690145  0.5000070800621755  1.0000
  Cd  Cd3       1.0  0.9230740846901926  0.6732004001600276  0.34632322919527786  1.0000
  Cd  Cd4       1.0  0.0769281716103976  0.32679820051713904  0.653674280677542  1.0000
  H   H1        1.0  0.892970035005  0.081026755018442  0.9151288570111545  1.0000
  H   H2        1.0  0.5216421125211711  0.8340041841931338  0.9149263542147068  1.0000
  H   H3        1.0  0.10703309206238032  0.9189718490075833  0.08486827072967874  1.0000
  H   H4        1.0  0.4783589484383696  0.1659935472129987  0.08507382289766949  1.0000
  H   H5        1.0  0.9738888087461819  0.024331737847994403  0.7738146964402403  1.0000
  H   H6        1.0  0.29957442501600445  0.7491545602084672  0.7734568420615487  1.0000
  H   H7        1.0  0.026111400849416114  0.9756634881328098  0.22618054131067566  1.0000
  H   H8        1.0  0.7004266475208852  0.2508482133734447  0.22654912140303896  1.0000
  H   H9        1.0  0.7089514480401604  0.6935026165454373  0.5495088835251491  1.0000
  H   H10       1.0  0.34038113935235254  0.8553818229738325  0.5489565412250242  1.0000
  H   H11       1.0  0.29104330313114707  0.3064968253460094  0.4504890866229942  1.0000
  H   H12       1.0  0.659612767024676  0.14462266860819994  0.45104620979741833  1.0000
  H   H13       1.0  0.6308552305617854  0.7473289028819539  0.6925217158131715  1.0000
  H   H14       1.0  0.5613198168711762  0.9450226253523014  0.6922534443582434  1.0000
  H   H15       1.0  0.3691421422973562  0.2526730728598707  0.3074776542126542  1.0000
  H   H16       1.0  0.4386749458774872  0.05498185871492471  0.3077503121421117  1.0000
  H   H17       1.0  0.8172235672513537  0.7858951997820471  0.8825342517355138  1.0000
  H   H18       1.0  0.5647669004992154  0.09677368909329691  0.8825130488575393  1.0000
  H   H19       1.0  0.1827685694296903  0.21410171369085162  0.11746162472998375  1.0000
  H   H20       1.0  0.4352422565295768  0.9032324391723067  0.11749806224468545  1.0000
  H   H21       1.0  0.8860358341564378  0.7151087350410776  0.019875751797883458  1.0000
  H   H22       1.0  0.6333286899262235  0.3049272190888744  0.01990985019824625  1.0000
  H   H23       1.0  0.1139533828629382  0.2848822820146211  0.9801149945991126  1.0000
  H   H24       1.0  0.36667701783341045  0.6950764045684965  0.9800960803285644  1.0000
  H   H25       1.0  0.7583485951574361  0.9417455889147278  0.24023112034802807  1.0000
  H   H26       1.0  0.9812824293391245  0.2985529115914574  0.24007543354976227  1.0000
  H   H27       1.0  0.24165050765793694  0.0582513513490426  0.7597616990616131  1.0000
  H   H28       1.0  0.018720611357316855  0.7014456272525396  0.7599300198504864  1.0000
  H   H29       1.0  0.6858731573869363  0.0106207085519259  0.1025637130199541  1.0000
  H   H30       1.0  0.9159946594160006  0.09199225272971033  0.10249821716432454  1.0000
  H   H31       1.0  0.3141291320837424  0.9893829505965213  0.8974375017902286  1.0000
  H   H32       1.0  0.08401218892186081  0.9080071654319042  0.8975034226004222  1.0000
  H   H33       1.0  0.24041194315284292  0.0038435524951268016  0.5588045872085842  1.0000
  H   H34       1.0  0.8184260096997349  0.5550052162106809  0.5589714469995001  1.0000
  H   H35       1.0  0.7595837147731502  0.9961559199043537  0.44118953178281833  1.0000
  H   H36       1.0  0.18157393227431842  0.44499673698671677  0.44103093946008437  1.0000
  H   H37       1.0  0.16181646751735462  0.8744053467890823  0.4883170764191718  1.0000
  H   H38       1.0  0.8266250959459854  0.6139621798724022  0.4885056609383937  1.0000
  H   H39       1.0  0.8381808145910767  0.12559152702677784  0.5116841391088939  1.0000
  H   H40       1.0  0.17337170693800635  0.3860381237752649  0.5114906474481131  1.0000
  C   C1        1.0  0.6989042305730849  0.9492139777131214  0.8983236464207989  1.0000
  C   C2        1.0  0.3010919901304874  0.050787161348687014  0.10167422801487898  1.0000
  C   C3        1.0  0.7563248741902912  0.9182038581990993  0.815579197225034  1.0000
  C   C4        1.0  0.5587927777598268  0.8973305618951741  0.8154084970035241  1.0000
  C   C5        1.0  0.24367478639496912  0.0817972616671341  0.18442131151241625  1.0000
  C   C6        1.0  0.44120458790174416  0.10267140841482103  0.1845915668272582  1.0000
  C   C7        1.0  0.8533875038776985  0.9949123335081824  0.8368441196191652  1.0000
  C   C8        1.0  0.4830272358829006  0.8417829299032819  0.8366014990637821  1.0000
  C   C9        1.0  0.146611889713931  0.005087963890552801  0.16315312378625174  1.0000
  C   C10       1.0  0.51696952882331  0.15821482821323235  0.16339503826889504  1.0000
  C   C11       1.0  0.8993070843047165  0.9636980769302143  0.7571517192941569  1.0000
  C   C12       1.0  0.35749346550481687  0.7931051325575496  0.7567706278870856  1.0000
  C   C13       1.0  0.1006882324619696  0.0362980003114473  0.2428428323361301  1.0000
  C   C14       1.0  0.6425049831543462  0.20689258880200614  0.24323069562122865  1.0000
  C   C15       1.0  0.8490517032464738  0.8550293727070227  0.6536165903466723  1.0000
  C   C16       1.0  0.30431894843852103  0.7980515962810844  0.6531154095817017  1.0000
  C   C17       1.0  0.1509439093041607  0.14496754872947554  0.34637845139585  1.0000
  C   C18       1.0  0.6956760315486363  0.20194612254670125  0.3468860548446456  1.0000
  C   C19       1.0  0.7522267557255162  0.7773047007478553  0.6319822228164822  1.0000
  C   C20       1.0  0.37951537939362373  0.8541721774543592  0.631489233585249  1.0000
  C   C21       1.0  0.24776942680026792  0.22269389278280022  0.368015880565359  1.0000
  C   C22       1.0  0.6204825750180305  0.14583651255741614  0.36851898443211434  1.0000
  C   C23       1.0  0.7076346234860084  0.8083131524007141  0.7122560760879393  1.0000
  C   C24       1.0  0.5042664879463742  0.9037281974012715  0.7119559134763519  1.0000
  C   C25       1.0  0.2923653328832003  0.1916888116603559  0.28774492276173896  1.0000
  C   C26       1.0  0.4957297155442292  0.096277962108978  0.28805052253134267  1.0000
  C   C27       1.0  0.8957923287883957  0.8247260674508183  0.5663439844440814  1.0000
  C   C28       1.0  0.17033147337480867  0.7412529463771378  0.5659601977982829  1.0000
  C   C29       1.0  0.1042001086842888  0.17526917727677474  0.4336484482501176  1.0000
  C   C30       1.0  0.8296638045861755  0.2587481350174628  0.43404499681887637  1.0000
  C   C31       1.0  0.7444700404352389  0.9022673803700061  0.9808631266854987  1.0000
  C   C32       1.0  0.7357910035922544  0.07869261866315472  0.9808442214492811  1.0000
  C   C33       1.0  0.2555264428821857  0.09772954441535119  0.019131532925044298  1.0000
  C   C34       1.0  0.2642144825491002  0.9213127334897068  0.019157520994376422  1.0000
  C   C35       1.0  0.8017095496753939  0.8193307505295168  0.9594135120749882  1.0000
  C   C36       1.0  0.6571248853113971  0.14021202294213717  0.9594357770811468  1.0000
  C   C37       1.0  0.19827796179828994  0.18066028698764566  0.040574529561219194  1.0000
  C   C38       1.0  0.3428796846878086  0.8597907748988831  0.04056727024561014  1.0000
  C   C39       1.0  0.841378254997565  0.7795581836316148  0.03660086136832778  1.0000
  C   C40       1.0  0.6946732719431952  0.2571820300122738  0.03661997893375696  1.0000
  C   C41       1.0  0.15860867429569941  0.22043368929968926  0.9633887463170435  1.0000
  C   C42       1.0  0.305336162094612  0.742819894840551  0.9633865297334339  1.0000
  C   C43       1.0  0.8264819766589608  0.8235105707849967  0.13851439609339866  1.0000
  C   C44       1.0  0.8114876726233506  0.3151249842185067  0.1384141898590486  1.0000
  C   C45       1.0  0.17350876465550163  0.17648721820786056  0.8614778781136463  1.0000
  C   C46       1.0  0.18852026309188116  0.6848752217366111  0.8615951897404056  1.0000
  C   C47       1.0  0.7692905436668698  0.9065568533144058  0.1605818809239851  1.0000
  C   C48       1.0  0.8907019112988692  0.2541087558400009  0.1604548328330253  1.0000
  C   C49       1.0  0.2307077143542244  0.09344513663994998  0.8394157193599623  1.0000
  C   C50       1.0  0.10930662318182982  0.7458931439366268  0.8395548331859429  1.0000
  C   C51       1.0  0.7285872239699531  0.9448838306649352  0.0827140960698786  1.0000
  C   C52       1.0  0.8534961261553066  0.1379054338014996  0.08265215054488079  1.0000
  C   C53       1.0  0.2714121696216765  0.05511646673380001  0.9172831473355385  1.0000
  C   C54       1.0  0.14650902821421138  0.8620990469973576  0.9173525708112958  1.0000
  C   C55       1.0  0.8712190962785443  0.7826593436005213  0.22212458129030194  1.0000
  C   C56       1.0  0.8504518310120517  0.4396015751328194  0.222023165420424  1.0000
  C   C57       1.0  0.12877565990045528  0.21733758535078354  0.7778694549743008  1.0000
  C   C58       1.0  0.14955758143301523  0.5604003334245037  0.7779854246616151  1.0000
  O   O1        1.0  0.16499564107807177  0.946145472059577  0.4876842582437746  1.0000
  O   O2        1.0  0.8228124803000441  0.5415796514243851  0.4878733891818212  1.0000
  O   O3        1.0  0.8350005464554046  0.05385060853094361  0.5123099112545331  1.0000
  O   O4        1.0  0.17718973281507294  0.45841891666177054  0.5121282835207026  1.0000
  O   O5        1.0  0.8486652681317751  0.7212245121911709  0.47543549188281276  1.0000
  O   O6        1.0  0.12657968305788356  0.7539419876962155  0.4751122414159992  1.0000
  O   O7        1.0  0.1513280329101221  0.27877073045343786  0.5245572524843566  1.0000
  O   O8        1.0  0.8734115894260344  0.24606247754373814  0.524893737417237  1.0000
  O   O9        1.0  0.9770999600097882  0.8994964563542427  0.5850159979041576  1.0000
  O   O10       1.0  0.10763260937065415  0.6853378812369686  0.584735649513682  1.0000
  O   O11       1.0  0.022891926262673192  0.1005021638868016  0.4149784656979917  1.0000
  O   O12       1.0  0.892364977909189  0.3146623605775289  0.41526860240024627  1.0000
  O   O13       1.0  0.9099968725753129  0.6990722334201395  0.19354349462690115  1.0000
  O   O14       1.0  0.7831931670385901  0.4946889121216601  0.19350087792000178  1.0000
  O   O15       1.0  0.09000104428648113  0.30092636137639783  0.8064545382959237  1.0000
  O   O16       1.0  0.21681453266320716  0.505313011465276  0.8065057012061981  1.0000
  O   O17       1.0  0.8660653522956424  0.8316919949349926  0.3214597857490559  1.0000
  O   O18       1.0  0.9549208415212578  0.4898092163436091  0.32130581670755015  1.0000
  O   O19       1.0  0.1339300098464022  0.1683066332696512  0.6785338431301182  1.0000
  O   O20       1.0  0.045087745532377696  0.5101952398278372  0.6787022327553485  1.0000
