data_image0
_chemical_formula_structural       Zn2H52C68N12O8
_chemical_formula_sum              "Zn2 H52 C68 N12 O8"
_cell_length_a       9.582705929195244
_cell_length_b       11.346313864445367
_cell_length_c       14.334776311311126
_cell_angle_alpha    82.31641026441149
_cell_angle_beta     89.80016694762881
_cell_angle_gamma    75.69690532273538

_space_group_name_H-M_alt    "P 1"
_space_group_IT_number       1

loop_
  _space_group_symop_operation_xyz
  'x, y, z'

loop_
  _atom_site_type_symbol
  _atom_site_label
  _atom_site_symmetry_multiplicity
  _atom_site_fract_x
  _atom_site_fract_y
  _atom_site_fract_z
  _atom_site_occupancy
  Zn  Zn1       1.0  0.47038336524843777  0.11217860770534568  0.32167094395988727  1.0000
  Zn  Zn2       1.0  0.5296175787043182  0.8878217848693382  0.6783286256950658  1.0000
  H   H1        1.0  0.6311503191842435  0.39718180142967435  0.6498891646962617  1.0000
  H   H2        1.0  0.3688488060469838  0.6028176726001959  0.35011050917928077  1.0000
  H   H3        1.0  0.6000931849502465  0.27320409081183766  0.523443887380715  1.0000
  H   H4        1.0  0.3999082955699152  0.7267944653530305  0.4765558777473372  1.0000
  H   H5        1.0  0.6078805339047836  0.8413180768435211  0.4426469357035144  1.0000
  H   H6        1.0  0.39212041077373533  0.15868231729733395  0.5573533313867285  1.0000
  H   H7        1.0  0.72627647665999  0.16285058767833496  0.20291648342485044  1.0000
  H   H8        1.0  0.2737236920738511  0.8371488865214828  0.7970831872086703  1.0000
  H   H9        1.0  0.9727522535984717  0.1257605991714854  0.13626638932053228  1.0000
  H   H10       1.0  0.02724791513537651  0.8742388750283395  0.8637332813129887  1.0000
  H   H11       1.0  0.15823351356316107  0.9349930256053867  0.18837653024988293  1.0000
  H   H12       1.0  0.841767699399064  0.0650064503305643  0.8116238345769061  1.0000
  H   H13       1.0  0.10875196555628726  0.7736413736167478  0.3097595656964955  1.0000
  H   H14       1.0  0.8912492481317073  0.2263581038853886  0.6902414965655836  1.0000
  H   H15       1.0  0.8279790538755025  0.6788578212937324  0.503548776106477  1.0000
  H   H16       1.0  0.17202007135572467  0.3211416527361379  0.4964508977690655  1.0000
  H   H17       1.0  0.9987680271730213  0.6952420311582442  0.4659209695112664  1.0000
  H   H18       1.0  0.001232141560819945  0.30475744304158064  0.5340787011222545  1.0000
  H   H19       1.0  0.6729532750797844  0.6171032140009699  0.36090668078545457  1.0000
  H   H20       1.0  0.3270473998634956  0.3828980952124466  0.6390920936976696  1.0000
  H   H21       1.0  0.6986609390413534  0.44455468412162696  0.26685093050237896  1.0000
  H   H22       1.0  0.3013379186319298  0.5554457096793186  0.7331493430719005  1.0000
  H   H23       1.0  0.144629358770537  0.35840363910438816  0.29467161896983635  1.0000
  H   H24       1.0  0.8553697671864527  0.6415958364916534  0.7053287523409891  1.0000
  H   H25       1.0  0.1378813638413875  0.5275412733702253  0.38865474567823804  1.0000
  H   H26       1.0  0.8621174945576654  0.4724591219969056  0.6113462253313242  1.0000
  H   H27       1.0  0.3647907056891456  0.3202135086794157  0.14010634573383376  1.0000
  H   H28       1.0  0.6352078837004383  0.679787803326441  0.8598938301038925  1.0000
  H   H29       1.0  0.2371466818612831  0.0436430154647667  0.9204272538786424  1.0000
  H   H30       1.0  0.7628524448214833  0.956356461697453  0.07957381486747289  1.0000
  H   H31       1.0  0.29506801241847574  0.8185764953869635  0.9746219746277374  1.0000
  H   H32       1.0  0.7049308452548146  0.18142389841398907  0.025378298946542095  1.0000
  H   H33       1.0  0.41185033007963073  0.7304770710365956  0.128994402312955  1.0000
  H   H34       1.0  0.5881506145988881  0.2695233231042663  0.8710058647772881  1.0000
  H   H35       1.0  0.47394504743950705  0.8656569508159038  0.2398208389376037  1.0000
  H   H36       1.0  0.5260561655227178  0.1343425251200543  0.7601795258891852  1.0000
  H   H37       1.0  0.2837574285830727  0.2607347065487673  0.8986285289411595  1.0000
  H   H38       1.0  0.7162427401507756  0.7392647676510505  0.10137114169236126  1.0000
  H   H39       1.0  0.28411039903161145  0.37860234698602097  0.9683132454295414  1.0000
  H   H40       1.0  0.7158895021442931  0.6213980469848862  0.0316870249027232  1.0000
  H   H41       1.0  0.06281943497372576  0.3169265549971029  0.11806485413381299  1.0000
  H   H42       1.0  0.9371804662021789  0.6830738389738042  0.8819354161984518  1.0000
  H   H43       1.0  0.7989920836668747  0.3840664233690775  0.10929352292338018  1.0000
  H   H44       1.0  0.2010075492253307  0.6159348888067342  0.8907066496723245  1.0000
  H   H45       1.0  0.7869368028239452  0.4245295525401075  0.8174009490605769  1.0000
  H   H46       1.0  0.21306414185458072  0.5754708416007474  0.18259931802965917  1.0000
  H   H47       1.0  0.05487690523327164  0.35002667726978837  0.8137533556778819  1.0000
  H   H48       1.0  0.9451222199979554  0.6499727967600819  0.18624631819765367  1.0000
  H   H49       1.0  0.22427865743058836  0.8373662399452397  0.5470763366828706  1.0000
  H   H50       1.0  0.7757202002427023  0.16263415385571278  0.45292393689140903  1.0000
  H   H51       1.0  0.007757720706600022  0.17576407310831138  0.3778410302328722  1.0000
  H   H52       1.0  0.9922419129113679  0.8242372406336784  0.6221598397981223  1.0000
  C   C1        1.0  0.5747464375817088  0.4414063204353127  0.5834775488271688  1.0000
  C   C2        1.0  0.4252539987100691  0.5585922339934228  0.4165215221076152  1.0000
  C   C3        1.0  0.5575518806046135  0.3726533046817692  0.5127742958648724  1.0000
  C   C4        1.0  0.4424488246966405  0.6273443331082333  0.4872255702417404  1.0000
  C   C5        1.0  0.4825656362020609  0.4311718132025817  0.42847312099583224  1.0000
  C   C6        1.0  0.5174348000897169  0.5688267412261537  0.5715259499389518  1.0000
  C   C7        1.0  0.46267051845570967  0.35768026136799574  0.351771933527516  1.0000
  C   C8        1.0  0.5373296502781315  0.642319212831822  0.6482277371060048  1.0000
  C   C9        1.0  0.6838942861689007  0.873029946312016  0.39552132314198457  1.0000
  C   C10       1.0  0.3161058832907102  0.1269695294539872  0.6044790449268191  1.0000
  C   C11       1.0  0.7782722925349008  0.9852289954040714  0.2900713551736444  1.0000
  C   C12       1.0  0.22172683269632645  0.014770478625791799  0.709928318701891  1.0000
  C   C13       1.0  0.8863254542500415  0.8769939339178379  0.3204328341931982  1.0000
  C   C14       1.0  0.11367575798642089  0.1230055404519348  0.6795668331983007  1.0000
  C   C15       1.0  0.8077642373126962  0.07759701439594831  0.22403560477333426  1.0000
  C   C16       1.0  0.1922359314211449  0.9224024598038765  0.7759640658601865  1.0000
  C   C17       1.0  0.9455781860117868  0.056365613028830794  0.188228704623171  1.0000
  C   C18       1.0  0.05442225100576796  0.9436329429660829  0.8117710637468959  1.0000
  C   C19       1.0  0.05177789229437489  0.9475305860213934  0.21789724569431707  1.0000
  C   C20       1.0  0.9482222764394662  0.05246888817843139  0.7821024249392037  1.0000
  C   C21       1.0  0.024854037453174403  0.856007522946889  0.28525076646958775  1.0000
  C   C22       1.0  0.9751458644484927  0.1439928725901964  0.714750201297953  1.0000
  C   C23       1.0  0.8921577369519582  0.6907961560611043  0.4410480130422342  1.0000
  C   C24       1.0  0.10784111999556258  0.3092042361736701  0.5589515630967552  1.0000
  C   C25       1.0  0.9040115194905595  0.5868023078882698  0.38325543521502675  1.0000
  C   C26       1.0  0.09598838168534485  0.4131980860826374  0.6167448351172309  1.0000
  C   C27       1.0  0.7799170577675626  0.5626546661953142  0.3471727133230046  1.0000
  C   C28       1.0  0.22008284340834192  0.4373457277755932  0.652827557009253  1.0000
  C   C29       1.0  0.7944995323267463  0.4657570927627219  0.294569595812618  1.0000
  C   C30       1.0  0.20550063640709487  0.5342423814370959  0.7054300748209028  1.0000
  C   C31       1.0  0.04089043592834684  0.4172778763198224  0.3100210353702835  1.0000
  C   C32       1.0  0.9591097328054943  0.5827215978799956  0.6899786352632375  1.0000
  C   C33       1.0  0.03714600596821075  0.5124984533926804  0.3634982911628625  1.0000
  C   C34       1.0  0.9628538952076936  0.4875019405782268  0.6365019791693953  1.0000
  C   C35       1.0  0.36568363313715213  0.228589089922643  0.12463133960616089  1.0000
  C   C36       1.0  0.6343165363224588  0.7714103858433532  0.8753690284626428  1.0000
  C   C37       1.0  0.3284538915098949  0.07907015376996901  0.0500073860372225  1.0000
  C   C38       1.0  0.6715460103917791  0.9209302417671096  0.9499935817303251  1.0000
  C   C39       1.0  0.29069818490871313  0.005648265569732299  0.9885961462810753  1.0000
  C   C40       1.0  0.7093030280535191  0.9943512103662188  0.011404218545713692  1.0000
  C   C41       1.0  0.3237150091296712  0.8798668330522901  0.019364701378805197  1.0000
  C   C42       1.0  0.6762851610557022  0.1201326442798845  0.9806363641252884  1.0000
  C   C43       1.0  0.3913354454958481  0.8293980303408262  0.1080091356539157  1.0000
  C   C44       1.0  0.6086652301732015  0.1706032804387618  0.8919903362644914  1.0000
  C   C45       1.0  0.42774981355761826  0.9030705424017781  0.16956321026069077  1.0000
  C   C46       1.0  0.5722514001303692  0.09692893510035104  0.8304378520013811  1.0000
  C   C47       1.0  0.3951511994523856  0.029733467501778  0.13938073520350255  1.0000
  C   C48       1.0  0.6048494769424266  0.9702678448439881  0.8606194341501945  1.0000
  C   C49       1.0  0.2453827100338728  0.2957575185857308  0.9643965054884447  1.0000
  C   C50       1.0  0.7546164159231239  0.7042419570103106  0.035603865822381  1.0000
  C   C51       1.0  0.08254575711978876  0.32845721881954393  0.9654090008658895  1.0000
  C   C52       1.0  0.9174541433303461  0.6715431735851851  0.0345905720310782  1.0000
  C   C53       1.0  0.007933659769797461  0.3377504046856855  0.0491321686990887  1.0000
  C   C54       1.0  0.9920651979034929  0.662249989115267  0.9508681048751837  1.0000
  C   C55       1.0  0.8579803806877493  0.3765216594421047  0.04409302186672191  1.0000
  C   C56       1.0  0.1420195197623855  0.6234787329626243  0.9559065510302528  1.0000
  C   C57       1.0  0.8519714000146196  0.3973842762228158  0.8828817283082342  1.0000
  C   C58       1.0  0.14802954466389914  0.6026161179180461  0.1171185387820088  1.0000
  C   C59       1.0  0.0017873657827394052  0.35726267539432405  0.880890681505768  1.0000
  C   C60       1.0  0.9982117601742573  0.6427368002017175  0.11910968980505737  1.0000
  C   C61       1.0  0.2690802047022133  0.0133499850027903  0.4124182565529039  1.0000
  C   C62       1.0  0.7309194281899851  0.9866513271730211  0.5875819160428009  1.0000
  C   C63       1.0  0.12994915426548911  0.0070289118992051  0.45763762573140093  1.0000
  C   C64       1.0  0.8700504793524788  0.9929724018427847  0.5423632442995936  1.0000
  C   C65       1.0  0.12513676305002977  0.9071767031004896  0.5256757506314216  1.0000
  C   C66       1.0  0.8748618256137844  0.09282460733918899  0.47432372777102216  1.0000
  C   C67       1.0  0.004198934175399007  0.09978398465135999  0.4322531391502692  1.0000
  C   C68       1.0  0.9957999234978915  0.9002164091495927  0.5677471344240103  1.0000
  N   N1        1.0  0.6532321575004474  0.9786355522539977  0.338091268758049  1.0000
  N   N2        1.0  0.34676801123339374  0.021363921945820197  0.661908401875472  1.0000
  N   N3        1.0  0.8224752120632459  0.8090731847647347  0.38789076411376294  1.0000
  N   N4        1.0  0.1775246891126585  0.19092720920617273  0.612109506218502  1.0000
  N   N5        1.0  0.9222625575714432  0.39324169607678533  0.2757472711328433  1.0000
  N   N6        1.0  0.0777365683855536  0.6067577795192561  0.7242531001779823  1.0000
  N   N7        1.0  0.41562695353289303  0.1262204514724843  0.1839997026608771  1.0000
  N   N8        1.0  0.5843739911456254  0.8737799426683703  0.8160005644293662  1.0000
  N   N9        1.0  0.3129165755223582  0.20512634839063534  0.04294385700523409  1.0000
  N   N10       1.0  0.6870833256535464  0.7948740455802721  0.9570564133270307  1.0000
  N   N11       1.0  0.7793613516307544  0.4076826646366953  0.9630428039266973  1.0000
  N   N12       1.0  0.22063750604253585  0.5923177291642573  0.03695746964758228  1.0000
  O   O1        1.0  0.5389011778661866  0.2448934075819551  0.3649711591555089  1.0000
  O   O2        1.0  0.4611000343702756  0.7551060667878174  0.6350285082359973  1.0000
  O   O3        1.0  0.37784810464402335  0.4059205006442  0.28308607036494476  1.0000
  O   O4        1.0  0.6221528400344951  0.5940798934966551  0.7169141967252981  1.0000
  O   O5        1.0  0.362656745842422  0.9171858767314234  0.4024485582831615  1.0000
  O   O6        1.0  0.6373431553334825  0.0828145172394841  0.5975517120491032  1.0000
  O   O7        1.0  0.2854255723169956  0.12336637733460516  0.38551340588119837  1.0000
  O   O8        1.0  0.7145751033520542  0.8766349334449898  0.6144860660372087  1.0000
