data_image0
_chemical_formula_structural       Cd8H16C20S4N24O20
_chemical_formula_sum              "Cd8 H16 C20 S4 N24 O20"
_cell_length_a       10.571037119535653
_cell_length_b       11.424553458464182
_cell_length_c       11.459653954023452
_cell_angle_alpha    72.19097916434771
_cell_angle_beta     62.53407212643483
_cell_angle_gamma    62.44219058107608

_space_group_name_H-M_alt    "P 1"
_space_group_IT_number       1

loop_
  _space_group_symop_operation_xyz
  'x, y, z'

loop_
  _atom_site_type_symbol
  _atom_site_label
  _atom_site_symmetry_multiplicity
  _atom_site_fract_x
  _atom_site_fract_y
  _atom_site_fract_z
  _atom_site_occupancy
  Cd  Cd1       1.0  0.7215006136513079  0.7499772914313925  0.7499707683278128  1.0000
  Cd  Cd2       1.0  0.2784991284729869  0.2500224017057562  0.2500295471196239  1.0000
  Cd  Cd3       1.0  0.1045980249321587  0.7656456866014735  0.5071138823863705  1.0000
  Cd  Cd4       1.0  0.8773226897460158  0.7343753394633907  0.9928915101396569  1.0000
  Cd  Cd5       1.0  0.8954015441643718  0.23435499719169434  0.49288498740597914  1.0000
  Cd  Cd6       1.0  0.12267809992518151  0.2656253467726515  0.007108270026442686  1.0000
  Cd  Cd7       1.0  0.5000012214345728  0.9999993961617906  0.9999993667302575  1.0000
  Cd  Cd8       1.0  2.6705547628314666e-07  0.5000004475122709  0.499999711414155  1.0000
  H   H1        1.0  0.6023431264248982  0.7294633432686553  0.020808156460276464  1.0000
  H   H2        1.0  0.8526282410789532  0.7705210860853812  0.47915955191639614  1.0000
  H   H3        1.0  0.39765783627405665  0.2705363523113745  0.9791930693609104  1.0000
  H   H4        1.0  0.1473719383049071  0.2294795989292241  0.5208397730628319  1.0000
  H   H5        1.0  0.2501884619078109  0.5695091335560677  0.8401911808023925  1.0000
  H   H6        1.0  0.1599733667252037  0.930399443243168  0.6599565399991717  1.0000
  H   H7        1.0  0.7498115447853094  0.4304905560228179  0.15980780800968117  1.0000
  H   H8        1.0  0.8400272502552538  0.06960024755715472  0.34004290399977327  1.0000
  H   H9        1.0  0.26758623761973865  0.8046275668938064  0.11817419854587297  1.0000
  H   H10       1.0  0.690405046940242  0.6953169626614084  0.3818947575583493  1.0000
  H   H11       1.0  0.7324128942172264  0.19537212502190474  0.8818256617146929  1.0000
  H   H12       1.0  0.30959469518405297  0.3046827304757472  0.6181055578890948  1.0000
  H   H13       1.0  0.014472852528712077  0.813306220490432  0.14210857123501336  1.0000
  H   H14       1.0  0.4698828295937074  0.6868049371095638  0.3579298355521416  1.0000
  H   H15       1.0  0.985526279308253  0.18669347142527934  0.8578912890255526  1.0000
  H   H16       1.0  0.5301164749339901  0.31319575024186724  0.6420703608755787  1.0000
  C   C1        1.0  0.5378008848167041  0.545252196447109  0.792552710440127  1.0000
  C   C2        1.0  0.3756693824301034  0.954656678596358  0.7075589425985384  1.0000
  C   C3        1.0  0.462198857307591  0.45474749669004666  0.2074476050073102  1.0000
  C   C4        1.0  0.6243305323849312  0.04534400997651031  0.2924417090160531  1.0000
  C   C5        1.0  0.39230718116350954  0.6188656774326661  0.8912479250799307  1.0000
  C   C6        1.0  0.40251076978012856  0.8809915126572893  0.6089099284170133  1.0000
  C   C7        1.0  0.6076934358169478  0.3811340133676638  0.10875151891901413  1.0000
  C   C8        1.0  0.5974885347475763  0.11900917469414202  0.3910902680107071  1.0000
  C   C9        1.0  0.2525941507145644  0.6227108387327648  0.9028921189532113  1.0000
  C   C10       1.0  0.27825703474048413  0.8771482318681764  0.5973024939850902  1.0000
  C   C11       1.0  0.7474062935751532  0.3772878566318383  0.09710698887857926  1.0000
  C   C12       1.0  0.7217431449804081  0.1228504670546897  0.4026979404820707  1.0000
  C   C13       1.0  0.2633660575781746  0.752384364872789  0.05575974981313441  1.0000
  C   C14       1.0  0.5715565526737616  0.747539354934233  0.44437334680636537  1.0000
  C   C15       1.0  0.7366341218056859  0.24761632014181606  0.944239575166087  1.0000
  C   C16       1.0  0.4284418769977803  0.2524613347540239  0.5556277210698468  1.0000
  C   C17       1.0  0.12298107547604066  0.7568909171066808  0.06926766270098732  1.0000
  C   C18       1.0  0.4491594055553421  0.7430852325462141  0.4308377633271051  1.0000
  C   C19       1.0  0.8770189312170867  0.24310877247220475  0.9307313261110794  1.0000
  C   C20       1.0  0.5508392886850328  0.25691545358377976  0.569161977913744  1.0000
  S   S1        1.0  0.8519454018430607  0.9906726686607568  0.7485531279808696  1.0000
  S   S2        1.0  0.09111694453692114  0.5092856158165092  0.7514315892272379  1.0000
  S   S3        1.0  0.14805495023153972  0.0093290117895748  0.251446533165506  1.0000
  S   S4        1.0  0.9088838451342766  0.4907150704195331  0.24856819093886168  1.0000
  N   N1        1.0  0.6659043733689598  0.572507277784105  0.7416748062614572  1.0000
  N   N2        1.0  0.480131418546698  0.9274783150952713  0.7584205226034584  1.0000
  N   N3        1.0  0.33409493115874495  0.42749340956732607  0.25832539016626305  1.0000
  N   N4        1.0  0.5198698087210899  0.07252137692649542  0.241579376582358  1.0000
  N   N5        1.0  0.7697491826998827  0.485318783761265  0.6546252965646104  1.0000
  N   N6        1.0  0.4097084231064368  0.014723548160802102  0.845416832653534  1.0000
  N   N7        1.0  0.23025073211515226  0.5146819048116029  0.3453753550499812  1.0000
  N   N8        1.0  0.5902913190178581  0.9852761449763464  0.15458348279390308  1.0000
  N   N9        1.0  0.2913835829779571  0.5920335394858115  0.3467561179541078  1.0000
  N   N10       1.0  0.7301526892115218  0.9079615323158023  0.15322752026174408  1.0000
  N   N11       1.0  0.7086167694336748  0.40796615487278126  0.6532446526802004  1.0000
  N   N12       1.0  0.2698481004596759  0.092039153920247  0.8467722599043483  1.0000
  N   N13       1.0  0.3025442976546204  0.807519483018474  0.5085174937876076  1.0000
  N   N14       1.0  0.11846426913488957  0.6924378150726298  0.9916230018042003  1.0000
  N   N15       1.0  0.6974554444696748  0.19248021011867422  0.49148282165983637  1.0000
  N   N16       1.0  0.8815363478455679  0.3075618757277  0.008376442194737713  1.0000
  N   N17       1.0  0.5622504864092192  0.4432993221006143  0.7387002735018342  1.0000
  N   N18       1.0  0.2443011245906916  0.05662538647908381  0.7613509174379233  1.0000
  N   N19       1.0  0.43775030359900285  0.556699378043696  0.26130061615219796  1.0000
  N   N20       1.0  0.7556987902243435  0.9433753020937913  0.23864973417666843  1.0000
  N   N21       1.0  0.39815216365928296  0.6846223764967548  0.966924253404045  1.0000
  N   N22       1.0  0.5497825671255826  0.8152756145013809  0.5331981291403239  1.0000
  N   N23       1.0  0.6018474054372476  0.31537830729641314  0.03307461638830477  1.0000
  N   N24       1.0  0.45021717499871977  0.1847240786357673  0.46680218630711323  1.0000
  O   O1        1.0  0.8701967306120789  0.8980606145357015  0.6676950205141453  1.0000
  O   O2        1.0  0.9359364271897587  0.6019202498875132  0.832298224446731  1.0000
  O   O3        1.0  0.12980362179955302  0.10193907982289123  0.3323057501201632  1.0000
  O   O4        1.0  0.06406331493453613  0.39807944324964234  0.1677020910007059  1.0000
  O   O5        1.0  0.6566647581540722  0.7871468114653836  0.9594059061889484  1.0000
  O   O6        1.0  0.9032641926186569  0.7128426813450375  0.5405391716837472  1.0000
  O   O7        1.0  0.34333542122978855  0.21285387354922147  0.0405934187902801  1.0000
  O   O8        1.0  0.09673598676520356  0.2871580036695747  0.4594601532954742  1.0000
  O   O9        1.0  0.18435747639153272  0.5868333865745257  0.651290587306505  1.0000
  O   O10       1.0  0.9226549939221935  0.9131060143186647  0.8486508442260073  1.0000
  O   O11       1.0  0.8156427029923278  0.41316729844008643  0.34870873767271604  1.0000
  O   O12       1.0  0.07734299815275841  0.0868956695838747  0.151350104630481  1.0000
  O   O13       1.0  0.06234842151416562  0.9212803996757019  0.3388352907794924  1.0000
  O   O14       1.0  0.8224376824185242  0.5787814687336024  0.1612490651342356  1.0000
  O   O15       1.0  0.9376517578696946  0.07872028533891043  0.6611640341997287  1.0000
  O   O16       1.0  0.17756162210918075  0.4212192186178287  0.8387511312934776  1.0000
  O   O17       1.0  0.6857842827522233  0.0719260306041605  0.8115500915185478  1.0000
  O   O18       1.0  0.06912526669586318  0.4280413463354621  0.6884801964213524  1.0000
  O   O19       1.0  0.31421502177548155  0.9280746567472705  0.18845010490917236  1.0000
  O   O20       1.0  0.9308749126880044  0.5719593386791431  0.31151912855786873  1.0000
