data_image0
_chemical_formula_structural       Zn3Mo3H24C12N6O12F12
_chemical_formula_sum              "Zn3 Mo3 H24 C12 N6 O12 F12"
_cell_length_a       7.203596518708662
_cell_length_b       7.203592019776944
_cell_length_c       16.43527326401328
_cell_angle_alpha    90.00005048329508
_cell_angle_beta     90.00009339377192
_cell_angle_gamma    120.00017572398004

_space_group_name_H-M_alt    "P 1"
_space_group_IT_number       1

loop_
  _space_group_symop_operation_xyz
  'x, y, z'

loop_
  _atom_site_type_symbol
  _atom_site_label
  _atom_site_symmetry_multiplicity
  _atom_site_fract_x
  _atom_site_fract_y
  _atom_site_fract_z
  _atom_site_occupancy
  Zn  Zn1       1.0  0.9999990229664776  0.7768222939031517  0.1666706912057307  1.0000
  Zn  Zn2       1.0  0.22317842183623784  0.2231750246739281  0.5000039787048607  1.0000
  Zn  Zn3       1.0  0.7768228128597131  1.2939716710482748e-06  0.8333371980391533  1.0000
  Mo  Mo1       1.0  0.5455091989788841  0.545504617305248  9.093263031e-07  1.0000
  Mo  Mo2       1.0  0.454492496125134  0.9999986394505453  0.3333352459207077  1.0000
  Mo  Mo3       1.0  0.9999879125412362  0.4544850124218127  0.6666647492649601  1.0000
  H   H1        1.0  0.9109835084561908  0.058676397815084116  0.0443166070424894  1.0000
  H   H2        1.0  0.9413192918482808  0.8523060825735129  0.3776498358262046  1.0000
  H   H3        1.0  0.14769032162260493  0.08901561685939188  0.7109842936268008  1.0000
  H   H4        1.0  0.05869291239957868  0.9109982555046655  0.955681295402556  1.0000
  H   H5        1.0  0.8523127880819178  0.9413085434600815  0.6223466957324888  1.0000
  H   H6        1.0  0.0889981236652559  0.14769159398524317  0.28901381298456386  1.0000
  H   H7        1.0  0.9182255038906817  0.41030086775372593  0.0442698272379616  1.0000
  H   H8        1.0  0.5896961036792661  0.5079248736714987  0.3776046181766048  1.0000
  H   H9        1.0  0.4920770667202846  0.0817779082667442  0.7109381735143288  1.0000
  H   H10       1.0  0.410288841838714  0.9182294923206912  0.9557276646828682  1.0000
  H   H11       1.0  0.5079441561231376  0.5897088630354829  0.6223951801892795  1.0000
  H   H12       1.0  0.08177002515441965  0.49206083943222007  0.2890601190542128  1.0000
  H   H13       1.0  0.37590118059078753  0.8485389417381695  0.10429853422392907  1.0000
  H   H14       1.0  0.15146803010441812  0.5273643023344262  0.437629022240742  1.0000
  H   H15       1.0  0.47263484703510983  0.6240973003923926  0.7709646540524346  1.0000
  H   H16       1.0  0.848540136376812  0.3759039196819175  0.8957104607932536  1.0000
  H   H17       1.0  0.5273636083273558  0.15146063858661302  0.5623778464973482  1.0000
  H   H18       1.0  0.6240949112790517  0.4726339491906798  0.22904183673468737  1.0000
  H   H19       1.0  0.37009223359542903  0.06877630623907291  0.0936627199118121  1.0000
  H   H20       1.0  0.9312296347087071  0.30131872936766485  0.4269929878940175  1.0000
  H   H21       1.0  0.6986818656966846  0.6299071777774401  0.7603302916873744  1.0000
  H   H22       1.0  0.06877382916364644  0.3700941797224715  0.906344624921033  1.0000
  H   H23       1.0  0.3013191956218221  0.9312252369959139  0.5730123609090256  1.0000
  H   H24       1.0  0.6299037652424176  0.6986768350874257  0.2396757185335687  1.0000
  C   C1        1.0  0.9528901886214813  0.15622304307893134  0.09913775558087679  1.0000
  C   C2        1.0  0.8437740198091106  0.7966666465611139  0.4324696878957183  1.0000
  C   C3        1.0  0.20333161997390195  0.047109417655093494  0.7658066369865183  1.0000
  C   C4        1.0  0.15623208235129493  0.9528895036700575  0.9008815194355648  1.0000
  C   C5        1.0  0.7966622533511584  0.8437681383886828  0.5675456210404947  1.0000
  C   C6        1.0  0.04710817036120571  0.20334112920371442  0.23421338131592506  1.0000
  C   C7        1.0  0.9543870072026762  0.3504985794253557  0.09916578230062359  1.0000
  C   C8        1.0  0.6494993559525284  0.6038890565813942  0.4324987865090932  1.0000
  C   C9        1.0  0.3961108537181702  0.04561285970908102  0.7658353027436959  1.0000
  C   C10       1.0  0.3504785621412198  0.9543845973535171  0.9008511668950375  1.0000
  C   C11       1.0  0.6039047643781574  0.6495150173102999  0.5675163089568755  1.0000
  C   C12       1.0  0.045611436788867366  0.39609301684099296  0.23418238726703317  1.0000
  N   N1        1.0  4.039191111359656e-06  0.4704247292326683  0.1666794006063341  1.0000
  N   N2        1.0  0.5295771759304486  0.5295803181596738  0.5000126659668992  1.0000
  N   N3        1.0  0.47042043955107726  0.9999961935364822  0.8333488423914658  1.0000
  N   N4        1.0  0.9999968760264724  0.08257151392257352  0.16667724975659579  1.0000
  N   N5        1.0  0.9174293825549  0.9174262745078322  0.5000092292038617  1.0000
  N   N6        1.0  0.08257180947460802  2.3744835427655441e-07  0.8333466846489088  1.0000
  O   O1        1.0  0.4771839158054902  0.3180047893053838  0.0558684850914304  1.0000
  O   O2        1.0  0.6820030479695519  0.15918671688861974  0.38919854976126084  1.0000
  O   O3        1.0  0.8408227682081205  0.5228151666727642  0.7225366088976131  1.0000
  O   O4        1.0  0.3180081328614436  0.4771886250580338  0.944134797143029  1.0000
  O   O5        1.0  0.15918405067279184  0.6819937518580445  0.6108035409456818  1.0000
  O   O6        1.0  0.5228083258738466  0.840819132779636  0.2774663784166336  1.0000
  O   O7        1.0  0.2821497486777317  0.9112641931923661  0.1012398475019651  1.0000
  O   O8        1.0  0.08874192195241908  0.3708880675104141  0.4345709126477999  1.0000
  O   O9        1.0  0.6291165228675273  0.7178524247462976  0.7679066713697295  1.0000
  O   O10       1.0  0.9112629096438314  0.2821548055090021  0.8987679135071645  1.0000
  O   O11       1.0  0.37089246123773023  0.0887379239357386  0.5654358351900514  1.0000
  O   O12       1.0  0.7178447021276355  0.6291071898267402  0.2320999574338529  1.0000
  F   F1        1.0  0.48845716632545344  0.6940035303755182  0.08619905850974868  1.0000
  F   F2        1.0  0.306008953179564  0.7944612054411381  0.41953207695310374  1.0000
  F   F3        1.0  0.20555288058344717  0.5115427671254907  0.7528687012338224  1.0000
  F   F4        1.0  0.6940028143136845  0.48845958018364405  0.9138080880102919  1.0000
  F   F5        1.0  0.7944646214085795  0.3060058472266648  0.5804762412397224  1.0000
  F   F6        1.0  0.5115313333423829  0.20554438291720342  0.24713697170974308  1.0000
  F   F7        1.0  0.8491872910126689  0.6967230765100111  0.05274066326555981  1.0000
  F   F8        1.0  0.3032816160844193  0.1524664197704269  0.3860734268047353  1.0000
  F   F9        1.0  0.8475308632577807  0.15081042618608362  0.7194066856495879  1.0000
  F   F10       1.0  0.6967208818880835  0.8491947894634179  0.9472697259555787  1.0000
  F   F11       1.0  0.1524691722141115  0.3032775781148729  0.6139357526811722  1.0000
  F   F12       1.0  0.15080055271715764  0.8475224400774053  0.2806046184447126  1.0000
