data_image0
_chemical_formula_structural       In4H28C32O24
_chemical_formula_sum              "In4 H28 C32 O24"
_cell_length_a       7.0930859640123
_cell_length_b       7.089438276499078
_cell_length_c       21.121845260296304
_cell_angle_alpha    94.94119636391936
_cell_angle_beta     94.92606325800502
_cell_angle_gamma    119.1855929915966

_space_group_name_H-M_alt    "P 1"
_space_group_IT_number       1

loop_
  _space_group_symop_operation_xyz
  'x, y, z'

loop_
  _atom_site_type_symbol
  _atom_site_label
  _atom_site_symmetry_multiplicity
  _atom_site_fract_x
  _atom_site_fract_y
  _atom_site_fract_z
  _atom_site_occupancy
  In  In1       1.0  0.4032499065586778  0.3746769806832049  0.5158308977608499  1.0000
  In  In2       1.0  0.85874626574703  0.8876648497454979  0.484204989542782  1.0000
  In  In3       1.0  0.13743224586422542  0.6080926270138318  0.9842117274470752  1.0000
  In  In4       1.0  0.6242554478033785  0.1530035456791126  0.015815790134823305  1.0000
  H   H1        1.0  0.010662449490830275  0.27877068997813836  0.5538937838875384  1.0000
  H   H2        1.0  0.7245036088966048  0.4567859531339095  0.44615246777225787  1.0000
  H   H3        1.0  0.7070260483477497  0.47428851710038333  0.9460913637314547  1.0000
  H   H4        1.0  0.5281391884538565  0.7602187256794934  0.053905718148818914  1.0000
  H   H5        1.0  0.3395605291491108  0.6519337125501748  0.4326140286307947  1.0000
  H   H6        1.0  0.21894317461659094  0.9069916058276276  0.5673563092997256  1.0000
  H   H7        1.0  0.1566576439139099  0.9685012208401318  0.0674488946730989  1.0000
  H   H8        1.0  0.9010761269035472  0.0889312707835686  0.9325482812264242  1.0000
  H   H9        1.0  0.09535160357152965  0.4430850689568615  0.4362575417475226  1.0000
  H   H10       1.0  0.006380121549995013  0.6590760134957135  0.5637295088721429  1.0000
  H   H11       1.0  0.9087831768583289  0.7561105943419123  0.06376514052555393  1.0000
  H   H12       1.0  0.6922720458082239  0.8446588099832933  0.9361719973722984  1.0000
  H   H13       1.0  0.7332556905100277  0.0440673108162457  0.2719828803360543  1.0000
  H   H14       1.0  0.7715999658763552  0.4616233595980502  0.7280833683759482  1.0000
  H   H15       1.0  0.7110288236748304  0.5222442167385779  0.22824339274578162  1.0000
  H   H16       1.0  0.29351082173519677  0.4822541809030342  0.7716185007332257  1.0000
  H   H17       1.0  0.48149846842521543  0.9308590976907636  0.1692246429695246  1.0000
  H   H18       1.0  0.7609672308045106  0.3124341602765526  0.8308117171938392  1.0000
  H   H19       1.0  0.5616425267887735  0.5121232444434937  0.3309185196148619  1.0000
  H   H20       1.0  0.1801005751010152  0.2297813946916419  0.6689967455956776  1.0000
  H   H21       1.0  0.091453280874788  0.8284854326170503  0.1711317386078619  1.0000
  H   H22       1.0  0.6568475296906088  0.9202994212655823  0.8289345500204774  1.0000
  H   H23       1.0  0.16957594570519066  0.4076426092699919  0.32888714946982844  1.0000
  H   H24       1.0  0.0779468201991165  0.8395535477791966  0.6711041336765007  1.0000
  H   H25       1.0  0.9620648125572018  0.8520390545717544  0.2759849047148677  1.0000
  H   H26       1.0  0.5758508177955265  0.6859984957117431  0.7240622974340454  1.0000
  H   H27       1.0  0.9356439952298317  0.32590269058241  0.2239487460197864  1.0000
  H   H28       1.0  0.10182331868652034  0.7109896014874337  0.7760799524234371  1.0000
  C   C1        1.0  0.27236403613738264  0.9592577837924309  0.33208263165101926  1.0000
  C   C2        1.0  0.6271216999629773  0.9404525665607435  0.6679954207630843  1.0000
  C   C3        1.0  0.190085233288336  0.37677203078390414  0.1679416719813531  1.0000
  C   C4        1.0  0.20898094534315706  0.021688992588700298  0.8320100030819831  1.0000
  C   C5        1.0  0.49181346385902464  0.0163201951637149  0.3313169421863833  1.0000
  C   C6        1.0  0.6848864190364523  0.16077256577824528  0.6687653646012564  1.0000
  C   C7        1.0  0.41035825748638644  0.43477687400270065  0.1687981723567091  1.0000
  C   C8        1.0  0.2661017458061395  0.2412464161488899  0.8311158469325193  1.0000
  C   C9        1.0  0.5643277848919795  0.004236742948123202  0.2723895308879278  1.0000
  C   C10       1.0  0.7315295803914452  0.2922748690867535  0.7276681392969735  1.0000
  C   C11       1.0  0.5416720441310616  0.48193567668124615  0.22775593366431218  1.0000
  C   C12       1.0  0.2537609293366927  0.31335859111186437  0.7721408588966342  1.0000
  C   C13       1.0  0.42209633665563484  0.9382145863071046  0.2147856060382338  1.0000
  C   C14       1.0  0.7230093168207788  0.20751173874890583  0.7852590357351233  1.0000
  C   C15       1.0  0.4568109296626304  0.4737060378829341  0.2853184345751671  1.0000
  C   C16       1.0  0.18760918557759257  0.17069388202546068  0.7146089372197153  1.0000
  C   C17       1.0  0.20412543393788238  0.8813522642092335  0.215760789173487  1.0000
  C   C18       1.0  0.6652430597411725  0.9884477920726339  0.7842939666200976  1.0000
  C   C19       1.0  0.23780836522801252  0.41575835415587636  0.2842736147669457  1.0000
  C   C20       1.0  0.13082742193832086  0.9526204647941725  0.715700470136639  1.0000
  C   C21       1.0  0.13018639713553173  0.8918849633936858  0.2741043594614895  1.0000
  C   C22       1.0  0.617598723926051  0.856117757381028  0.725959812552837  1.0000
  C   C23       1.0  0.10566958128035255  0.3676205188845358  0.22588329507067334  1.0000
  C   C24       1.0  0.14151210032503056  0.879088216912862  0.774104801033893  1.0000
  C   C25       1.0  0.19283314993470677  0.982677514051069  0.39338778287491033  1.0000
  C   C26       1.0  0.5892850152552  0.7996360554494614  0.6066890560735558  1.0000
  C   C27       1.0  0.049448050858529796  0.33863586320413214  0.1065851297842215  1.0000
  C   C28       1.0  0.2325037581980994  0.9425064378757142  0.8933873503078472  1.0000
  C   C29       1.0  0.6500712974989398  0.07342487115032982  0.3916021970774111  1.0000
  C   C30       1.0  0.6815448788194017  0.2586553687603157  0.6084450807681847  1.0000
  C   C31       1.0  0.5083939262386465  0.431375306487375  0.1085306427259098  1.0000
  C   C32       1.0  0.3233199318453259  0.3998366943015553  0.8913838475162663  1.0000
  O   O1        1.0  0.33395271523941256  0.10105271855627508  0.44200785219197053  1.0000
  O   O2        1.0  0.6594878629984322  0.8923087988445174  0.5581270249520854  1.0000
  O   O3        1.0  0.1421904860862711  0.4082810945606353  0.05798771819392099  1.0000
  O   O4        1.0  0.3512693430905571  0.08394739582880817  0.9419072528275478  1.0000
  O   O5        1.0  0.9864279710016179  0.882764760216766  0.39409776670444785  1.0000
  O   O6        1.0  0.4882326857286544  0.5923834878055416  0.6059441187294254  1.0000
  O   O7        1.0  0.8423137521539773  0.23802309273838057  0.10583193695339328  1.0000
  O   O8        1.0  0.13223653389747628  0.7360115172249522  0.8941884215400364  1.0000
  O   O9        1.0  0.6105836518437617  0.909279863409502  0.4214275550482968  1.0000
  O   O10       1.0  0.4875680339985991  0.18920920455707346  0.5786692056730729  1.0000
  O   O11       1.0  0.4392092129796836  0.2372985619468722  0.0787863596987748  1.0000
  O   O12       1.0  0.15927366752988092  0.3603791248083539  0.921231840794526  1.0000
  O   O13       1.0  0.8118528530221029  0.26330033354643223  0.4063360064745751  1.0000
  O   O14       1.0  0.8565096229221467  0.4056863288745022  0.5936292343951592  1.0000
  O   O15       1.0  0.6552283507235758  0.6064753730720297  0.09370795133139612  1.0000
  O   O16       1.0  0.5131463551443504  0.5615684943189406  0.9061066076094877  1.0000
  O   O17       1.0  0.07840633057728044  0.20041094628848552  0.5340409142355967  1.0000
  O   O18       1.0  0.6658807062748766  0.5444225542512768  0.4659222115341493  1.0000
  O   O19       1.0  0.7944341773293288  0.4156444954130905  0.9659500241512687  1.0000
  O   O20       1.0  0.4498110041978195  0.8280754005932565  0.034113803159812106  1.0000
  O   O21       1.0  0.251372969537627  0.5291983491643605  0.45528143483229394  1.0000
  O   O22       1.0  0.07354096395775407  0.796170432609081  0.5447124526584659  1.0000
  O   O23       1.0  0.04580011097097262  0.8231798957097494  0.04473871467541809  1.0000
  O   O24       1.0  0.7783468233772339  0.0008223345073545997  0.9551995917870711  1.0000
