data_image0
_chemical_formula_structural       Nd4H20C20O26
_chemical_formula_sum              "Nd4 H20 C20 O26"
_cell_length_a       8.244311183881718
_cell_length_b       9.405169906709894
_cell_length_c       11.557006716348393
_cell_angle_alpha    79.94285018216566
_cell_angle_beta     69.77590133433645
_cell_angle_gamma    75.63309920827872

_space_group_name_H-M_alt    "P 1"
_space_group_IT_number       1

loop_
  _space_group_symop_operation_xyz
  'x, y, z'

loop_
  _atom_site_type_symbol
  _atom_site_label
  _atom_site_symmetry_multiplicity
  _atom_site_fract_x
  _atom_site_fract_y
  _atom_site_fract_z
  _atom_site_occupancy
  Nd  Nd1       1.0  0.748901607239844  0.47283957142943245  0.5138215478787913  1.0000
  Nd  Nd2       1.0  0.25109662215774614  0.5271611281701071  0.48617794686722254  1.0000
  Nd  Nd3       1.0  0.54959253541724  0.8517464433789929  0.3725178502729135  1.0000
  Nd  Nd4       1.0  0.4504087814198101  0.1482520466414386  0.6274829480321314  1.0000
  H   H1        1.0  0.48607363157545064  0.6572634761711103  0.8719076511366949  1.0000
  H   H2        1.0  0.5139235425638232  0.34273613917147133  0.12809398679583242  1.0000
  H   H3        1.0  0.7789870282588037  0.545453514257858  0.8906104204862686  1.0000
  H   H4        1.0  0.2210163990948786  0.45454714427649634  0.10938609144574225  1.0000
  H   H5        1.0  0.7597489923761743  0.7357927768586023  0.8458833066976723  1.0000
  H   H6        1.0  0.24024662790099421  0.26420794879914683  0.15411854641625672  1.0000
  H   H7        1.0  0.0730392906988229  0.03534468189377551  0.3420159287575686  1.0000
  H   H8        1.0  0.9269632929324417  0.964648310645096  0.6579879556384112  1.0000
  H   H9        1.0  0.9612369579409614  0.15698302878634254  0.24765082455308368  1.0000
  H   H10       1.0  0.03877131944666698  0.8430132346701529  0.7523512076027927  1.0000
  H   H11       1.0  0.08738441682335446  0.9121566377669911  0.16574953825230654  1.0000
  H   H12       1.0  0.9126194888493585  0.08784183724646512  0.834250635606658  1.0000
  H   H13       1.0  0.45291872352983364  0.9236058019986759  0.9119913767882365  1.0000
  H   H14       1.0  0.547080065325808  0.07639266987501972  0.08800484419736422  1.0000
  H   H15       1.0  0.7849332061888956  0.0431585286697924  0.16877375472584086  1.0000
  H   H16       1.0  0.21506627705701922  0.9568421855287356  0.8312288956408197  1.0000
  H   H17       1.0  0.6087312716500006  0.41213595368229516  0.8144740355881767  1.0000
  H   H18       1.0  0.3912674563513787  0.5878625513451113  0.18552738716294934  1.0000
  H   H19       1.0  0.5812599087970864  0.5584416000178436  0.3131510188892932  1.0000
  H   H20       1.0  0.41874140803996324  0.4415568900025948  0.6868497794157519  1.0000
  C   C1        1.0  0.5651675537447218  0.7578504416473707  0.6864276278248838  1.0000
  C   C2        1.0  0.43483300504426114  0.2421513457568737  0.31357114543341413  1.0000
  C   C3        1.0  0.5970356373007846  0.6337093753250472  0.78599869278613  1.0000
  C   C4        1.0  0.40296390679939975  0.3662913057197629  0.21399875581499828  1.0000
  C   C5        1.0  0.7671721212081904  0.630235253951227  0.8136509388015724  1.0000
  C   C6        1.0  0.23282792883463788  0.36976873355077094  0.18634677341253086  1.0000
  C   C7        1.0  0.9345297143008646  0.5997889295017773  0.7049145077788382  1.0000
  C   C8        1.0  0.06546747731964327  0.4002161813444972  0.2950845988006279  1.0000
  C   C9        1.0  0.7926661201545072  0.08790196397720963  0.4229848398084926  1.0000
  C   C10       1.0  0.2073321295278347  0.9120987245710882  0.5770129210156796  1.0000
  C   C11       1.0  0.9558086791987176  0.05531275956729329  0.3117537105808807  1.0000
  C   C12       1.0  0.04419599466442753  0.9446824125367357  0.6882476213639066  1.0000
  C   C13       1.0  0.9657609680325832  0.9239486821463675  0.2458037877117434  1.0000
  C   C14       1.0  0.03424164322230178  0.0760498003705834  0.7541966983702579  1.0000
  C   C15       1.0  0.9777273682760138  0.7765133120838926  0.3280745673427459  1.0000
  C   C16       1.0  0.02226853173017671  0.22348629971093462  0.6719256488909764  1.0000
  C   C17       1.0  0.45438351195052457  0.8161318046623551  0.09747375950011156  1.0000
  C   C18       1.0  0.5456157524206303  0.18386999024537692  0.9025253259812233  1.0000
  C   C19       1.0  0.4759211071701371  0.9384433838832753  0.9960986746513284  1.0000
  C   C20       1.0  0.5240799907921457  0.06155618684636721  0.0038985587683981505  1.0000
  O   O1        1.0  0.5991482040966359  0.4985504982378187  0.7463867238434574  1.0000
  O   O2        1.0  0.4008486903136158  0.5014502309676774  0.2536165509692765  1.0000
  O   O3        1.0  0.9218851735815362  0.5891335167752774  0.5983405111272617  1.0000
  O   O4        1.0  0.07811252678513371  0.41086939397325045  0.4016596564963989  1.0000
  O   O5        1.0  0.1177068851536943  0.7308962922185958  0.35431808424743144  1.0000
  O   O6        1.0  0.8822975495499389  0.26909997164588634  0.645681416733879  1.0000
  O   O7        1.0  0.08294543120432246  0.5876209857368055  0.7180879954391344  1.0000
  O   O8        1.0  0.9170515083107774  0.41239072895045586  0.28190934970657366  1.0000
  O   O9        1.0  0.762041453772369  0.19963636524887826  0.48025522129053394  1.0000
  O   O10       1.0  0.23795810047018753  0.8003643102703181  0.51974136034967  1.0000
  O   O11       1.0  0.5680676423997183  0.7219885181110828  0.5839316972603967  1.0000
  O   O12       1.0  0.43192564848605025  0.2780111197419546  0.416070877341248  1.0000
  O   O13       1.0  0.5483859711159054  0.5937469331440824  0.3945409442930838  1.0000
  O   O14       1.0  0.45161224813931256  0.4062537719810707  0.6054594174138472  1.0000
  O   O15       1.0  0.8461284742477274  0.7121106409460157  0.3615851491456396  1.0000
  O   O16       1.0  0.15387050025201884  0.28789227335025913  0.6384164401768331  1.0000
  O   O17       1.0  0.6841335433288263  0.9999711312291387  0.4598195991395925  1.0000
  O   O18       1.0  0.3158662297884901  2.8463580846999583e-05  0.5401805473859298  1.0000
  O   O19       1.0  0.533648201780423  0.8884595309200949  0.7141112398386226  1.0000
  O   O20       1.0  0.46635028706143794  0.11154006586775722  0.2858883519490191  1.0000
  O   O21       1.0  0.8156132284813179  0.9417891642859575  0.20339226806439828  1.0000
  O   O22       1.0  0.1843958650051079  0.05820927518794151  0.7966057899414878  1.0000
  O   O23       1.0  0.49670294056760844  0.8220898461095276  0.19265254213349436  1.0000
  O   O24       1.0  0.5032976182213743  0.17791194129471682  0.8073462311248036  1.0000
  O   O25       1.0  0.39334659264847716  0.7117573342824528  0.08196845591579201  1.0000
  O   O26       1.0  0.6066529210245688  0.2882433633392125  0.9180315935680953  1.0000
