data_image0
_chemical_formula_structural       Ag4H32C56N4O8
_chemical_formula_sum              "Ag4 H32 C56 N4 O8"
_cell_length_a       8.06898557211215
_cell_length_b       9.183825726029593
_cell_length_c       17.579865530190038
_cell_angle_alpha    89.9999015802469
_cell_angle_beta     90.00052793204031
_cell_angle_gamma    90.00027984538033

_space_group_name_H-M_alt    "P 1"
_space_group_IT_number       1

loop_
  _space_group_symop_operation_xyz
  'x, y, z'

loop_
  _atom_site_type_symbol
  _atom_site_label
  _atom_site_symmetry_multiplicity
  _atom_site_fract_x
  _atom_site_fract_y
  _atom_site_fract_z
  _atom_site_occupancy
  Ag  Ag1       1.0  0.6360024609034126  0.6981915099193043  0.24097899616815965  1.0000
  Ag  Ag2       1.0  0.36400066870672987  0.301807349635986  0.7409795739168955  1.0000
  Ag  Ag3       1.0  0.8639976836880977  0.6981922737445172  0.7409804626330114  1.0000
  Ag  Ag4       1.0  0.1360017279911929  0.30180767467252406  0.2409786762761924  1.0000
  H   H1        1.0  0.43591172657610144  0.3508487247023807  0.3452428898981949  1.0000
  H   H2        1.0  0.5640947182207086  0.6491497909099948  0.8452434413276393  1.0000
  H   H3        1.0  0.0640954914207938  0.3508503517414424  0.8452436464065229  1.0000
  H   H4        1.0  0.935903517525894  0.6491525193351676  0.3452443912992037  1.0000
  H   H5        1.0  0.2840543181872093  0.20873751944566976  0.4433651094748399  1.0000
  H   H6        1.0  0.7159516015937656  0.7912584947304068  0.9433678878083994  1.0000
  H   H7        1.0  0.2159528410165876  0.20874090096487657  0.9433676511626599  1.0000
  H   H8        1.0  0.7840518394946089  0.7912627353005846  0.4433676214447856  1.0000
  H   H9        1.0  0.2855756515861643  0.9371790535186117  0.4387515548461494  1.0000
  H   H10       1.0  0.7144276977229039  0.06281806474099479  0.9387549782284662  1.0000
  H   H11       1.0  0.21442670334860028  0.937181339489186  0.9387535212047311  1.0000
  H   H12       1.0  0.7855766459782387  0.06282231199543988  0.4387530118669644  1.0000
  H   H13       1.0  0.9559692992965766  0.9329640084663637  0.024980765297485195  1.0000
  H   H14       1.0  0.044028290538364004  0.06704318571694756  0.5249813263552736  1.0000
  H   H15       1.0  0.5440265826658219  0.9329622809530489  0.5249814362582795  1.0000
  H   H16       1.0  0.4559635712548769  0.0670340245065404  0.0249800865509329  1.0000
  H   H17       1.0  0.9555880234636049  0.20410219087501247  0.018605046223449096  1.0000
  H   H18       1.0  0.0444069607819699  0.7959028465963555  0.5186038193197007  1.0000
  H   H19       1.0  0.5444087237218939  0.20410046503759105  0.5186040123141424  1.0000
  H   H20       1.0  0.4555837818763706  0.7958947725898751  0.018605422060666395  1.0000
  H   H21       1.0  0.7965842347587043  0.3480057679470149  0.11277942465329717  1.0000
  H   H22       1.0  0.20341138515797746  0.6519967811181215  0.6127778667861107  1.0000
  H   H23       1.0  0.7034139309678482  0.3480058279183921  0.6127790687334311  1.0000
  H   H24       1.0  0.2965829282897873  0.6519923656595523  0.11278220453851867  1.0000
  H   H25       1.0  0.7991819617624502  0.8036535540179697  0.1254920654114713  1.0000
  H   H26       1.0  0.2008225864788855  0.19634677538271456  0.6254937481966181  1.0000
  H   H27       1.0  0.7008176965359356  0.8036546914753938  0.625492836082806  1.0000
  H   H28       1.0  0.29917941580945495  0.1963456379118043  0.1254912710117324  1.0000
  H   H29       1.0  0.4422420727098101  0.8067633242585969  0.33858508316244235  1.0000
  H   H30       1.0  0.5577617609115394  0.19323412443871743  0.8385865842117255  1.0000
  H   H31       1.0  0.05775881775792159  0.8067660124078698  0.8385858126644123  1.0000
  H   H32       1.0  0.9422425372376325  0.1932357917692329  0.3385847170373921  1.0000
  C   C1        1.0  0.5896201310508148  0.39821732894149864  0.2189868268109478  1.0000
  C   C2        1.0  0.410382560698821  0.6017816031616688  0.7189873340249306  1.0000
  C   C3        1.0  0.9103816617334745  0.39821720719943693  0.7189884910525277  1.0000
  C   C4        1.0  0.08961607280343031  0.6017839026289094  0.2189890827671945  1.0000
  C   C5        1.0  0.6092108319177071  0.23607904680810066  0.22696993730466627  1.0000
  C   C6        1.0  0.39079201876912617  0.7639209478325382  0.7269696471300833  1.0000
  C   C7        1.0  0.8907889984395467  0.23607992806579148  0.7269703803423366  1.0000
  C   C8        1.0  0.1092076557014394  0.7639211554292868  0.2269709105764051  1.0000
  C   C9        1.0  0.5264573079563705  0.16002114145494056  0.2852131300422798  1.0000
  C   C10       1.0  0.47354794166245995  0.839976483311787  0.7852142623688037  1.0000
  C   C11       1.0  0.9735469861915077  0.16002347431393815  0.7852133571147134  1.0000
  C   C12       1.0  0.026452066870412204  0.8399774170517132  0.2852140352817045  1.0000
  C   C13       1.0  0.4352086991184053  0.232137849150412  0.3438367873883408  1.0000
  C   C14       1.0  0.5647952390555703  0.7678584933525484  0.8438378044648259  1.0000
  C   C15       1.0  0.06479660578372659  0.23213947926486606  0.8438386845554076  1.0000
  C   C16       1.0  0.9352036144882306  0.7678623075803727  0.3438381826176594  1.0000
  C   C17       1.0  0.35305372127231754  0.15315742144910865  0.39864537168219266  1.0000
  C   C18       1.0  0.6469525474630657  0.8468409179933686  0.8986478060915033  1.0000
  C   C19       1.0  0.1469510058749819  0.1531583227895865  0.8986464814894929  1.0000
  C   C20       1.0  0.853051544924142  0.8468432832581952  0.39864612744224803  1.0000
  C   C21       1.0  0.3550736008666179  0.9987113666213997  0.396418018351575  1.0000
  C   C22       1.0  0.6449313842228009  0.0012891579063917995  0.8964212004352559  1.0000
  C   C23       1.0  0.14493072458478906  0.9987133479765468  0.8964202572099679  1.0000
  C   C24       1.0  0.8550717818928605  0.0012904431573800997  0.3964195304026816  1.0000
  C   C25       1.0  0.4418569940221815  0.9258150123604807  0.3409837960258031  1.0000
  C   C26       1.0  0.5581493659928256  0.07418133955650319  0.8409865428717253  1.0000
  C   C27       1.0  0.05814707048429572  0.9258166133327844  0.8409850960095469  1.0000
  C   C28       1.0  0.9418555716003854  0.07418518293116702  0.3409846740450532  1.0000
  C   C29       1.0  0.5317400662859202  0.0034055952848746  0.2844430120531669  1.0000
  C   C30       1.0  0.46826268936641213  0.9965920320180853  0.784443412934287  1.0000
  C   C31       1.0  0.9682621212157869  0.003406816112445199  0.7844437854286566  1.0000
  C   C32       1.0  0.03173815583043191  0.9965940777957125  0.2844437772171915  1.0000
  C   C33       1.0  0.7043021946433186  0.0017031568654672998  0.1768981894969031  1.0000
  C   C34       1.0  0.2957021377501333  0.9982926474721123  0.6768989907250642  1.0000
  C   C35       1.0  0.7956990817265321  0.001707976809648  0.6768993647344173  1.0000
  C   C36       1.0  0.20429905412969154  0.998290005252272  0.17690009080362756  1.0000
  C   C37       1.0  0.7967878961818187  0.9225408281313959  0.12188219568221106  1.0000
  C   C38       1.0  0.20321410155715108  0.07746169091544167  0.6218828573406439  1.0000
  C   C39       1.0  0.7032098583500214  0.9225387094684688  0.6218812700614647  1.0000
  C   C40       1.0  0.29678594278003345  0.07745836521530688  0.1218809387877897  1.0000
  C   C41       1.0  0.8839211694816457  0.9948878668439676  0.0663239036480263  1.0000
  C   C42       1.0  0.11607724347938839  0.005119190957898898  0.5663236896401925  1.0000
  C   C43       1.0  0.616074633154085  0.9948842773882021  0.566323175322779  1.0000
  C   C44       1.0  0.3839188225136283  0.005114069438917599  0.0663227114610763  1.0000
  C   C45       1.0  0.8838184478967506  0.14932522475250204  0.06258193213383827  1.0000
  C   C46       1.0  0.1161786512298306  0.8506774899085553  0.5625809622645831  1.0000
  C   C47       1.0  0.6161801162001339  0.14932490236366647  0.5625823419161475  1.0000
  C   C48       1.0  0.3838120256813938  0.8506701901859869  0.0625833966379403  1.0000
  C   C49       1.0  0.795267779549647  0.22936021798476244  0.11459632611913409  1.0000
  C   C50       1.0  0.20473159449100112  0.7706423250932202  0.6145958054179842  1.0000
  C   C51       1.0  0.704731016227356  0.22935810598417555  0.6145971134800304  1.0000
  C   C52       1.0  0.2952671185109281  0.7706400816039927  0.11459729338665169  1.0000
  C   C53       1.0  0.7025923282753368  0.15823814232013686  0.17288102027320915  1.0000
  C   C54       1.0  0.29740944551272724  0.8417620307488248  0.6728808311295964  1.0000
  C   C55       1.0  0.7974084803498086  0.1582375254036776  0.6728822028029738  1.0000
  C   C56       1.0  0.2025883362338803  0.841763736517748  0.17288419924929593  1.0000
  N   N1        1.0  0.6187133323906907  0.928413626765497  0.2312506818240578  1.0000
  N   N2        1.0  0.3812908428438462  0.0715863537555848  0.7312509703803656  1.0000
  N   N3        1.0  0.8812891102405088  0.928413377507347  0.731251084349445  1.0000
  N   N4        1.0  0.11871258636501383  0.0715876918800831  0.23124999901664717  1.0000
  O   O1        1.0  0.4986950417565836  0.44307433926709194  0.1664736970055571  1.0000
  O   O2        1.0  0.5013053651550338  0.5569236771921025  0.6664746320383941  1.0000
  O   O3        1.0  0.0013041614613981999  0.44307786883977934  0.6664758922875433  1.0000
  O   O4        1.0  0.9986875702896398  0.5569234142091516  0.16647471206670866  1.0000
  O   O5        1.0  0.6692429808085549  0.4751788133227278  0.2679964382737267  1.0000
  O   O6        1.0  0.33075944739702834  0.5248199571052863  0.7679966748147038  1.0000
  O   O7        1.0  0.8307577277919549  0.4751794314524742  0.7679971941707392  1.0000
  O   O8        1.0  0.1692397431696193  0.5248204278345766  0.26799648773919665  1.0000
