data_image0
_chemical_formula_structural       Al6H48C98O30
_chemical_formula_sum              "Al6 H48 C98 O30"
_cell_length_a       13.101394709363639
_cell_length_b       12.625403711335073
_cell_length_c       27.66020208907553
_cell_angle_alpha    89.01265663375214
_cell_angle_beta     89.91838490519058
_cell_angle_gamma    60.27930593335544

_space_group_name_H-M_alt    "P 1"
_space_group_IT_number       1

loop_
  _space_group_symop_operation_xyz
  'x, y, z'

loop_
  _atom_site_type_symbol
  _atom_site_label
  _atom_site_symmetry_multiplicity
  _atom_site_fract_x
  _atom_site_fract_y
  _atom_site_fract_z
  _atom_site_occupancy
  Al  Al1       1.0  0.5972375066779634  0.8112097221905686  0.5014333914951478  1.0000
  Al  Al2       1.0  0.35593659955265633  0.0657612085052648  0.500444718216201  1.0000
  Al  Al3       1.0  0.5807227683628112  0.0730158451953997  0.4998015823853945  1.0000
  Al  Al4       1.0  0.0852272973234134  0.8399618789200077  0.014564939395135895  1.0000
  Al  Al5       1.0  0.09635685895215565  0.5809609646392814  0.0176107131628243  1.0000
  Al  Al6       1.0  0.32488527657543637  0.5810808751982109  0.017275680612335996  1.0000
  H   H1        1.0  0.1777746624166809  0.2925155589787138  0.7880382863148014  1.0000
  H   H2        1.0  0.6993781381760587  0.7716183533003542  0.7956670074397746  1.0000
  H   H3        1.0  0.8680933509233314  0.6420143363074972  0.7233290753536251  1.0000
  H   H4        1.0  0.037571589910342436  0.6713590717678529  0.7765427977778998  1.0000
  H   H5        1.0  0.5412819445946084  0.6605848537881372  0.7864024576668952  1.0000
  H   H6        1.0  0.3928656505363435  0.6331851211301753  0.718875568082005  1.0000
  H   H7        1.0  0.4921246324660158  0.8815332806126083  0.7383127542780696  1.0000
  H   H8        1.0  0.2983071913736524  0.0115857860264796  0.8013768626276984  1.0000
  H   H9        1.0  0.15012678587314812  0.9842090467015082  0.7338443890526134  1.0000
  H   H10       1.0  0.19896146192625244  0.7637639821201462  0.7819226599454578  1.0000
  H   H11       1.0  0.1377576911951266  0.4085050669802469  0.1385401278908702  1.0000
  H   H12       1.0  0.14693738991319788  0.466765254448781  0.7149768100473679  1.0000
  H   H13       1.0  0.051726491248700775  0.39674898755799864  0.21626435011915388  1.0000
  H   H14       1.0  0.06036332469132335  0.384376739435936  0.30494858614400744  1.0000
  H   H15       1.0  0.4930359866569417  0.3406575494370045  0.1331150433671269  1.0000
  H   H16       1.0  0.6198918995109891  0.2687819534769389  0.2080391466541371  1.0000
  H   H17       1.0  0.636346086544826  0.2341437219417415  0.29654079196498623  1.0000
  H   H18       1.0  0.5484678562176554  0.22117222645132983  0.37488184015538906  1.0000
  H   H19       1.0  0.922938614652821  0.9453269964588172  0.1375981183137327  1.0000
  H   H20       1.0  0.7714380805821153  0.04442960901895531  0.37457067644132264  1.0000
  H   H21       1.0  0.8805877430980401  0.0737662247574917  0.2110017818659813  1.0000
  H   H22       1.0  0.3863499028753736  0.11859178300657192  0.741973818963366  1.0000
  H   H23       1.0  0.8337136558742556  0.10578265725787617  0.2980290522079017  1.0000
  H   H24       1.0  0.9245761917227854  0.6050223632344683  0.1472885186312851  1.0000
  H   H25       1.0  0.8813340185644877  0.5347054366193333  0.22625874838974616  1.0000
  H   H26       1.0  0.7911421591490609  0.6952882427732945  0.3855817700838102  1.0000
  H   H27       1.0  0.43633979256227906  0.5863164415655079  0.1521259370316201  1.0000
  H   H28       1.0  0.49982875494558227  0.6736819568868954  0.38869100257235084  1.0000
  H   H29       1.0  0.5254344328947835  0.49929928019000874  0.23323032155869328  1.0000
  H   H30       1.0  0.5431066506715754  0.5284544192602992  0.32027926776155613  1.0000
  H   H31       1.0  0.14527288794392484  0.9511964044628343  0.13968943062712916  1.0000
  H   H32       1.0  0.518142936462709  0.19431649230238435  0.7990776142911216  1.0000
  H   H33       1.0  0.07348264706104857  0.08273421907185961  0.2123284722174574  1.0000
  H   H34       1.0  0.09338227076484881  0.11322693255786477  0.2991140993785493  1.0000
  H   H35       1.0  0.2089933683470662  0.0380739487517161  0.3764475550476972  1.0000
  H   H36       1.0  0.4874210032667889  0.3683954075947469  0.7259860987783922  1.0000
  H   H37       1.0  0.27880286033698803  0.54236949340104  0.7719974801792302  1.0000
  H   H38       1.0  0.8021090790718475  0.021853178146905305  0.7966591414534746  1.0000
  H   H39       1.0  0.9707309284400477  0.892329001113787  0.7243075746229336  1.0000
  H   H40       1.0  0.6325677365062529  0.9926121299811046  0.7434347531493088  1.0000
  H   H41       1.0  0.13198126912796226  0.21255030243111858  0.4181641599080378  1.0000
  H   H42       1.0  0.10937007578281306  0.23402973370436805  0.3539999612094461  1.0000
  H   H43       1.0  0.005248001686901166  0.3465248296006891  0.39372803337375456  1.0000
  H   H44       1.0  0.6773225010818109  0.62917558483376  0.33721411163396187  1.0000
  H   H45       1.0  0.7584193631613729  0.46798320197255794  0.3489890910976285  1.0000
  H   H46       1.0  0.718111720200568  0.5260303617239187  0.2878479433254312  1.0000
  H   H47       1.0  0.6918618434928376  0.6105001272927382  0.5319322339925064  1.0000
  H   H48       1.0  0.038095343001060676  0.04085114181268779  0.030606358952660194  1.0000
  C   C1        1.0  0.39029622191539914  0.8908547242991245  0.56968419866012  1.0000
  C   C2        1.0  0.37379898960838887  0.2591210157663113  0.6153628170061367  1.0000
  C   C3        1.0  0.30273886657770516  0.4480588281002157  0.7647442269568641  1.0000
  C   C4        1.0  0.31954328722638076  0.351260417099347  0.8059697472118045  1.0000
  C   C5        1.0  0.41859869529822896  0.3517666426753578  0.7401846488768624  1.0000
  C   C6        1.0  0.34554628837120294  0.30983362041926915  0.7080567481350426  1.0000
  C   C7        1.0  0.43594674302804753  0.2545570429255761  0.779896568135882  1.0000
  C   C8        1.0  0.3624069009447624  0.21292312345966738  0.7492721301948888  1.0000
  C   C9        1.0  0.30579060216276577  0.37696214194699007  0.8559060562819238  1.0000
  C   C10       1.0  0.3596736327055794  0.2843825610377592  0.6581187820765776  1.0000
  C   C11       1.0  0.9106518975319559  0.8654972097922099  0.7406118551923909  1.0000
  C   C12       1.0  0.40006589443581925  0.2084313903826569  0.5678825633875064  1.0000
  C   C13       1.0  0.8165261936980739  0.9378816903952725  0.7798207403076205  1.0000
  C   C14       1.0  0.905697324774941  0.7784366273459115  0.9019338024213468  1.0000
  C   C15       1.0  0.7665208435108111  0.8822411783772781  0.6177808285720657  1.0000
  C   C16       1.0  0.9474592401419741  0.7429111721042788  0.7684756464033242  1.0000
  C   C17       1.0  0.8536526645753781  0.8150458984861758  0.8090977220497917  1.0000
  C   C18       1.0  0.8536257313445218  0.7260184933468566  0.7401573766717673  1.0000
  C   C19       1.0  0.8164635801340407  0.8487896783387897  0.7108541087999709  1.0000
  C   C20       1.0  0.7594765068383111  0.7984073501838225  0.7793503453187967  1.0000
  C   C21       1.0  0.7226610057895401  0.9210210256661353  0.751460705858676  1.0000
  C   C22       1.0  0.8785677072436116  0.7951535731563482  0.8592044059508479  1.0000
  C   C23       1.0  0.7169508110442846  0.9002625983059648  0.5699468515680195  1.0000
  C   C24       1.0  0.7922580799909371  0.8675668170810765  0.6606632296284899  1.0000
  C   C25       1.0  0.37207320988020604  0.7167167026818787  0.7378409063394072  1.0000
  C   C26       1.0  0.4545605476665101  0.7324254436751473  0.7742789809188508  1.0000
  C   C27       1.0  0.33301355920239945  0.772962604297845  0.902641197384213  1.0000
  C   C28       1.0  0.36136206546949995  0.8688895280383446  0.6175383272045494  1.0000
  C   C29       1.0  0.2642639535274541  0.7896679867469202  0.771450881730395  1.0000
  C   C30       1.0  0.34723270294988856  0.8045641092042998  0.809225906878602  1.0000
  C   C31       1.0  0.23693184599894576  0.9123517658500687  0.7459071682548382  1.0000
  C   C32       1.0  0.3444235887697218  0.8399287623007937  0.7109772034896478  1.0000
  C   C33       1.0  0.3193630185390006  0.9280207934582305  0.7823871360281557  1.0000
  C   C34       1.0  0.3914028180377044  0.8884292870244368  0.4334862941802341  1.0000
  C   C35       1.0  0.42714460295581336  0.855201358825923  0.7487791868686529  1.0000
  C   C36       1.0  0.3429934443942954  0.7871421932384524  0.8595621974848697  1.0000
  C   C37       1.0  0.3498557502860607  0.856307226017762  0.6606161882434662  1.0000
  C   C38       1.0  0.2577209702082611  0.31107796093090195  0.3605827015504984  1.0000
  C   C39       1.0  0.24724716167598604  0.3273404636635108  0.30964376970920426  1.0000
  C   C40       1.0  0.23085741082791597  0.35745591104069513  0.20705767071709857  1.0000
  C   C41       1.0  0.1332716467970343  0.37265276669118924  0.23527208830419255  1.0000
  C   C42       1.0  0.13902124790206463  0.3631634172945439  0.2845067227335747  1.0000
  C   C43       1.0  0.22076328645547236  0.380615982873863  0.1571155852041386  1.0000
  C   C44       1.0  0.3140131290903554  0.37677479391861374  0.1309880728034898  1.0000
  C   C45       1.0  0.39224634710303974  0.21790056655152054  0.4337777074665539  1.0000
  C   C46       1.0  0.4646865647997132  0.25353867377666006  0.3562099480342553  1.0000
  C   C47       1.0  0.45632699275573424  0.2746339547900972  0.30618087022737217  1.0000
  C   C48       1.0  0.34761680418167623  0.30796202281715773  0.2823025888462992  1.0000
  C   C49       1.0  0.5536996594837261  0.2608236862307082  0.2778524330251742  1.0000
  C   C50       1.0  0.544522037899867  0.2800862247154967  0.2289470667424922  1.0000
  C   C51       1.0  0.43626709965163  0.31502505956192545  0.20382252134641018  1.0000
  C   C52       1.0  0.3386908307073567  0.32593196045573347  0.23117580065107285  1.0000
  C   C53       1.0  0.42153545423436606  0.34269918249657394  0.1540597114522271  1.0000
  C   C54       1.0  0.36839815873121756  0.2675545167185973  0.3833820431414593  1.0000
  C   C55       1.0  0.7899056488660676  0.959690414217583  0.3574381977044324  1.0000
  C   C56       1.0  0.7181513927915261  0.9018973578972905  0.4324510313208023  1.0000
  C   C57       1.0  0.825696989318004  0.9392358509876718  0.3090242752509695  1.0000
  C   C58       1.0  0.8822393012260363  0.9010916813451431  0.20866773260544136  1.0000
  C   C59       1.0  0.8686988887626299  0.0073485729311358  0.23238924795702323  1.0000
  C   C60       1.0  0.8423346356594762  0.025153197166822804  0.28036491274998804  1.0000
  C   C61       1.0  0.9106322746316096  0.8801183394306095  0.1595981748401769  1.0000
  C   C62       1.0  0.9266666670648789  0.7733971866266243  0.1380552908371229  1.0000
  C   C63       1.0  0.8004058915578512  0.7621993698449502  0.3635381626337804  1.0000
  C   C64       1.0  0.8335458501445315  0.7398909746274569  0.31507905009359394  1.0000
  C   C65       1.0  0.8429958735689667  0.8302402692832515  0.2866655674672458  1.0000
  C   C66       1.0  0.8533631630624184  0.6303644474735749  0.29173222062067333  1.0000
  C   C67       1.0  0.22915985556657867  0.4064535961154263  0.7341377060533034  1.0000
  C   C68       1.0  0.8718158914911597  0.6164091681040277  0.24313008462411995  1.0000
  C   C69       1.0  0.8829256817381789  0.7049337447142036  0.21409081758187645  1.0000
  C   C70       1.0  0.8694088682706891  0.8121961814061649  0.236614475701785  1.0000
  C   C71       1.0  0.9114390779246407  0.6873689513410496  0.1648936609337142  1.0000
  C   C72       1.0  0.7740014165962849  0.8735715206286728  0.3839285292014479  1.0000
  C   C73       1.0  0.428066944248563  0.743511774415822  0.3667875490095298  1.0000
  C   C74       1.0  0.4088426831006797  0.7200021598660343  0.3193167065840327  1.0000
  C   C75       1.0  0.385702440133734  0.6852143858226896  0.21916886126438573  1.0000
  C   C76       1.0  0.46973213911212497  0.5876328809312169  0.249465521570194  1.0000
  C   C77       1.0  0.4796600895580453  0.6038064278087134  0.29750121502806337  1.0000
  C   C78       1.0  0.24653915243718671  0.30923157699091053  0.7738511280712146  1.0000
  C   C79       1.0  0.37732455399709836  0.67225594534181  0.16935776717090076  1.0000
  C   C80       1.0  0.2917770485057574  0.7685302169041179  0.14123429958213754  1.0000
  C   C81       1.0  0.26351715996226227  0.9502868344464944  0.35982992149772025  1.0000
  C   C82       1.0  0.24329863976612365  0.9318834053986793  0.31178281331633423  1.0000
  C   C83       1.0  0.3191497632548632  0.8166051341724483  0.29059448680328603  1.0000
  C   C84       1.0  0.1526250101348907  0.026369687264583795  0.2824443030085106  1.0000
  C   C85       1.0  0.1414420092091007  0.009645828360888203  0.23457466093084625  1.0000
  C   C86       1.0  0.21937861932460104  0.8967197223019597  0.2118717344842409  1.0000
  C   C87       1.0  0.30751763140562344  0.7992417099627716  0.24074076622282795  1.0000
  C   C88       1.0  0.21252223324601963  0.8790464379935796  0.1624270087554365  1.0000
  C   C89       1.0  0.29259672491616573  0.4026691800372931  0.8986180725971804  1.0000
  C   C90       1.0  0.35789547340665706  0.8589491787283021  0.3863252462554954  1.0000
  C   C91       1.0  0.9580289900496836  0.7579061260441121  0.9493090680878423  1.0000
  C   C92       1.0  0.26981128230057994  0.45096231820515004  0.946555796033813  1.0000
  C   C93       1.0  0.2995634011606327  0.7534114837779669  0.9499883853370505  1.0000
  C   C94       1.0  0.9700661165723402  0.7487450015203763  0.08735506125490389  1.0000
  C   C95       1.0  0.2902753776954157  0.42611319221531113  0.08062625742537219  1.0000
  C   C96       1.0  0.27825984482189614  0.7511372426822689  0.08907439999287448  1.0000
  C   C97       1.0  0.09839034490081386  0.28043699086828155  0.38841883990652076  1.0000
  C   C98       1.0  0.7456752448658576  0.5410156147225678  0.32345406294642487  1.0000
  O   O1        1.0  0.6908042763702368  0.8220425600825365  0.5558437128232754  1.0000
  O   O2        1.0  0.3214540259964949  0.187218843724132  0.4529296657762813  1.0000
  O   O3        1.0  0.4886789159666661  0.1973801270944193  0.4538596901988966  1.0000
  O   O4        1.0  0.6890804217291518  0.0074394930336297025  0.4500076152974586  1.0000
  O   O5        1.0  0.5104704178387962  0.984876194719682  0.5010263233785891  1.0000
  O   O6        1.0  0.1969766422554214  0.8284817437840745  0.9632444188807623  1.0000
  O   O7        1.0  0.9882635284102365  0.833420182691505  0.9627436196568553  1.0000
  O   O8        1.0  0.9739006254641255  0.6621028741922572  0.9732282930009645  1.0000
  O   O9        1.0  0.1730971132168334  0.47170067035910535  0.9660700992704037  1.0000
  O   O10       1.0  0.34562641551479345  0.47438933205138784  0.9649917278228839  1.0000
  O   O11       1.0  0.37558365093097723  0.6575125584077952  0.9740294120971453  1.0000
  O   O12       1.0  0.48941809056339014  0.814318052900248  0.5533525146667911  1.0000
  O   O13       1.0  0.1894894854949456  0.8340035380232109  0.0667441698776159  1.0000
  O   O14       1.0  0.9849958477848447  0.8284375562210045  0.0655062034176268  1.0000
  O   O15       1.0  0.9947905478378805  0.6442614046244229  0.0697884089320411  1.0000
  O   O16       1.0  0.19146319727200017  0.4522146005926615  0.06142551461756798  1.0000
  O   O17       1.0  0.36584023191488063  0.448395294776418  0.06028101011663269  1.0000
  O   O18       1.0  0.3559663836934276  0.6501373079752212  0.07049160004121548  1.0000
  O   O19       1.0  0.17008267377501335  0.665459904318702  0.0165790917679729  1.0000
  O   O20       1.0  0.31349597269039015  0.9906434752327085  0.5483417341292451  1.0000
  O   O21       1.0  0.32570983501943834  0.18404602649032847  0.5485375165088229  1.0000
  O   O22       1.0  0.4983784875430288  0.1861708215746276  0.5496012919931843  1.0000
  O   O23       1.0  0.6992764158042489  0.996967048085125  0.5462046015748001  1.0000
  O   O24       1.0  0.6973649418970069  0.8237859655395993  0.4522212905733838  1.0000
  O   O25       1.0  0.492709154704741  0.815769899943561  0.45008667862347096  1.0000
  O   O26       1.0  0.31624501470481897  0.9897829439321056  0.45301350802990464  1.0000
  O   O27       1.0  0.16018129697351918  0.34786929622343615  0.38835664507026013  1.0000
  O   O28       1.0  0.8566020761159763  0.537523733947708  0.3201467730768712  1.0000
  O   O29       1.0  0.6778510900685146  0.651192739863461  0.5007384881520806  1.0000
  O   O30       1.0  0.005932877498103852  0.999821743567452  0.012157087325057596  1.0000
