data_image0
_chemical_formula_structural       Zn4H32C36N6O18
_chemical_formula_sum              "Zn4 H32 C36 N6 O18"
_cell_length_a       9.621429924200815
_cell_length_b       9.709075979831288
_cell_length_c       11.795990425124005
_cell_angle_alpha    82.47255320817656
_cell_angle_beta     81.31915349493255
_cell_angle_gamma    69.04515434318097

_space_group_name_H-M_alt    "P 1"
_space_group_IT_number       1

loop_
  _space_group_symop_operation_xyz
  'x, y, z'

loop_
  _atom_site_type_symbol
  _atom_site_label
  _atom_site_symmetry_multiplicity
  _atom_site_fract_x
  _atom_site_fract_y
  _atom_site_fract_z
  _atom_site_occupancy
  Zn  Zn1       1.0  0.28508703368054  0.394926305891076  0.6588249251312632  1.0000
  Zn  Zn2       1.0  0.7149113077583918  0.605074202446005  0.3411750469447412  1.0000
  Zn  Zn3       1.0  0.35268986080073733  0.6517095369797659  0.7530843351887953  1.0000
  Zn  Zn4       1.0  0.6473084755224576  0.34829097301395257  0.24691478960152582  1.0000
  H   H1        1.0  0.06090016892287756  0.3951041283892709  0.5082806499921801  1.0000
  H   H2        1.0  0.9390988304846104  0.6048974900381767  0.49171827126890827  1.0000
  H   H3        1.0  0.053819045469516893  0.2921376118685616  0.3279494745050755  1.0000
  H   H4        1.0  0.9461792959694147  0.7078628964685195  0.672050497570936  1.0000
  H   H5        1.0  0.5290859436752413  0.05004957223061272  0.3306998142831218  1.0000
  H   H6        1.0  0.4709113418505738  0.9499509360934725  0.6692994437043963  1.0000
  H   H7        1.0  0.5169450882232312  0.17068047060102032  0.5058699533500786  1.0000
  H   H8        1.0  0.48305390606851256  0.8293211494830574  0.4941281206253194  1.0000
  H   H9        1.0  0.5714791407227295  0.6051873442755707  0.9159194755593276  1.0000
  H   H10       1.0  0.428521307426699  0.39481316574414654  0.08408107740797281  1.0000
  H   H11       1.0  0.5883080634291886  0.7233189710997581  0.08645328163317596  1.0000
  H   H12       1.0  0.41169144626475423  0.27667821528839914  0.9135477487246461  1.0000
  H   H13       1.0  0.1642038729009982  0.06434132661283341  0.019253731672556295  1.0000
  H   H14       1.0  0.8357969527300426  0.935658079956056  0.9807451970554197  1.0000
  H   H15       1.0  0.16333784239016322  0.9303348401625726  0.856769684883865  1.0000
  H   H16       1.0  0.8366654725487237  0.0696634629814881  0.1432290477817659  1.0000
  H   H17       1.0  0.4941076369906411  0.9229631906702311  0.20578542680937056  1.0000
  H   H18       1.0  0.5058917603614148  0.0770373176798529  0.794215259355127  1.0000
  H   H19       1.0  0.17482851305085487  0.14416539558133223  0.17538930107141934  1.0000
  H   H20       1.0  0.8251712668985431  0.8558340076612866  0.8246106081394371  1.0000
  H   H21       1.0  0.7602024303843394  0.11185403649058401  0.5852999238307744  1.0000
  H   H22       1.0  0.23979695673623524  0.8881464751727678  0.4146990677623564  1.0000
  H   H23       1.0  0.9348033484192229  0.13963932908421134  0.5633069558562838  1.0000
  H   H24       1.0  0.06519604381709604  0.8603611809225102  0.43669288302253045  1.0000
  H   H25       1.0  0.8284941029122663  0.37525199700504436  0.6565820455889266  1.0000
  H   H26       1.0  0.171504621124022  0.6247474062245718  0.34341714953343677  1.0000
  H   H27       1.0  0.7896849532424994  0.23394314302072425  0.7493561789063106  1.0000
  H   H28       1.0  0.21031378102527037  0.7660562568956307  0.2506447107874195  1.0000
  H   H29       1.0  0.13823809934347522  0.4845405496850999  0.05744179199958668  1.0000
  H   H30       1.0  0.8617680058531576  0.5154588569487831  0.9425607071708413  1.0000
  H   H31       1.0  0.13002222076443107  0.3576731609926754  0.9674189675928203  1.0000
  H   H32       1.0  0.8699803494427129  0.6423273457397727  0.03258470812284038  1.0000
  C   C1        1.0  0.16229290755131837  0.3197551932817647  0.4652304592874543  1.0000
  C   C2        1.0  0.8377068621666054  0.6802442132741293  0.5347677553520356  1.0000
  C   C3        1.0  0.15856296004208298  0.2604643943775785  0.3656055690776511  1.0000
  C   C4        1.0  0.8414343305994759  0.7395361122898694  0.6343945361955504  1.0000
  C   C5        1.0  0.29023869544298714  0.15891482124719403  0.3139207048376278  1.0000
  C   C6        1.0  0.7097589880274029  0.8410845769995277  0.6860803180532996  1.0000
  C   C7        1.0  0.4219028584191733  0.125702001611586  0.36634486051225673  1.0000
  C   C8        1.0  0.578094432222386  0.8742985050558616  0.6336552447609449  1.0000
  C   C9        1.0  0.4163569771825451  0.19181986039083654  0.46507384249815686  1.0000
  C   C10       1.0  0.5836413591406566  0.8081806496028822  0.5349252822921641  1.0000
  C   C11       1.0  0.4838889478422387  0.7064161235485147  0.9434170298561569  1.0000
  C   C12       1.0  0.5161143722123854  0.2935821779389088  0.05658255009515757  1.0000
  C   C13       1.0  0.49282696487482963  0.7737947082641768  0.037142180592376006  1.0000
  C   C14       1.0  0.5071749217850652  0.2262046966610783  0.9628583095097767  1.0000
  C   C15       1.0  0.37787566820283996  0.9054963577113926  0.06862530778153092  1.0000
  C   C16       1.0  0.6221251625439449  0.09450304720086682  0.9313744682321284  1.0000
  C   C17       1.0  0.257227365384999  0.9624729798908266  0.0017119503028695019  1.0000
  C   C18       1.0  0.742774898756508  0.037525321583594014  0.9982869155599587  1.0000
  C   C19       1.0  0.2556434045527495  0.8885071179552215  0.9095010959602376  1.0000
  C   C20       1.0  0.7443588595887575  0.1114911835192061  0.09049776990258346  1.0000
  C   C21       1.0  0.389628984813804  0.9751632502197153  0.1669975567811477  1.0000
  C   C22       1.0  0.6103701320513082  0.02483504458917451  0.8330025559589486  1.0000
  C   C23       1.0  0.2812372900396197  0.09340203467648685  0.21230274112516404  1.0000
  C   C24       1.0  0.7187628827386164  0.906596260145406  0.7876980857034185  1.0000
  C   C25       1.0  0.5996207855466621  0.39115973703431467  0.6789880538978534  1.0000
  C   C26       1.0  0.4003786015739123  0.6088407746290374  0.3210109376952772  1.0000
  C   C27       1.0  0.7748592626802803  0.28289207054903204  0.4545572734187359  1.0000
  C   C28       1.0  0.22514012955603144  0.7171084394576825  0.5454425654600781  1.0000
  C   C29       1.0  0.8125554019176846  0.19703494391870896  0.569488294919978  1.0000
  C   C30       1.0  0.1874453113714623  0.8029677846121006  0.4305102896146805  1.0000
  C   C31       1.0  0.7649702351153422  0.2997678164349154  0.6668484716364772  1.0000
  C   C32       1.0  0.23502915712096945  0.7002326935718061  0.333151367242337  1.0000
  C   C33       1.0  0.13206336032112634  0.568386034500726  0.8837516372013636  1.0000
  C   C34       1.0  0.8679381539729006  0.4316144722187191  0.1162513244257966  1.0000
  C   C35       1.0  0.08430745369176414  0.4748669666738792  0.9840307726473796  1.0000
  C   C36       1.0  0.9156930046891532  0.5251335400325702  0.015971474891294718  1.0000
  N   N1        1.0  0.28881419088278887  0.28692734339905007  0.5148696910799728  1.0000
  N   N2        1.0  0.7111841454404129  0.7130731665946687  0.48512943371034817  1.0000
  N   N3        1.0  0.3670645637703345  0.7625882565175673  0.8800349075690335  1.0000
  N   N4        1.0  0.632938363455466  0.237411153390589  0.11996375476455512  1.0000
  N   N5        1.0  0.10854450041808408  0.26204484048167137  0.7800631120497242  1.0000
  N   N6        1.0  0.8914548918182278  0.737955669525043  0.21993672682908988  1.0000
  O   O1        1.0  0.5094338829199359  0.3354604739587971  0.6506395423139963  1.0000
  O   O2        1.0  0.49056616216918775  0.6645411477949211  0.3493583984642116  1.0000
  O   O3        1.0  0.5625123387422803  0.5173594659795313  0.7181872052950523  1.0000
  O   O4        1.0  0.4374880940599297  0.4826410490100913  0.28181080581519774  1.0000
  O   O5        1.0  0.7927233006700902  0.407514854050902  0.43616438966499516  1.0000
  O   O6        1.0  0.20727609156622145  0.5924856559558195  0.5638354492138191  1.0000
  O   O7        1.0  0.726718621670315  0.22490344660163697  0.384307656522509  1.0000
  O   O8        1.0  0.2732793320555301  0.7750981684995467  0.6156922452214602  1.0000
  O   O9        1.0  0.2624340664593489  0.4998670141528266  0.8249872778929442  1.0000
  O   O10       1.0  0.7375661063188872  0.5001312806690665  0.17501354893563104  1.0000
  O   O11       1.0  0.05971054235485695  0.7014424522302819  0.8627348288127549  1.0000
  O   O12       1.0  0.9402913545365195  0.29855694938170535  0.13726735586076436  1.0000
  O   O13       1.0  0.2522546666115915  0.20084809904347622  0.7723278583142912  1.0000
  O   O14       1.0  0.7477447256247273  0.7991524109632383  0.22767198056452284  1.0000
  O   O15       1.0  0.0572437721991363  0.3913275950509672  0.7263066749463717  1.0000
  O   O16       1.0  0.9427556200371823  0.6086729149557469  0.2736931639324424  1.0000
  O   O17       1.0  0.024173451105824  0.20123713423797082  0.8369255618473658  1.0000
  O   O18       1.0  0.9758252729304646  0.7987622689916521  0.16307363327499763  1.0000
