data_image0
_chemical_formula_structural       Sr2H36C44O12
_chemical_formula_sum              "Sr2 H36 C44 O12"
_cell_length_a       7.917300356120523
_cell_length_b       11.263120471600889
_cell_length_c       11.968169022928722
_cell_angle_alpha    118.06349496363892
_cell_angle_beta     94.31488107691138
_cell_angle_gamma    89.9977221630606

_space_group_name_H-M_alt    "P 1"
_space_group_IT_number       1

loop_
  _space_group_symop_operation_xyz
  'x, y, z'

loop_
  _atom_site_type_symbol
  _atom_site_label
  _atom_site_symmetry_multiplicity
  _atom_site_fract_x
  _atom_site_fract_y
  _atom_site_fract_z
  _atom_site_occupancy
  Sr  Sr1       1.0  0.25005104456070626  0.44356263892741765  4.260617637193145e-05  1.0000
  Sr  Sr2       1.0  0.7499470325001028  0.5564384370852479  0.999957459395304  1.0000
  H   H1        1.0  0.5360295922939428  0.40164928883336865  0.17050328633944636  1.0000
  H   H2        1.0  0.9638295459940447  0.2312992508658951  0.8297478142463531  1.0000
  H   H3        1.0  0.4639671199715989  0.5983497717492695  0.8294958218391525  1.0000
  H   H4        1.0  0.036166050369366994  0.7687028293452727  0.17025341265258484  1.0000
  H   H5        1.0  0.3919939270269168  0.32314161889099313  0.19982544501382182  1.0000
  H   H6        1.0  0.10784808754943499  0.12343085302860855  0.8001984810487527  1.0000
  H   H7        1.0  0.6080028305821372  0.6768584484032658  0.8001732753784835  1.0000
  H   H8        1.0  0.8921475051180464  0.8765712269324835  0.199801910009377  1.0000
  H   H9        1.0  0.9466439687343635  0.7978465928347659  0.95769006840959  1.0000
  H   H10       1.0  0.5530957176258154  0.8401846385060733  0.04207652014653709  1.0000
  H   H11       1.0  0.0533477710486068  0.20215447539466422  0.0423088549011084  1.0000
  H   H12       1.0  0.4469073282216342  0.15981442960971745  0.957922894452224  1.0000
  H   H13       1.0  0.8554593473078639  0.9633929082189069  0.8828949004185417  1.0000
  H   H14       1.0  0.6442876845701091  0.0805369205535698  0.11680222690193888  1.0000
  H   H15       1.0  0.14453973648839016  0.036603133491603  0.11709964280131399  1.0000
  H   H16       1.0  0.35572307074230025  0.9194641712756351  0.8832009590324856  1.0000
  H   H17       1.0  0.9275873375895356  0.9285327585501759  0.6711072831993901  1.0000
  H   H18       1.0  0.5724963244234117  0.25740677855332444  0.3287507451622459  1.0000
  H   H19       1.0  0.0724145812679851  0.07146932844392502  0.3288917425972784  1.0000
  H   H20       1.0  0.4275055148348911  0.7425932957677684  0.6712515637294343  1.0000
  H   H21       1.0  0.05364624669827829  0.7958551573491873  0.47254973888989577  1.0000
  H   H22       1.0  0.44653184599224  0.3233281986594534  0.5274219231062318  1.0000
  H   H23       1.0  0.9463555777762948  0.20414491597159673  0.5274492266385379  1.0000
  H   H24       1.0  0.553464866273309  0.6766708619231848  0.4725771850723674  1.0000
  H   H25       1.0  0.21771070478158086  0.5998839858781436  0.33412148680910286  1.0000
  H   H26       1.0  0.28234205246802446  0.26575667410429554  0.665770794562597  1.0000
  H   H27       1.0  0.7822884391419076  0.4001130635442962  0.6658760119877056  1.0000
  H   H28       1.0  0.7176661583238226  0.7342444139614129  0.3342297612813282  1.0000
  H   H29       1.0  0.31194697597693016  0.43556142967589306  0.40879721139265957  1.0000
  H   H30       1.0  0.18803413221255025  0.026815478129748285  0.5910915349914132  1.0000
  H   H31       1.0  0.6880509687492875  0.5644366264519931  0.5912048533786916  1.0000
  H   H32       1.0  0.8119640049754933  0.97318660559484  0.4089114861572085  1.0000
  H   H33       1.0  0.24803116020253663  0.46774771479710603  0.6189963358265017  1.0000
  H   H34       1.0  0.2516377418631349  0.848858021901357  0.38083032528153626  1.0000
  H   H35       1.0  0.7519682927413242  0.5322553773958061  0.38100719466067534  1.0000
  H   H36       1.0  0.7483540543511394  0.15114405378992046  0.6191707177653071  1.0000
  C   C1        1.0  0.1256144268740016  0.5813850031532581  0.8442165604676217  1.0000
  C   C2        1.0  0.3743760385975178  0.7372910786405596  0.15575729348838507  1.0000
  C   C3        1.0  0.8743847623929922  0.41861305298079543  0.1557805505428931  1.0000
  C   C4        1.0  0.6256207532672416  0.2627099946150864  0.8442385315952021  1.0000
  C   C5        1.0  0.07451612012970797  0.6752426067323894  0.7924713074410972  1.0000
  C   C6        1.0  0.4252288052560473  0.8828878941607952  0.20732426664127238  1.0000
  C   C7        1.0  0.9254793818507634  0.32475745980546816  0.20752985918961284  1.0000
  C   C8        1.0  0.5747679976965044  0.1171131798450773  0.7926740659647463  1.0000
  C   C9        1.0  0.9800288477211364  0.7845029568419976  0.865759452427113  1.0000
  C   C10       1.0  0.5196618337934921  0.9188123534283362  0.1339535033583416  1.0000
  C   C11       1.0  0.0199665071410138  0.2154940888107717  0.1342403700400325  1.0000
  C   C12       1.0  0.4803375590231339  0.08118973105265326  0.8660470715518827  1.0000
  C   C13       1.0  0.9294095689634219  0.8780226771819744  0.8237069885227299  1.0000
  C   C14       1.0  0.5702893615442618  0.0543597388225834  0.17598518140299285  1.0000
  C   C15       1.0  0.07058693605656428  0.12197235480365977  0.17628781991535183  1.0000
  C   C16       1.0  0.42971115087042466  0.9456393262799524  0.8240141106277007  1.0000
  C   C17       1.0  0.9703593221101555  0.8594040322851839  0.7065885106202145  1.0000
  C   C18       1.0  0.5295738218115531  0.15281472956891656  0.2932089028893827  1.0000
  C   C19       1.0  0.029639776469828395  0.14059201042563527  0.2934093759628879  1.0000
  C   C20       1.0  0.47043180650809535  0.8471853485218405  0.7067910823319608  1.0000
  C   C21       1.0  0.0630199682366879  0.7473832593783668  0.6274039313832558  1.0000
  C   C22       1.0  0.4369967353510587  0.12000913176127173  0.37245317153558216  1.0000
  C   C23       1.0  0.9369792774616169  0.252615804217541  0.3725952993634038  1.0000
  C   C24       1.0  0.563011226547651  0.8799869212458872  0.6275443081949276  1.0000
  C   C25       1.0  0.10042759686491105  0.725299647194376  0.5050645843648309  1.0000
  C   C26       1.0  0.3997727315089178  0.22025375149654994  0.494864848193238  1.0000
  C   C27       1.0  0.8995729081579069  0.2746994174080086  0.49493303598423916  1.0000
  C   C28       1.0  0.6002290587099424  0.779745315862847  0.5051370126439139  1.0000
  C   C29       1.0  0.1899378235191378  0.616119195797296  0.4280116371239017  1.0000
  C   C30       1.0  0.310239469374558  0.1881034759529285  0.5719212010086634  1.0000
  C   C31       1.0  0.8100627342390537  0.38388087601686033  0.5719872671205052  1.0000
  C   C32       1.0  0.6897687034656526  0.8118966059013176  0.4280814143031789  1.0000
  C   C33       1.0  0.24372313774849624  0.5233956686815588  0.47054964171380215  1.0000
  C   C34       1.0  0.2563302385498787  0.052860367137633105  0.5293512377904149  1.0000
  C   C35       1.0  0.7562736198605575  0.47660439861270015  0.5294490786785103  1.0000
  C   C36       1.0  0.7436754609848106  0.9471407194152802  0.4706542105303058  1.0000
  C   C37       1.0  0.20870440166135748  0.5409895344598822  0.5883230379596396  1.0000
  C   C38       1.0  0.29122093757299433  0.9527168279834793  0.4115345840175662  1.0000
  C   C39       1.0  0.7912949458117635  0.4590115433094865  0.41167792473687814  1.0000
  C   C40       1.0  0.7087848036092691  0.04728526503097189  0.5884696406760594  1.0000
  C   C41       1.0  0.11870039411319057  0.6536403479107236  0.6708347477031749  1.0000
  C   C42       1.0  0.3811723370159327  0.9828695528643079  0.32899346255015155  1.0000
  C   C43       1.0  0.8812975885646636  0.34635871442862504  0.32916525760026616  1.0000
  C   C44       1.0  0.6188307199193089  0.017129516001716596  0.6710084595710339  1.0000
  O   O1        1.0  0.2759824897038499  0.5386063070078464  0.8358152958280696  1.0000
  O   O2        1.0  0.224132184895545  0.7028374412784897  0.16431816676779215  1.0000
  O   O3        1.0  0.7240192931231489  0.4613927598513996  0.16418489332746586  1.0000
  O   O4        1.0  0.7758671514897768  0.29716363574064525  0.835680288406287  1.0000
  O   O5        1.0  0.016766304218883497  0.5478341002961001  0.8984663460704637  1.0000
  O   O6        1.0  0.48329859755028787  0.6495844056027876  0.10154361931279245  1.0000
  O   O7        1.0  0.9832330506460987  0.45216697797341954  0.10153628830767752  1.0000
  O   O8        1.0  0.5167010256798007  0.3504227126863668  0.8984558525067924  1.0000
  O   O9        1.0  0.4111635161638316  0.37808663976455387  0.1588745461448581  1.0000
  O   O10       1.0  0.08867114727949137  0.21932156210448991  0.8414897580545926  1.0000
  O   O11       1.0  0.5888332414452148  0.6219134275297049  0.8411241742474471  1.0000
  O   O12       1.0  0.9113244074363533  0.7806795116451468  0.15851269247144723  1.0000
