data_image0
_chemical_formula_structural       Zn2H30C46N4O10
_chemical_formula_sum              "Zn2 H30 C46 N4 O10"
_cell_length_a       11.897532928259384
_cell_length_b       14.652549921952318
_cell_length_c       15.74461032703675
_cell_angle_alpha    98.21674102870533
_cell_angle_beta     92.80878296687504
_cell_angle_gamma    107.07303583323367

_space_group_name_H-M_alt    "P 1"
_space_group_IT_number       1

loop_
  _space_group_symop_operation_xyz
  'x, y, z'

loop_
  _atom_site_type_symbol
  _atom_site_label
  _atom_site_symmetry_multiplicity
  _atom_site_fract_x
  _atom_site_fract_y
  _atom_site_fract_z
  _atom_site_occupancy
  Zn  Zn1       1.0  0.5430406940937758  0.5964475361466628  0.4835407616206454  1.0000
  Zn  Zn2       1.0  0.4755398306266798  0.40495535823098533  0.5174992091332982  1.0000
  H   H1        1.0  0.6438050323221631  0.7642385125922643  0.0557347924828591  1.0000
  H   H2        1.0  0.562605642923053  0.3678164803777122  0.8599306664031945  1.0000
  H   H3        1.0  0.3233253178100952  0.975274976299026  0.6772917032968239  1.0000
  H   H4        1.0  0.6656528476924422  0.0172528999148014  0.3104444051113475  1.0000
  H   H5        1.0  0.4715455181146098  0.7654744063085345  0.5372269514953062  1.0000
  H   H6        1.0  0.5270156510591163  0.230234550610227  0.4553880736584901  1.0000
  H   H7        1.0  0.6737330008154458  0.693842459824026  0.34893081841988766  1.0000
  H   H8        1.0  0.3436300482230763  0.3089506706548163  0.6536506392724848  1.0000
  H   H9        1.0  0.6885990944768707  0.897402005608356  0.8142955609150421  1.0000
  H   H10       1.0  0.8174889074847371  0.8659766261458725  0.8436144384711073  1.0000
  H   H11       1.0  0.8442443425148055  0.9832653409089287  0.9858708051063446  1.0000
  H   H12       1.0  0.5518191351377623  0.25083782645963737  0.9583553838893053  1.0000
  H   H13       1.0  0.8547500086178912  0.041349281607857294  0.8933239931569048  1.0000
  H   H14       1.0  0.7233721245294686  0.019335599360893203  0.9466568156425696  1.0000
  H   H15       1.0  0.4589272177918033  0.10272184994947507  0.17873499311637892  1.0000
  H   H16       1.0  0.6130387298825895  0.16110073449158335  0.2077271926591848  1.0000
  H   H17       1.0  0.6621944218637736  0.0626237998230437  0.08020036629641683  1.0000
  H   H18       1.0  0.570968613197337  0.9847704907463138  0.14345883780569582  1.0000
  H   H19       1.0  0.5093728666955711  0.006417722843359302  0.046061085552281604  1.0000
  H   H20       1.0  0.24591431767099436  0.19300800556293038  0.74053259969228  1.0000
  H   H21       1.0  0.24161237403600916  0.0749780724829066  0.7230321510467093  1.0000
  H   H22       1.0  0.7622757494375706  0.807594346545521  0.25747476245664563  1.0000
  H   H23       1.0  0.40167690258265765  0.8584665878103052  0.597877381163123  1.0000
  H   H24       1.0  0.7573679237759022  0.9230034125061053  0.27074765370149834  1.0000
  H   H25       1.0  0.5844010356850474  0.13309751821571328  0.38850485513732025  1.0000
  H   H26       1.0  0.5305177166358633  0.541696968159151  0.22164235782296526  1.0000
  H   H27       1.0  0.5277068073152832  0.4561055401241702  0.7821607730675454  1.0000
  H   H28       1.0  0.5094335355350025  0.2559507529838356  0.2618976280614618  1.0000
  H   H29       1.0  0.6388235590919038  0.7516091228439095  0.7476447882637842  1.0000
  H   H30       1.0  0.5972232865178952  0.6428300570493802  0.15111435438173262  1.0000
  C   C1        1.0  0.5475672913891003  0.569047438900668  0.6632453746602565  1.0000
  C   C2        1.0  0.5530746263009263  0.3244521683764034  0.9832270872782588  1.0000
  C   C3        1.0  0.34776660038922813  0.16064533996937772  0.6468556056748584  1.0000
  C   C4        1.0  0.6542000848021627  0.8366447334276613  0.3476661972083336  1.0000
  C   C5        1.0  0.37323976310911877  0.25076311096962195  0.6204365756542318  1.0000
  C   C6        1.0  0.6361735582733913  0.7491317273467498  0.3779548035030587  1.0000
  C   C7        1.0  0.47745316641428553  0.2062060290845763  0.5085214918419823  1.0000
  C   C8        1.0  0.5229423073690285  0.790140000318793  0.48510553634725545  1.0000
  C   C9        1.0  0.4580107990740457  0.1128593160075937  0.5293275318785717  1.0000
  C   C10       1.0  0.5364577410724394  0.8815491955600264  0.4613101344104251  1.0000
  C   C11       1.0  0.3917429304868064  0.08895973530496086  0.6004761158226017  1.0000
  C   C12       1.0  0.4982934123684118  0.42853295490116494  0.3400620629214118  1.0000
  C   C13       1.0  0.6033801378708502  0.905763137999379  0.39049940583306864  1.0000
  C   C14       1.0  0.5048016315348178  0.042471502801888106  0.48167356751840634  1.0000
  C   C15       1.0  0.4858723941905864  0.9505677121376764  0.5070325037914359  1.0000
  C   C16       1.0  0.2900119554673566  0.498266695740618  0.49894693587246763  1.0000
  C   C17       1.0  0.7319284263459946  0.508363965486808  0.5017677735389229  1.0000
  C   C18       1.0  0.41826335162504347  0.9290622683631753  0.5780895818374603  1.0000
  C   C19       1.0  0.5704997374625832  0.0633621451988233  0.40959873546990627  1.0000
  C   C20       1.0  0.37303017784124387  0.9953266265616703  0.6229019429368421  1.0000
  C   C21       1.0  0.6173373872533005  0.9977329637880388  0.3655843498994358  1.0000
  C   C22       1.0  0.1687168621980675  0.49868390523047873  0.4994030499703897  1.0000
  C   C23       1.0  0.6133307676234309  0.6597307307567418  0.9380367926161101  1.0000
  C   C24       1.0  0.8527570429272798  0.5067992692842863  0.5010342816823014  1.0000
  C   C25       1.0  0.06675756369411803  0.5010871848131088  0.4998486229218885  1.0000
  C   C26       1.0  0.9544832068348228  0.5038495175279251  0.5003900075922942  1.0000
  C   C27       1.0  0.5769691842084939  0.6008672818203349  0.7583626075630009  1.0000
  C   C28       1.0  0.5170194535012058  0.4012412703844887  0.24780324376185803  1.0000
  C   C29       1.0  0.6389134702926142  0.7294353231107634  0.8811155563187756  1.0000
  C   C30       1.0  0.5367792091563857  0.2821299207274777  0.1310813901165133  1.0000
  C   C31       1.0  0.6215392470487939  0.7003908287769249  0.7926311702191884  1.0000
  C   C32       1.0  0.5205727763289544  0.30687311984981136  0.21678773643171212  1.0000
  C   C33       1.0  0.5598225514659063  0.5318280574150194  0.8119499163948164  1.0000
  C   C34       1.0  0.5468904713133682  0.35038645153292686  0.07307221434094663  1.0000
  C   C35       1.0  0.5337672673287699  0.4702060145204356  0.19422005783169285  1.0000
  C   C36       1.0  0.5803504352977596  0.5592895008838424  0.9022376695324681  1.0000
  C   C37       1.0  0.5501833429755222  0.44712175349840777  0.10659365951073604  1.0000
  C   C38       1.0  0.7461583322381742  0.8925029240446987  0.8694639322678058  1.0000
  C   C39       1.0  0.7947520063921656  0.9897721827234419  0.9274631088296489  1.0000
  C   C40       1.0  0.5455915009297313  0.12543352966016388  0.15283339542262556  1.0000
  C   C41       1.0  0.5737406709862468  0.04004180298499449  0.10249034793540801  1.0000
  C   C42       1.0  0.5678769279225405  0.48877504894540635  0.9597356277997022  1.0000
  C   C43       1.0  0.5694151863871681  0.5184566292290853  0.04959726337114742  1.0000
  C   C44       1.0  0.594489516134672  0.6191236270045195  0.08203071900673824  1.0000
  C   C45       1.0  0.5591469232115786  0.3903706975691676  0.928511880475398  1.0000
  C   C46       1.0  0.6200365243339192  0.687540446503199  0.028951482024041294  1.0000
  N   N1        1.0  0.4363758140282457  0.2716465350107384  0.5531224849282452  1.0000
  N   N2        1.0  0.5719526222208985  0.7276012957677481  0.4446534212254606  1.0000
  N   N3        1.0  0.2868732619483154  0.14396857262406124  0.7182149020704003  1.0000
  N   N4        1.0  0.7154894579141525  0.8534866731193204  0.27632521513167774  1.0000
  O   O1        1.0  0.5849626818590962  0.6316662142279482  0.6143673868441868  1.0000
  O   O2        1.0  0.5444910349437322  0.19333693034904795  0.09563479108464891  1.0000
  O   O3        1.0  0.4914652764571414  0.36541728206012886  0.3893831812240691  1.0000
  O   O4        1.0  0.4862144562877332  0.48102464128406547  0.6381787774273777  1.0000
  O   O5        1.0  0.4918475954029873  0.5135954339952632  0.36345750896634854  1.0000
  O   O6        1.0  0.3671142877425452  0.5806833239950249  0.5039977890130345  1.0000
  O   O7        1.0  0.6616285743000674  0.44109979287139106  0.5334034015679381  1.0000
  O   O8        1.0  0.3077178770153282  0.4162078750313754  0.49376459554056856  1.0000
  O   O9        1.0  0.7078523184966201  0.5767142717626043  0.47040761414984905  1.0000
  O   O10       1.0  0.6807839738487546  0.824495480084195  0.9202019097150753  1.0000
