data_image0
_chemical_formula_structural       Al4H52C72N8O28
_chemical_formula_sum              "Al4 H52 C72 N8 O28"
_cell_length_a       6.75502215353942
_cell_length_b       23.6536014925407
_cell_length_c       27.784252373079166
_cell_angle_alpha    94.53176901190035
_cell_angle_beta     90.0011883523905
_cell_angle_gamma    89.99911170450264

_space_group_name_H-M_alt    "P 1"
_space_group_IT_number       1

loop_
  _space_group_symop_operation_xyz
  'x, y, z'

loop_
  _atom_site_type_symbol
  _atom_site_label
  _atom_site_symmetry_multiplicity
  _atom_site_fract_x
  _atom_site_fract_y
  _atom_site_fract_z
  _atom_site_occupancy
  Al  Al1       1.0  0.7531239376397921  0.24810279693257092  0.7480185522634246  1.0000
  Al  Al2       1.0  0.2579897431052913  0.7511131443525798  0.2511423392523469  1.0000
  Al  Al3       1.0  0.2531315655385384  0.25189260227084287  0.7519857180872621  1.0000
  Al  Al4       1.0  0.7579969488636562  0.7488808276776525  0.24886402773663013  1.0000
  H   H1        1.0  0.2970083219208348  0.6077677898174443  0.445701543421734  1.0000
  H   H2        1.0  0.7182563765382283  0.3944405222573621  0.5561056222410556  1.0000
  H   H3        1.0  0.7969633104148032  0.8922528760049674  0.054320882161945895  1.0000
  H   H4        1.0  0.21822585382734871  0.10556279738767668  0.9438912541739484  1.0000
  H   H5        1.0  0.6763449699247629  0.5711839663967737  0.0634778384190682  1.0000
  H   H6        1.0  0.30066962732394853  0.43422438952481457  0.939363581499066  1.0000
  H   H7        1.0  0.17634543974615008  0.9288070573105429  0.4365111673053619  1.0000
  H   H8        1.0  0.800648479363325  0.06578483570802261  0.560623578249789  1.0000
  H   H9        1.0  0.7000838765328224  0.6424223861164435  0.1323720588844637  1.0000
  H   H10       1.0  0.2994604435249499  0.36599854264277804  0.868084949531422  1.0000
  H   H11       1.0  0.20013413421782641  0.8575755249665701  0.3676148907143856  1.0000
  H   H12       1.0  0.7994653694602222  0.1340063581916624  0.6319101504702689  1.0000
  H   H13       1.0  0.41286747458769923  0.5435041729815566  0.1639903753796617  1.0000
  H   H14       1.0  0.30591036218202566  0.597033341609766  0.20593918759401222  1.0000
  H   H15       1.0  0.5638184600992276  0.600056337943002  0.19003525960202694  1.0000
  H   H16       1.0  0.5539477160810621  0.3094644038908498  0.9275653995513695  1.0000
  H   H17       1.0  0.7025961107156818  0.2731514139978302  0.8808378268212778  1.0000
  H   H18       1.0  0.44623789415243215  0.28629126585693854  0.8701006831942238  1.0000
  H   H19       1.0  0.9128606133379975  0.9564941430688306  0.3359885713430231  1.0000
  H   H20       1.0  0.805916133589932  0.9029524550306431  0.29405441657518594  1.0000
  H   H21       1.0  0.0638304965947825  0.8999400969631423  0.309956450915216  1.0000
  H   H22       1.0  0.053943438043518206  0.190531415324358  0.572429246327097  1.0000
  H   H23       1.0  0.20258644453967634  0.22684657490210466  0.6191600606478218  1.0000
  H   H24       1.0  0.9462117529212791  0.2137058863487695  0.6298954888619619  1.0000
  H   H25       1.0  0.4211697875121985  0.6385127701732997  0.021852465063609803  1.0000
  H   H26       1.0  0.27443797606429143  0.5897916268426471  0.9836069090337105  1.0000
  H   H27       1.0  0.5309708991545676  0.5750570156038891  0.9938510681389944  1.0000
  H   H28       1.0  0.5615793895592844  0.48445412803062743  0.8702588939132668  1.0000
  H   H29       1.0  0.6972909347446502  0.5292477031190684  0.9142553265418273  1.0000
  H   H30       1.0  0.4401674858138093  0.514326314635511  0.9237791196577945  1.0000
  H   H31       1.0  0.9212081351226048  0.8614979908286815  0.4781424011559921  1.0000
  H   H32       1.0  0.7744746632942993  0.9102108631706473  0.5163909104179966  1.0000
  H   H33       1.0  0.030991449467187206  0.9249556108523437  0.506148461937066  1.0000
  H   H34       1.0  0.0615848454814198  0.015546124263188705  0.6297383135283567  1.0000
  H   H35       1.0  0.1972920847226973  0.9707547282941462  0.5857381498366081  1.0000
  H   H36       1.0  0.9401459914842435  0.9856697195170553  0.5762209454225058  1.0000
  H   H37       1.0  0.29984607916050987  0.6715827278326002  0.377773141045175  1.0000
  H   H38       1.0  0.7136318027257645  0.3315094707011923  0.6246422482242905  1.0000
  H   H39       1.0  0.7998235357627125  0.8284302497967032  0.12223955408629912  1.0000
  H   H40       1.0  0.21360841493225283  0.1684855822119999  0.8753473895853503  1.0000
  H   H41       1.0  0.7102842817439238  0.5515005229049805  0.40412772172670935  1.0000
  H   H42       1.0  0.3019101165509142  0.4522292219349424  0.598829603449694  1.0000
  H   H43       1.0  0.2102001319380378  0.94849895331798  0.0958628863583826  1.0000
  H   H44       1.0  0.8018876282272489  0.0477741291698308  0.9011897005523366  1.0000
  H   H45       1.0  0.7095188078326872  0.6186977109447723  0.33866119900161357  1.0000
  H   H46       1.0  0.30103829660004067  0.38599170327511706  0.6650545079225267  1.0000
  H   H47       1.0  0.2094200894059597  0.881289052258829  0.1613290518875345  1.0000
  H   H48       1.0  0.8010570109823122  0.11399873269652258  0.8349532456134128  1.0000
  H   H49       1.0  0.5161543083988533  0.3195903502302997  0.7752667663651208  1.0000
  H   H50       1.0  0.5010484288240563  0.6791935725968586  0.22961583272245178  1.0000
  H   H51       1.0  0.016130876412013603  0.18040109036486027  0.7247334772203474  1.0000
  H   H52       1.0  0.0010435745914279002  0.8208060087603144  0.2703748516342799  1.0000
  C   C1        1.0  0.5032890392800909  0.182154797472883  0.8105385195689437  1.0000
  C   C2        1.0  0.5073494286502652  0.813719802620838  0.1862586677263778  1.0000
  C   C3        1.0  0.003280463441058101  0.3178435777482775  0.6894584084081146  1.0000
  C   C4        1.0  0.007374658244430101  0.686281950745098  0.3137464883306151  1.0000
  C   C5        1.0  0.4962471982396295  0.18370587911690714  0.6791485723201164  1.0000
  C   C6        1.0  0.5128233128636523  0.8208843428871615  0.3176015253968885  1.0000
  C   C7        1.0  0.996265777431745  0.31628971704910214  0.8208514521164505  1.0000
  C   C8        1.0  0.012788969701887302  0.6791067350464245  0.1824072738839959  1.0000
  C   C9        1.0  0.8209960664980473  0.584878577338479  0.0768861023411347  1.0000
  C   C10       1.0  0.1609895052479686  0.42081622280836223  0.9227835641244371  1.0000
  C   C11       1.0  0.32100205455262915  0.9151214299832943  0.42310648275896773  1.0000
  C   C12       1.0  0.6609660834835368  0.07919184427186822  0.5772115895889912  1.0000
  C   C13       1.0  0.8340522158426111  0.6231193767436808  0.11704297586017282  1.0000
  C   C14       1.0  0.16000892235793882  0.38056549626583086  0.8838768430016161  1.0000
  C   C15       1.0  0.3340775739705393  0.8768747605193069  0.3829507588243358  1.0000
  C   C16       1.0  0.6599984864594505  0.1194341198670585  0.6161183110678152  1.0000
  C   C17       1.0  0.016142777100576204  0.637766714522769  0.1389691262450725  1.0000
  C   C18       1.0  0.9833309151003037  0.35816943789499334  0.863795317717674  1.0000
  C   C19       1.0  0.5161771068178852  0.8622331940304875  0.36103029621826727  1.0000
  C   C20       1.0  0.48332870343865864  0.1418275127848432  0.6362050047592832  1.0000
  C   C21       1.0  0.19110270233175436  0.614232674131074  0.1177172305868552  1.0000
  C   C22       1.0  0.801673776659328  0.37867420752283454  0.8837542265245448  1.0000
  C   C23       1.0  0.6911109264410626  0.8857768224369948  0.3822801396525008  1.0000
  C   C24       1.0  0.3016754122614956  0.12132119782430809  0.6162434172443484  1.0000
  C   C25       1.0  0.17968506426998226  0.5802487021937354  0.0738709860412357  1.0000
  C   C26       1.0  0.8023580181881371  0.424109289316263  0.919653070005083  1.0000
  C   C27       1.0  0.6796833397026775  0.9197614325081886  0.42612813416494794  1.0000
  C   C28       1.0  0.3023338751661839  0.07589042546194948  0.5803409637733593  1.0000
  C   C29       1.0  0.994127606341877  0.5631220004420001  0.0540101544232598  1.0000
  C   C30       1.0  0.9816723526669621  0.444623410050319  0.940655236391315  1.0000
  C   C31       1.0  0.49412252499605813  0.9368821233064749  0.445985066799203  1.0000
  C   C32       1.0  0.48163716542926954  0.05538338907556551  0.5593418225607252  1.0000
  C   C33       1.0  0.9859048997668298  0.5236042973410946  0.0130932908774568  1.0000
  C   C34       1.0  0.9805033308762319  0.4875764671427518  0.9790696520912335  1.0000
  C   C35       1.0  0.4858908071951761  0.9764017030987803  0.4868990011077585  1.0000
  C   C36       1.0  0.4804938333131973  0.012435528126999901  0.5209241486101348  1.0000
  C   C37       1.0  0.17108951834714503  0.6455128094342015  0.38437277233853  1.0000
  C   C38       1.0  0.8423306310024828  0.35766474522164055  0.6181505242610186  1.0000
  C   C39       1.0  0.671102036486893  0.8544918640541964  0.11563533641486858  1.0000
  C   C40       1.0  0.3423151085522207  0.1423310868824359  0.8818491202178153  1.0000
  C   C41       1.0  0.16976859108834927  0.6098963028039606  0.4218241864597659  1.0000
  C   C42       1.0  0.8444287566546295  0.392834675760085  0.5803906680428172  1.0000
  C   C43       1.0  0.6697656817005964  0.8901055520781899  0.07818536184105082  1.0000
  C   C44       1.0  0.34440497795622343  0.10716632219639173  0.9196100666258005  1.0000
  C   C45       1.0  0.0037762752924735002  0.5755206458256764  0.4289645061338448  1.0000
  C   C46       1.0  0.0097315374137779  0.4275714977323873  0.5735571572897982  1.0000
  C   C47       1.0  0.503773889992445  0.9244777401405668  0.0710406346690959  1.0000
  C   C48       1.0  0.5096950665842428  0.07242732425653743  0.9264538828938671  1.0000
  C   C49       1.0  0.8377114839185894  0.5784684420109443  0.3986302435551536  1.0000
  C   C50       1.0  0.17478639297982576  0.4251357834686047  0.6042643319731978  1.0000
  C   C51       1.0  0.3376795700039353  0.9215278956510745  0.10136459048499799  1.0000
  C   C52       1.0  0.6747634809569406  0.07485967968402461  0.8957503931757815  1.0000
  C   C53       1.0  0.8376985938022231  0.6153472453255661  0.3620944555907641  1.0000
  C   C54       1.0  0.17404873277338603  0.3887203797235799  0.6411482692003929  1.0000
  C   C55       1.0  0.3376791368670595  0.8846445435794764  0.1379014643272569  1.0000
  C   C56       1.0  0.6740518488056039  0.11127349719363618  0.8588585099789796  1.0000
  C   C57       1.0  0.0050739106680595  0.6485349435616286  0.35437943176739856  1.0000
  C   C58       1.0  0.006923916830274401  0.35541797052143653  0.648742887363028  1.0000
  C   C59       1.0  0.5050817233285657  0.8514657369591134  0.1456231864814086  1.0000
  C   C60       1.0  0.5069216538827419  0.14458010240217334  0.8512555025640722  1.0000
  C   C61       1.0  0.0084216877504417  0.4667829623090824  0.5350236458036406  1.0000
  C   C62       1.0  0.004883313238344999  0.5363944720146918  0.46756006939249056  1.0000
  C   C63       1.0  0.5084216528027242  0.0332246749618506  0.9649866607717712  1.0000
  C   C64       1.0  0.5048578144953099  0.9636074604849227  0.0324468798908057  1.0000
  C   C65       1.0  0.41475873354931275  0.5887691276922382  0.176768529832529  1.0000
  C   C66       1.0  0.5800038829154205  0.302979026525982  0.8883937872464999  1.0000
  C   C67       1.0  0.9147680102354342  0.9112289432375249  0.32322595197037174  1.0000
  C   C68       1.0  0.0799877667270863  0.19701491125477597  0.6116045957841152  1.0000
  C   C69       1.0  0.39572127638798094  0.5935376698570282  0.0100969778860147  1.0000
  C   C70       1.0  0.5797730814717  0.49706910200682586  0.9090102850657473  1.0000
  C   C71       1.0  0.8957508178706635  0.9064697278024737  0.4899013784857686  1.0000
  C   C72       1.0  0.079759650056225  0.002932666038184097  0.590985925797021  1.0000
  N   N1        1.0  0.8542376231575162  0.49862740280548923  0.46888232356355536  1.0000
  N   N2        1.0  0.15838756706056503  0.5047545653961193  0.5338870953999972  1.0000
  N   N3        1.0  0.354220694282624  0.0013801050145829997  0.031121660160970104  1.0000
  N   N4        1.0  0.6583615115134479  0.9952592341160764  0.9661311003666243  1.0000
  N   N5        1.0  0.8560105478430841  0.463307033934761  0.5031525862405033  1.0000
  N   N6        1.0  0.15655394629573746  0.5401353181540999  0.49964315427509837  1.0000
  N   N7        1.0  0.3559955754687323  0.03670524640016741  0.9968518081074791  1.0000
  N   N8        1.0  0.6565229742950934  0.9598773109776529  0.00037246202910520045  1.0000
  O   O1        1.0  0.335941656343998  0.20129047126344798  0.699043561716536  1.0000
  O   O2        1.0  0.6765293452506781  0.803599622696879  0.2992567780485089  1.0000
  O   O3        1.0  0.8359254424331511  0.29870755140449756  0.800952078988658  1.0000
  O   O4        1.0  0.17650599502511002  0.6963670318436073  0.2007654610262719  1.0000
  O   O5        1.0  0.6696989494860189  0.19367822910434276  0.7919935234903762  1.0000
  O   O6        1.0  0.33999797475716065  0.8016400612470564  0.2039327438931409  1.0000
  O   O7        1.0  0.16964518388236632  0.3063132985265611  0.7080060147200768  1.0000
  O   O8        1.0  0.8400459139198445  0.6983420797558464  0.2960595823633129  1.0000
  O   O9        1.0  0.669385285247884  0.19836285678625387  0.6940446400541874  1.0000
  O   O10       1.0  0.3421944591366142  0.8051957155493031  0.30179691796240593  1.0000
  O   O11       1.0  0.16937261756098823  0.3016384118775903  0.8059595847754012  1.0000
  O   O12       1.0  0.8421588154546312  0.6948070465100855  0.1981990170054715  1.0000
  O   O13       1.0  0.8337791050717912  0.3006787533744131  0.7021758056562604  1.0000
  O   O14       1.0  0.17670691596240568  0.7022741821084111  0.2998493483371618  1.0000
  O   O15       1.0  0.3337948919429082  0.1993174514197378  0.7978274081664198  1.0000
  O   O16       1.0  0.6766600279964267  0.7977335460309333  0.20016456252554343  1.0000
  O   O17       1.0  0.5054985659650271  0.2849375704878341  0.7541918444100518  1.0000
  O   O18       1.0  0.5066855484883562  0.7154183419593352  0.24850211181867368  1.0000
  O   O19       1.0  0.0055031949997399  0.21505541816924995  0.7458108744874749  1.0000
  O   O20       1.0  0.006678069475874801  0.7845738600508979  0.2515048519901697  1.0000
  O   O21       1.0  0.3757866255410391  0.6233234562358732  0.1374357822791197  1.0000
  O   O22       1.0  0.6213575304894334  0.3568527340358472  0.8691577690572457  1.0000
  O   O23       1.0  0.8757995892896843  0.8766852397137442  0.3625664490467956  1.0000
  O   O24       1.0  0.12137255982810301  0.1431422364377397  0.6308400903369602  1.0000
  O   O25       1.0  0.3512487946885799  0.5618472506026819  0.05105405168299631  1.0000
  O   O26       1.0  0.626209082565289  0.44844728823844093  0.9351371926284671  1.0000
  O   O27       1.0  0.8512317336540179  0.9381633374090795  0.448949143535657  1.0000
  O   O28       1.0  0.1261923303468251  0.0515515858204694  0.564857438125273  1.0000
