data_image0
_chemical_formula_structural       La8H96C204O48F72
_chemical_formula_sum              "La8 H96 C204 O48 F72"
_cell_length_a       7.66837541500328
_cell_length_b       21.358139635001212
_cell_length_c       36.8932975460169
_cell_angle_alpha    90.00003495728967
_cell_angle_beta     89.99989567208704
_cell_angle_gamma    90.00001651678534

_space_group_name_H-M_alt    "P 1"
_space_group_IT_number       1

loop_
  _space_group_symop_operation_xyz
  'x, y, z'

loop_
  _atom_site_type_symbol
  _atom_site_label
  _atom_site_symmetry_multiplicity
  _atom_site_fract_x
  _atom_site_fract_y
  _atom_site_fract_z
  _atom_site_occupancy
  La  La1       1.0  0.7003804509106787  0.5004534459638917  0.33752467742310444  1.0000
  La  La2       1.0  0.7996190876204353  0.5004536224337741  0.6624750099296222  1.0000
  La  La3       1.0  0.7996211305251607  0.9995463408566607  0.8375247799460938  1.0000
  La  La4       1.0  0.7003788059312086  0.9995469162420607  0.1624753546744273  1.0000
  La  La5       1.0  0.2996200923605413  0.4995466821838833  0.6624751047052655  1.0000
  La  La6       1.0  0.2003801515937909  0.49954697391950736  0.33752477219908167  1.0000
  La  La7       1.0  0.2003807168034299  0.0004542554967628001  0.16247500218211286  1.0000
  La  La8       1.0  0.2996204332814615  0.0004527437002153  0.8375246985060514  1.0000
  H   H1        1.0  0.21066787647988153  0.33920434774169195  0.3188020999978249  1.0000
  H   H2        1.0  0.28933223963207416  0.3392036064678052  0.6811979913458686  1.0000
  H   H3        1.0  0.28933287186543316  0.16079675475494787  0.8188012736684129  1.0000
  H   H4        1.0  0.2106657979482947  0.1607950099244988  0.18119794152877944  1.0000
  H   H5        1.0  0.7893339708469611  0.6607948439951487  0.681197953182071  1.0000
  H   H6        1.0  0.7106656955232397  0.6607955852688364  0.3188020618347664  1.0000
  H   H7        1.0  0.7106637592330713  0.8392033733927705  0.1811987795126413  1.0000
  H   H8        1.0  0.7893347453219945  0.8392027771954177  0.8188018405991713  1.0000
  H   H9        1.0  0.7436762081039845  0.279238507410696  0.3734821099157202  1.0000
  H   H10       1.0  0.7563231540475571  0.27923770504744994  0.6265185835397772  1.0000
  H   H11       1.0  0.7563233566831684  0.22076130023031476  0.8734821304491192  1.0000
  H   H12       1.0  0.7436798710201701  0.2207618422183231  0.1265177292033783  1.0000
  H   H13       1.0  0.2563217270518905  0.7207620889426564  0.6265179432651706  1.0000
  H   H14       1.0  0.2436734770497608  0.7207624231004104  0.3734817406932223  1.0000
  H   H15       1.0  0.2436758825279455  0.7792374233009626  0.1265181937831343  1.0000
  H   H16       1.0  0.25632588848156956  0.7792368813127196  0.8734815108198647  1.0000
  H   H17       1.0  0.8745304325492003  0.1755838928570199  0.3843986837937123  1.0000
  H   H18       1.0  0.6254727591336932  0.1755830653461601  0.615601159907655  1.0000
  H   H19       1.0  0.6254703409841652  0.32441592629335503  0.8843985195635823  1.0000
  H   H20       1.0  0.8745303612499243  0.3244169386153145  0.1156011056351005  1.0000
  H   H21       1.0  0.12547011072202002  0.8244162352907551  0.6156010983346576  1.0000
  H   H22       1.0  0.3745290881957075  0.8244165945959668  0.3843983511684357  1.0000
  H   H23       1.0  0.3745302022854986  0.6755832654434144  0.11560153361656231  1.0000
  H   H24       1.0  0.12547018202111096  0.6755827213268902  0.8843986764931842  1.0000
  H   H25       1.0  0.5416673392406538  0.0805311033826115  0.3506644184892593  1.0000
  H   H26       1.0  0.9583344725972225  0.08053034613000422  0.6493359337557649  1.0000
  H   H27       1.0  0.9583337288263252  0.4194705530236718  0.8506638903652757  1.0000
  H   H28       1.0  0.541668353254515  0.4194692251921452  0.1493349552380607  1.0000
  H   H29       1.0  0.4583332040266441  0.9194680883544494  0.6493361767947688  1.0000
  H   H30       1.0  0.0416660706730028  0.9194702502234904  0.3506641194246285  1.0000
  H   H31       1.0  0.0416668144440848  0.5805305115354003  0.149336162815203  1.0000
  H   H32       1.0  0.4583321900187017  0.5805299665441978  0.8506642847862551  1.0000
  H   H33       1.0  0.6633426377539919  0.04735075439265302  0.2918412388660983  1.0000
  H   H34       1.0  0.8366578435722616  0.047350514681824094  0.7081591016642079  1.0000
  H   H35       1.0  0.8366576398358563  0.45264990358487717  0.7918407686625812  1.0000
  H   H36       1.0  0.6633418605856464  0.4526514596855904  0.20815808865645377  1.0000
  H   H37       1.0  0.336660513627848  0.95264890555012  0.7081593564175179  1.0000
  H   H38       1.0  0.16334269969796372  0.9526500816716705  0.2918409515161855  1.0000
  H   H39       1.0  0.1633415993781924  0.547350224562827  0.2081590134660303  1.0000
  H   H40       1.0  0.3366560745749537  0.5473491366671939  0.7918408803166627  1.0000
  H   H41       1.0  0.19098991234398707  0.10398531571239998  0.23806761454220293  1.0000
  H   H42       1.0  0.30900871216967113  0.10398747084180122  0.761932935856855  1.0000
  H   H43       1.0  0.3090089327726774  0.39601429704866575  0.7380668637896193  1.0000
  H   H44       1.0  0.19099253269527594  0.39601544451986836  0.261932434456341  1.0000
  H   H45       1.0  0.8090132390392243  0.8960148124358014  0.7619327096895532  1.0000
  H   H46       1.0  0.6909918311007387  0.896013593717271  0.23806711732361666  1.0000
  H   H47       1.0  0.6909903064409948  0.6039848946878977  0.2619329183388288  1.0000
  H   H48       1.0  0.8090093146343095  0.6039846836278359  0.738067076619835  1.0000
  H   H49       1.0  0.0693719949601359  0.13935873939792032  0.2964923481847634  1.0000
  H   H50       1.0  0.43062796181468593  0.1393599091939279  0.703507943651303  1.0000
  H   H51       1.0  0.43062634005274  0.36064140316645427  0.7964920808632314  1.0000
  H   H52       1.0  0.0693764012660978  0.3606396671312737  0.203507746996678  1.0000
  H   H53       1.0  0.9306285483093433  0.8606399841332789  0.7035077049953031  1.0000
  H   H54       1.0  0.5693738855127108  0.8606406871596307  0.2964921095288418  1.0000
  H   H55       1.0  0.5693728991591273  0.6393591931871185  0.2035082433693489  1.0000
  H   H56       1.0  0.930625446061555  0.639358588194284  0.7964920351311093  1.0000
  H   H57       1.0  0.7681063467450147  0.6760614871625776  0.4254162697989869  1.0000
  H   H58       1.0  0.7318959399135354  0.676061095703787  0.5745832085034978  1.0000
  H   H59       1.0  0.7318931632594357  0.8239393287335661  0.9254163360387082  1.0000
  H   H60       1.0  0.7681053291284173  0.8239398185131109  0.0745837365801023  1.0000
  H   H61       1.0  0.2318941965277688  0.323939577396203  0.5745832412776011  1.0000
  H   H62       1.0  0.2681072114724117  0.32393996885527804  0.4254165736245383  1.0000
  H   H63       1.0  0.2681034678396302  0.17606220403087036  0.07458371714259471  1.0000
  H   H64       1.0  0.23189521414435887  0.1760612460456699  0.9254157744964858  1.0000
  H   H65       1.0  0.9147800111183174  0.7442547234702985  0.46982296493516884  1.0000
  H   H66       1.0  0.5852223299086177  0.74425520631803  0.530177079548487  1.0000
  H   H67       1.0  0.5852217192879153  0.7557466074499078  0.9698233338477705  1.0000
  H   H68       1.0  0.9147780227843825  0.7557461292865851  0.0301772567975647  1.0000
  H   H69       1.0  0.0852218362090866  0.2557458728832671  0.5301770882449759  1.0000
  H   H70       1.0  0.41477821336198434  0.2557463264466122  0.4698229736320699  1.0000
  H   H71       1.0  0.4147775199246979  0.24425586172595365  0.030176990385143702  1.0000
  H   H72       1.0  0.08521991237267203  0.24425446706663215  0.9698225253313808  1.0000
  H   H73       1.0  0.3625952140114919  0.621289864293999  0.4682327863195965  1.0000
  H   H74       1.0  0.1374025188931043  0.6212903542569352  0.5317674046213412  1.0000
  H   H75       1.0  0.13740202020076714  0.8787100082208852  0.9682320946236515  1.0000
  H   H76       1.0  0.3625946138912042  0.87871093091281  0.0317673740496573  1.0000
  H   H77       1.0  0.6374040251978244  0.3787102638542875  0.5317680800167963  1.0000
  H   H78       1.0  0.862596720320127  0.37871071030206577  0.4682326485593791  1.0000
  H   H79       1.0  0.8625946109022848  0.1212896517206943  0.0317668743495503  1.0000
  H   H80       1.0  0.637405929377465  0.1212887290296791  0.968232950182518  1.0000
  H   H81       1.0  0.2127800739650993  0.5532417717904536  0.4242820011743973  1.0000
  H   H82       1.0  0.28722412497409533  0.5532418554993725  0.5757173525835171  1.0000
  H   H83       1.0  0.2872175439768655  0.9467575861814553  0.9242815476647552  1.0000
  H   H84       1.0  0.21277784031513391  0.9467599442128999  0.0757174029308629  1.0000
  H   H85       1.0  0.787223077422226  0.4467597609740395  0.5757175099017857  1.0000
  H   H86       1.0  0.7127790264108569  0.4467596772654048  0.4242827005965424  1.0000
  H   H87       1.0  0.7127738708952975  0.053242541965701724  0.0757179634134033  1.0000
  H   H88       1.0  0.7872213989002786  0.05324065214023929  0.9242821081458885  1.0000
  H   H89       1.0  0.3412495582497499  0.23522854349851494  0.3284810506970857  1.0000
  H   H90       1.0  0.1587517790207471  0.23522777841039752  0.671518732883456  1.0000
  H   H91       1.0  0.1587524096460058  0.2647721009972344  0.8284803106659169  1.0000
  H   H92       1.0  0.3412515592970565  0.26477035957170614  0.1715186701891369  1.0000
  H   H93       1.0  0.6587496809635455  0.7647697118269082  0.671518731431199  1.0000
  H   H94       1.0  0.8412487642510982  0.7647709451205174  0.3284807781927199  1.0000
  H   H95       1.0  0.8412494376839491  0.7352289635616175  0.1715192004104296  1.0000
  H   H96       1.0  0.6587489839744125  0.7352274275480613  0.8284808408868685  1.0000
  C   C1        1.0  0.8850179345334511  0.37771336603104544  0.34005434848576505  1.0000
  C   C2        1.0  0.6149802020773834  0.3777130523851043  0.6599458376349077  1.0000
  C   C3        1.0  0.61498192211139  0.1222868745722181  0.8400538458201937  1.0000
  C   C4        1.0  0.8850160108528726  0.12228653012294194  0.1599451659087308  1.0000
  C   C5        1.0  0.11498391279594951  0.6222862939110883  0.6599451625903257  1.0000
  C   C6        1.0  0.3850151249625782  0.6222866075571146  0.34005448659825527  1.0000
  C   C7        1.0  0.38501601304429306  0.8777132535755714  0.1599462073606119  1.0000
  C   C8        1.0  0.1149845324199674  0.8777117252022609  0.8400540741154217  1.0000
  C   C9        1.0  0.9672034829944282  0.31551600830890436  0.3451498273858107  1.0000
  C   C10       1.0  0.5327985161976728  0.3155147443142353  0.6548503367737979  1.0000
  C   C11       1.0  0.5327963291603908  0.1844833012555682  0.8451496489416428  1.0000
  C   C12       1.0  0.9672003493340358  0.1844843646163028  0.1548499268514831  1.0000
  C   C13       1.0  0.03279966839233589  0.6844841198388709  0.6548496836901165  1.0000
  C   C14       1.0  0.46720202707317793  0.684484447422399  0.3451494453544086  1.0000
  C   C15       1.0  0.4672029100520945  0.8155158904811377  0.1548504042387506  1.0000
  C   C16       1.0  0.032798889879636306  0.8155148271202606  0.845149855276965  1.0000
  C   C17       1.0  0.13637175161646548  0.30303781175574335  0.33274556179465253  1.0000
  C   C18       1.0  0.3636283356623125  0.3030370635242292  0.6672539746757592  1.0000
  C   C19       1.0  0.3636275709320814  0.19696236903033795  0.8327447200212603  1.0000
  C   C20       1.0  0.13636982366282518  0.1969606017555634  0.1672536947894159  1.0000
  C   C21       1.0  0.8636287916551951  0.6969604435696014  0.667253949281438  1.0000
  C   C22       1.0  0.6363709035515442  0.6969625964179116  0.332745807452774  1.0000
  C   C23       1.0  0.6363703642259751  0.8030377591171672  0.1672547910556617  1.0000
  C   C24       1.0  0.8636281114952878  0.8030367171583565  0.8327455452350634  1.0000
  C   C25       1.0  0.8744184118123925  0.26891738534806814  0.3635594137237064  1.0000
  C   C26       1.0  0.6255822461718522  0.2689161116140042  0.6364401918795864  1.0000
  C   C27       1.0  0.6255812396101917  0.23108288003685828  0.8635592164978619  1.0000
  C   C28       1.0  0.874421996325715  0.231082509701352  0.1364398336429034  1.0000
  C   C29       1.0  0.1255795233480228  0.7310827427991456  0.6364395552493249  1.0000
  C   C30       1.0  0.37441699304300613  0.7310830801224171  0.3635593191969165  1.0000
  C   C31       1.0  0.3744179996014836  0.768917248111137  0.1364411077346404  1.0000
  C   C32       1.0  0.1255824591186538  0.7689157456240494  0.863559406380503  1.0000
  C   C33       1.0  0.9492086492370291  0.2104642677218251  0.3696342053605833  1.0000
  C   C34       1.0  0.5507906580820502  0.2104634479941652  0.6303661927607038  1.0000
  C   C35       1.0  0.5507948613193321  0.2895355358622993  0.8696337861212838  1.0000
  C   C36       1.0  0.9492071171610945  0.289534698711428  0.1303658267615333  1.0000
  C   C37       1.0  0.050793198089813495  0.7895349240150225  0.6303658478193199  1.0000
  C   C38       1.0  0.44920727707462765  0.7895362119479046  0.3696335893680782  1.0000
  C   C39       1.0  0.4492082900648739  0.7104641240801898  0.1303662670584487  1.0000
  C   C40       1.0  0.050790817996208715  0.7104635566137816  0.8696336843150548  1.0000
  C   C41       1.0  0.1176609909376793  0.19764006713981536  0.35709089019728424  1.0000
  C   C42       1.0  0.3823390123063817  0.1976392951910952  0.6429088801120599  1.0000
  C   C43       1.0  0.3823381190486188  0.30235967110867523  0.8570911627393514  1.0000
  C   C44       1.0  0.11766457580260693  0.30235881262741066  0.1429086445430556  1.0000
  C   C45       1.0  0.8823356401624451  0.8023581881853233  0.6429086208795525  1.0000
  C   C46       1.0  0.6176589228514827  0.8023603647508325  0.3570906309647768  1.0000
  C   C47       1.0  0.6176598161058847  0.6976404570392559  0.1429091614933995  1.0000
  C   C48       1.0  0.8823372715264172  0.6976399109035754  0.8570908665328716  1.0000
  C   C49       1.0  0.3438664758591017  0.14583362038993639  0.39479904236993246  1.0000
  C   C50       1.0  0.1561321820215298  0.1458332533152245  0.6052009807002676  1.0000
  C   C51       1.0  0.1561323049023144  0.3541666258197864  0.8947988769998076  1.0000
  C   C52       1.0  0.343866519084564  0.3541666875696451  0.10520067752315751  1.0000
  C   C53       1.0  0.6561353714681103  0.8541665077580521  0.6052010108101341  1.0000
  C   C54       1.0  0.8438670571925116  0.8541668748324868  0.3947988014283439  1.0000
  C   C55       1.0  0.8438682383675413  0.6458330341225604  0.1052011761804224  1.0000
  C   C56       1.0  0.6561301120149424  0.6458329723723609  0.8947991046058661  1.0000
  C   C57       1.0  0.297060231118806  0.1131968449726912  0.327785789309452  1.0000
  C   C58       1.0  0.2029397047967691  0.11319702163445561  0.6722144932894026  1.0000
  C   C59       1.0  0.20293783067202747  0.38680379879027527  0.8277858887402374  1.0000
  C   C60       1.0  0.2970636274475141  0.3868015852866551  0.1722142194089926  1.0000
  C   C61       1.0  0.7029377040365076  0.8868023467639433  0.6722142638711901  1.0000
  C   C62       1.0  0.7970608384734562  0.8868035747190393  0.3277855598909909  1.0000
  C   C63       1.0  0.7970627125993843  0.6131967975630772  0.1722138933882107  1.0000
  C   C64       1.0  0.7029369158202244  0.6131957336279755  0.8277861048227706  1.0000
  C   C65       1.0  0.4640408365278361  0.08684390222865092  0.3262963225230422  1.0000
  C   C66       1.0  0.0359603824335508  0.0868435948521054  0.6737039507709923  1.0000
  C   C67       1.0  0.0359585423268243  0.413157208169359  0.8262959525641094  1.0000
  C   C68       1.0  0.46404163275120425  0.4131564182558235  0.1737033517344386  1.0000
  C   C69       1.0  0.5359597067406412  0.9131552895082679  0.6737040017090408  1.0000
  C   C70       1.0  0.9640401608368665  0.9131574697069595  0.3262961024094864  1.0000
  C   C71       1.0  0.9640420009445805  0.5868433881839934  0.1737038295643387  1.0000
  C   C72       1.0  0.5359602145778196  0.5868423052751625  0.8262961593414886  1.0000
  C   C73       1.0  0.533457241064923  0.0679307242918554  0.2932049294882759  1.0000
  C   C74       1.0  0.9665432566697163  0.0679304966802761  0.7067954183082534  1.0000
  C   C75       1.0  0.9665430246167048  0.4320704033292487  0.7932049447993421  1.0000
  C   C76       1.0  0.5334590675070174  0.4320705398385555  0.20679471840873018  1.0000
  C   C77       1.0  0.46654460626091787  0.9320689356506976  0.7067953947436507  1.0000
  C   C78       1.0  0.03345728659950711  0.9320705678789312  0.2932049059241706  1.0000
  C   C79       1.0  0.0334575186509696  0.5679297248189599  0.20679565048485674  1.0000
  C   C80       1.0  0.4665427798233779  0.5679286518978586  0.7932045216153369  1.0000
  C   C81       1.0  0.436616793156503  0.0745319327672007  0.2612446722852155  1.0000
  C   C82       1.0  0.0633818078747979  0.07453310144974519  0.738755596662557  1.0000
  C   C83       1.0  0.0633818496006029  0.4254686408410393  0.7612445673111807  1.0000
  C   C84       1.0  0.4366170312357269  0.42546978947576264  0.23875501238672572  1.0000
  C   C85       1.0  0.5633863582278877  0.9254681953808586  0.7387553808945952  1.0000
  C   C86       1.0  0.9366187353944329  0.9254679631094688  0.26124472756985995  1.0000
  C   C87       1.0  0.936616085556267  0.5745314873066008  0.23875521481767953  1.0000
  C   C88       1.0  0.5633835120353086  0.574529870466442  0.761244769741559  1.0000
  C   C89       1.0  0.2682995288370549  0.09981502569306851  0.26270594973443917  1.0000
  C   C90       1.0  0.23170039640842796  0.09981621037765359  0.7372945991917916  1.0000
  C   C91       1.0  0.2316991011618796  0.40018508125019286  0.7627057719161243  1.0000
  C   C92       1.0  0.2683010635715064  0.40018527439096374  0.23729406990639026  1.0000
  C   C93       1.0  0.7317036225471512  0.9001846342494133  0.7372941034452936  1.0000
  C   C94       1.0  0.7683014509191608  0.9001848541814822  0.2627054539884313  1.0000
  C   C95       1.0  0.7682975299389911  0.5998150468972414  0.2372937391610392  1.0000
  C   C96       1.0  0.7317020878125148  0.599813917345948  0.7627059832732641  1.0000
  C   C97       1.0  0.19966555925071816  0.1191332014327315  0.29568675349921847  1.0000
  C   C98       1.0  0.3003330773399426  0.1191343584986271  0.7043138022479667  1.0000
  C   C99       1.0  0.30033278279568515  0.3808674084879016  0.7956865427970142  1.0000
  C   C100      1.0  0.1996686705923452  0.380866155087041  0.2043132922044677  1.0000
  C   C101      1.0  0.8003349840189456  0.880865990304045  0.7043132996809334  1.0000
  C   C102      1.0  0.699667465929288  0.8808667060605802  0.2956865219844503  1.0000
  C   C103      1.0  0.6996664564181714  0.6191322514542391  0.204313239331519  1.0000
  C   C104      1.0  0.8003318726769495  0.6191321002385877  0.7956867609755136  1.0000
  C   C105      1.0  0.8872268434422138  0.5708383616700702  0.3952465209883941  1.0000
  C   C106      1.0  0.6127753593236065  0.570838926015341  0.6047526491109636  1.0000
  C   C107      1.0  0.6127742340284428  0.929161486006926  0.8952466696142805  1.0000
  C   C108      1.0  0.8872256463116913  0.9291629564204837  0.1047531691035246  1.0000
  C   C109      1.0  0.1127736998305622  0.4291627028887106  0.6047529900881942  1.0000
  C   C110      1.0  0.3872277920637188  0.4291626067491521  0.3952468619652123  1.0000
  C   C111      1.0  0.38722370112998306  0.07083957855171971  0.1047528414628047  1.0000
  C   C112      1.0  0.1127735929005453  0.0708385763442294  0.8952471551292263  1.0000
  C   C113      1.0  0.9795852865377057  0.610103036483416  0.422299662755286  1.0000
  C   C114      1.0  0.5204169475308619  0.6101021580641587  0.5777000633109708  1.0000
  C   C115      1.0  0.5204142506781437  0.8898973079212097  0.9222995615388854  1.0000
  C   C116      1.0  0.9795842942996984  0.8898992276442499  0.0777002633161601  1.0000
  C   C117      1.0  0.0204165607916309  0.38989943269229593  0.5777001193732474  1.0000
  C   C118      1.0  0.479586203856087  0.3898984382891868  0.4222994477650417  1.0000
  C   C119      1.0  0.4795823804203607  0.11010282022650841  0.0777004916421689  1.0000
  C   C120      1.0  0.020416248971898195  0.11010183691467292  0.9222995188123734  1.0000
  C   C121      1.0  0.8977934809905079  0.6641714186258838  0.43532671528426187  1.0000
  C   C122      1.0  0.6022087961839164  0.6641724078194146  0.5646738430281886  1.0000
  C   C123      1.0  0.6022072465445446  0.83582893951327  0.9353265639176626  1.0000
  C   C124      1.0  0.8977925593788856  0.8358294323608249  0.0646737839507381  1.0000
  C   C125      1.0  0.1022070622773512  0.335829177727895  0.564673880000015  1.0000
  C   C126      1.0  0.3977930511438643  0.3358291249452918  0.4353262101521196  1.0000
  C   C127      1.0  0.3977906886105202  0.16417259325137226  0.0646737603153369  1.0000
  C   C128      1.0  0.10220798389015331  0.1641711639928118  0.9353265402816004  1.0000
  C   C129      1.0  0.9815647157193298  0.7024285135669004  0.4604215082123417  1.0000
  C   C130      1.0  0.5184362879012454  0.7024289993662265  0.5395787925558365  1.0000
  C   C131      1.0  0.5184344886567659  0.7975723392354792  0.9604216462021499  1.0000
  C   C132      1.0  0.9815639827061631  0.797572346150652  0.0395789592110134  1.0000
  C   C133      1.0  0.01843582754971611  0.29757208278673625  0.5395788160199898  1.0000
  C   C134      1.0  0.4815642553683547  0.29757300160412825  0.4604215316767508  1.0000
  C   C135      1.0  0.48156344649674315  0.20242825711816445  0.0395789490826246  1.0000
  C   C136      1.0  0.018433952449704805  0.20242825020270772  0.9604210939698704  1.0000
  C   C137      1.0  0.1488772014211008  0.6872188187038475  0.4728640320432048  1.0000
  C   C138      1.0  0.35112449621893665  0.6872193260586316  0.5271364532266105  1.0000
  C   C139      1.0  0.3511226004675478  0.812781526899862  0.9728640490669207  1.0000
  C   C140      1.0  0.14887528511214046  0.8127824224344166  0.027136480536398697  1.0000
  C   C141      1.0  0.8511233418465664  0.31278130944436106  0.5271365632409868  1.0000
  C   C142      1.0  0.6488747429919286  0.3127817385006537  0.4728641420580004  1.0000
  C   C143      1.0  0.6488740306311414  0.1872190694534268  0.0271360041142117  1.0000
  C   C144      1.0  0.851123954101098  0.1872186421245843  0.9728635726443287  1.0000
  C   C145      1.0  0.23179180321709947  0.6334987812182077  0.4591772389321918  1.0000
  C   C146      1.0  0.26820985159437777  0.6334992943611865  0.540822685266697  1.0000
  C   C147      1.0  0.2682081181718487  0.866501081749618  0.9591767643052619  1.0000
  C   C148      1.0  0.2317911142991207  0.8665020003559577  0.0408229711088524  1.0000
  C   C149      1.0  0.7682087400517544  0.36650134692985864  0.5408230853000688  1.0000
  C   C150      1.0  0.7317906916746608  0.3665013019924502  0.4591776389656416  1.0000
  C   C151      1.0  0.7317885129286452  0.1334981099866681  0.04082274677173809  1.0000
  C   C152      1.0  0.7682094289697334  0.13349812779210882  0.9591773531234011  1.0000
  C   C153      1.0  0.24999890908826927  0.7282411377375624  0.500000114351181  1.0000
  C   C154      1.0  0.2499998051097805  0.7717601139399906  3.5982755260000005e-07  1.0000
  C   C155      1.0  0.7499990260667885  0.271760395027087  0.5000002098818186  1.0000
  C   C156      1.0  0.7500007381592654  0.22824048241364642  0.999999964404786  1.0000
  C   C157      1.0  0.5148694951158106  0.0533774543833943  0.22657711012587356  1.0000
  C   C158      1.0  0.9851309910167387  0.05337729895499169  0.7734229614803709  1.0000
  C   C159      1.0  0.9851300482322073  0.44662360299146536  0.7265768524648948  1.0000
  C   C160      1.0  0.5148707514386146  0.4466233396041588  0.2734225448297424  1.0000
  C   C161      1.0  0.48513235221121687  0.9466222055590167  0.7734229430541077  1.0000
  C   C162      1.0  0.014870856310665204  0.946623297398567  0.22657709169977377  1.0000
  C   C163      1.0  0.0148704950393892  0.5533774615674574  0.2734229296636386  1.0000
  C   C164      1.0  0.4851284877752419  0.553376320337982  0.7265772372987911  1.0000
  C   C165      1.0  0.1476528231474461  0.5950745370074557  0.4343459085334516  1.0000
  C   C166      1.0  0.35234880102824934  0.5950746168938323  0.5656540020988245  1.0000
  C   C167      1.0  0.3523473150410296  0.9049257679862848  0.9343456865737921  1.0000
  C   C168      1.0  0.14765194806592064  0.9049267040029677  0.0656540624070203  1.0000
  C   C169      1.0  0.8523477201241505  0.404926527551467  0.5656538735950747  1.0000
  C   C170      1.0  0.64765304629816  0.4049264476654457  0.4343463221333507  1.0000
  C   C171      1.0  0.6476480120028542  0.09507482836665558  0.0656538245037055  1.0000
  C   C172      1.0  0.8523472911484974  0.09507436055589118  0.9343457197217616  1.0000
  C   C173      1.0  0.2103495625746775  0.24457064777980975  0.33855445162678416  1.0000
  C   C174      1.0  0.28965178214346576  0.24457082212528294  0.6614456063043052  1.0000
  C   C175      1.0  0.28965231736984987  0.2554295391309154  0.8385539296405966  1.0000
  C   C176      1.0  0.2103503400622913  0.2554273052369211  0.16144613212379258  1.0000
  C   C177      1.0  0.7896496766358823  0.7554266711347495  0.6614458726052205  1.0000
  C   C178      1.0  0.7103487611279461  0.7554297742280697  0.3385541758241501  1.0000
  C   C179      1.0  0.7103495299558064  0.7445696526060743  0.1614463945912448  1.0000
  C   C180      1.0  0.7896515072648  0.7445695454719186  0.838553650003746  1.0000
  C   C181      1.0  0.0843721988344655  0.08085274958444441  0.3749526568699579  1.0000
  C   C182      1.0  0.41562640723700645  0.08085243047902681  0.6250473432573145  1.0000
  C   C183      1.0  0.4156254511487347  0.41914794390645943  0.874952144849793  1.0000
  C   C184      1.0  0.08437081652665773  0.41914612671409657  0.125048787876139  1.0000
  C   C185      1.0  0.9156309525460032  0.9191464421529005  0.6250482094655183  1.0000
  C   C186      1.0  0.5843715279198634  0.9191476976686133  0.3749524388715457  1.0000
  C   C187      1.0  0.5843724840057618  0.5808521842414649  0.1250481793829579  1.0000
  C   C188      1.0  0.9156245105093818  0.5808525968174081  0.8749523495126823  1.0000
  C   C189      1.0  0.1280994718171229  0.771034196582704  0.5232612807336849  1.0000
  C   C190      1.0  0.37189968453583333  0.7710351211742293  0.4767389630776293  1.0000
  C   C191      1.0  0.37190034334909683  0.7289666114133838  0.0232609227062923  1.0000
  C   C192      1.0  0.12810138757703274  0.7289656967206497  0.9767393062513179  1.0000
  C   C193      1.0  0.8718997673955542  0.22896546335957174  0.47673877244678664  1.0000
  C   C194      1.0  0.6280995546785845  0.22896594338462964  0.5232608190511527  1.0000
  C   C195      1.0  0.6281015039784917  0.2710344531457523  0.9767391304739377  1.0000
  C   C196      1.0  0.8719017638036207  0.2710339632222656  0.0232615600842507  1.0000
  C   C197      1.0  0.21064151963341973  0.13471558730433494  0.3632838562383256  1.0000
  C   C198      1.0  0.28935843344019935  0.1347157355469335  0.6367161629062537  1.0000
  C   C199      1.0  0.2893575362848678  0.3652846256787541  0.8632836442022622  1.0000
  C   C200      1.0  0.2106426006218243  0.36528330215370636  0.1367161852976082  1.0000
  C   C201      1.0  0.7893577195788809  0.8652831362268075  0.6367161969419897  1.0000
  C   C202      1.0  0.7106408057728472  0.8652848608064898  0.3632838902743885  1.0000
  C   C203      1.0  0.7106417029291807  0.6347155024689571  0.1367161379263564  1.0000
  C   C204      1.0  0.7893553345334895  0.6347158895829353  0.8632838678830339  1.0000
  O   O1        1.0  0.7305601413905762  0.3869220310401714  0.3511591065096836  1.0000
  O   O2        1.0  0.7694393066202423  0.3869235946067776  0.6488410828623898  1.0000
  O   O3        1.0  0.7694409223555567  0.11307775306548962  0.8511588129900431  1.0000
  O   O4        1.0  0.7305596113792562  0.11307691260478242  0.1488404665387577  1.0000
  O   O5        1.0  0.26944170593726813  0.6130766924909565  0.6488406756181817  1.0000
  O   O6        1.0  0.2305573244790082  0.6130784063632291  0.3511589703189911  1.0000
  O   O7        1.0  0.2305583168586764  0.8869228432877917  0.14884096913865358  1.0000
  O   O8        1.0  0.26944354000893617  0.8869208745148357  0.8511585024328738  1.0000
  O   O9        1.0  0.9639563012693415  0.5213134460893089  0.3821205362633435  1.0000
  O   O10       1.0  0.5360445579505823  0.5213135480710634  0.6178791584542012  1.0000
  O   O11       1.0  0.5360422826900902  0.978686855954216  0.8821204604612447  1.0000
  O   O12       1.0  0.9639576371363887  0.9786878799984464  0.11787939574250568  1.0000
  O   O13       1.0  0.0360416338879048  0.478687618469479  0.6178792458656872  1.0000
  O   O14       1.0  0.46395989749272804  0.4786879846936358  0.3821206236736714  1.0000
  O   O15       1.0  0.4639569565255073  0.021314208604494  0.11787905061559201  1.0000
  O   O16       1.0  0.0360429061348313  0.021312248149328597  0.8821203863858641  1.0000
  O   O17       1.0  0.42693705192474607  0.0572897597803177  0.1966304956446123  1.0000
  O   O18       1.0  0.07306283941466059  0.05728912477269431  0.803370038266813  1.0000
  O   O19       1.0  0.07306345903193548  0.44271027749923064  0.6966301220300934  1.0000
  O   O20       1.0  0.42693804366670207  0.4427114932482611  0.3033691927029309  1.0000
  O   O21       1.0  0.5730634913441081  0.9427103683677417  0.8033698285876412  1.0000
  O   O22       1.0  0.9269377038540086  0.9427105351697947  0.1966302859653624  1.0000
  O   O23       1.0  0.9269370842377285  0.5572889142375458  0.3033699311500513  1.0000
  O   O24       1.0  0.5730624996070759  0.5572891031048003  0.6966300473216336  1.0000
  O   O25       1.0  0.6685734889143332  0.0314373493452464  0.22674729768906587  1.0000
  O   O26       1.0  0.8314269797232046  0.031437645923844605  0.773253308274704  1.0000
  O   O27       1.0  0.8314273570058646  0.4685637082090039  0.7267468350904807  1.0000
  O   O28       1.0  0.6685747642147818  0.4685629924562633  0.273252569950273  1.0000
  O   O29       1.0  0.3314296624676984  0.9685627788030973  0.7732532975946356  1.0000
  O   O30       1.0  0.1685735635472057  0.9685634186352202  0.2267467449057747  1.0000
  O   O31       1.0  0.1685744903229107  0.53143735634999  0.273252947037804  1.0000
  O   O32       1.0  0.3314244750004463  0.5314371356912986  0.7267469411264003  1.0000
  O   O33       1.0  0.7350095155080822  0.5853077733952006  0.38507505721477736  1.0000
  O   O34       1.0  0.7649913947330944  0.5853074279179964  0.6149249311492396  1.0000
  O   O35       1.0  0.7649903467119401  0.9146920635578722  0.8850751429285638  1.0000
  O   O36       1.0  0.7350069139787508  0.9146939970362595  0.1149244196291193  1.0000
  O   O37       1.0  0.2649936358794207  0.41469422757486296  0.6149244538614766  1.0000
  O   O38       1.0  0.23500914853514135  0.41469410484693014  0.3850756641352007  1.0000
  O   O39       1.0  0.2350075884425635  0.08530806459005899  0.11492518130418719  1.0000
  O   O40       1.0  0.2649923252380333  0.08530706752230802  0.8850748203957722  1.0000
  O   O41       1.0  0.9716478426964629  0.42247849714694763  0.3244875557757609  1.0000
  O   O42       1.0  0.5283503296055656  0.4224781908843839  0.6755126461502314  1.0000
  O   O43       1.0  0.5283521498578453  0.07752032242774481  0.8244876123056386  1.0000
  O   O44       1.0  0.9716457474111095  0.077521408035949  0.1755121967735462  1.0000
  O   O45       1.0  0.028354004631751206  0.5775211627953284  0.6755122263522821  1.0000
  O   O46       1.0  0.471646301490388  0.5775214690580484  0.3244879491346211  1.0000
  O   O47       1.0  0.471648393411634  0.9224784011034614  0.1755124408744209  1.0000
  O   O48       1.0  0.0283534918013828  0.9224777837007638  0.8244878564068472  1.0000
  F   F1        1.0  0.9471182710173452  0.07619928701744531  0.3515466148167263  1.0000
  F   F2        1.0  0.5528809292524102  0.0761984865774608  0.648453735899345  1.0000
  F   F3        1.0  0.5528801812330214  0.4238014339075987  0.8515459711380373  1.0000
  F   F4        1.0  0.9471140799493725  0.4237968699649457  0.1484545023069828  1.0000
  F   F5        1.0  0.0528887925357182  0.923796627280808  0.6484537094135447  1.0000
  F   F6        1.0  0.447117005901724  0.9238007051593229  0.3515465883332425  1.0000
  F   F7        1.0  0.4471177539218517  0.5761996306514731  0.148454353094877  1.0000
  F   F8        1.0  0.052879943032472496  0.5762004489493434  0.8515458219260097  1.0000
  F   F9        1.0  0.016851885796811  0.08846625470627602  0.40876152204422317  1.0000
  F   F10       1.0  0.4831480304020701  0.088465906993207  0.5912384807709187  1.0000
  F   F11       1.0  0.4831480771169013  0.41153400622416575  0.9087612527469416  1.0000
  F   F12       1.0  0.016854704776079605  0.41153495558292974  0.09123940623803152  1.0000
  F   F13       1.0  0.9831447453017006  0.9115338734414423  0.5912385311368312  1.0000
  F   F14       1.0  0.5168525128679704  0.9115342211547174  0.4087615724093894  1.0000
  F   F15       1.0  0.5168524661503965  0.588465185512895  0.0912393425370865  1.0000
  F   F16       1.0  0.9831484466073165  0.5884656407708421  0.9087609179938099  1.0000
  F   F17       1.0  0.2662919138599165  0.1751685833192411  0.4232893320535212  1.0000
  F   F18       1.0  0.2337067674080799  0.17516772608667  0.576710972425893  1.0000
  F   F19       1.0  0.2337079222143146  0.32483075651654764  0.923288584763327  1.0000
  F   F20       1.0  0.2662921824406369  0.3248317165556287  0.0767109594018649  1.0000
  F   F21       1.0  0.7337073253529454  0.8248315448286121  0.5767107211270357  1.0000
  F   F22       1.0  0.7662937758625857  0.8248309974443941  0.42328880970222826  1.0000
  F   F23       1.0  0.7662952291707086  0.6751679670146516  0.0767111973642969  1.0000
  F   F24       1.0  0.7337057527133055  0.6751670069755775  0.9232893648306303  1.0000
  F   F25       1.0  0.4779849074421847  0.1833457838524524  0.3837829304413063  1.0000
  F   F26       1.0  0.0220124762873226  0.18334541441414845  0.6162176479775282  1.0000
  F   F27       1.0  0.022011361390831007  0.3166558553589596  0.88378171855026  1.0000
  F   F28       1.0  0.47798743269211735  0.3166554744966846  0.11621700957278591  1.0000
  F   F29       1.0  0.5220130277148698  0.8166548125007652  0.6162168516876391  1.0000
  F   F30       1.0  0.9779880669854606  0.8166556501446325  0.3837818630990597  1.0000
  F   F31       1.0  0.9779878778245816  0.6833447409941797  0.1162177925264913  1.0000
  F   F32       1.0  0.522011806521121  0.6833455900623165  0.8837830436079342  1.0000
  F   F33       1.0  0.16716416002338974  0.024510767911600305  0.3745948426383521  1.0000
  F   F34       1.0  0.3328370092410253  0.0245104405547636  0.6254051375956493  1.0000
  F   F35       1.0  0.332832189023911  0.4754894569967264  0.8745949240547545  1.0000
  F   F36       1.0  0.1671562992181848  0.47548905342765824  0.1254087390849676  1.0000
  F   F37       1.0  0.8328429035217014  0.975488892032374  0.6254076500081283  1.0000
  F   F38       1.0  0.6671622299728314  0.97548921938737  0.374594644532884  1.0000
  F   F39       1.0  0.6671631380138692  0.5245106711513472  0.1254059422823772  1.0000
  F   F40       1.0  0.8328364196940328  0.5245096701048482  0.8745945667199065  1.0000
  F   F41       1.0  0.41622461795363114  0.092257803787696  0.4078921833012785  1.0000
  F   F42       1.0  0.0837739972096827  0.09225694716202781  0.5921080919046489  1.0000
  F   F43       1.0  0.0837779606630988  0.4077433926377053  0.9078923353762322  1.0000
  F   F44       1.0  0.41622221009528465  0.40774344812437846  0.0921077801668346  1.0000
  F   F45       1.0  0.5837785334311363  0.9077432607715038  0.5921078698787028  1.0000
  F   F46       1.0  0.9162226338880117  0.907744117396973  0.407892232328507  1.0000
  F   F47       1.0  0.9162238866603831  0.592256267305146  0.0921085309595782  1.0000
  F   F48       1.0  0.5837731169472208  0.5922566800231266  0.907892001962523  1.0000
  F   F49       1.0  0.0511797614914542  0.8179863055200653  0.5041169048616823  1.0000
  F   F50       1.0  0.4488181282413848  0.8179867901064598  0.4958828134233997  1.0000
  F   F51       1.0  0.44881630864914257  0.6820144822920754  0.0041170431516093  1.0000
  F   F52       1.0  0.0511801686112179  0.6820140479720324  0.9958837113334695  1.0000
  F   F53       1.0  0.9488168696060555  0.18201429083337223  0.49588341937139546  1.0000
  F   F54       1.0  0.5511824150298353  0.18201333804132253  0.5041169687049702  1.0000
  F   F55       1.0  0.5511816265057304  0.3179865822670038  0.995883281081305  1.0000
  F   F56       1.0  0.9488268949435864  0.31798327094279705  0.004116341845112  1.0000
  F   F57       1.0  0.2180336660463951  0.7985712583134659  0.5507491882078099  1.0000
  F   F58       1.0  0.2819642082032701  0.7985716763456739  0.4492513363781754  1.0000
  F   F59       1.0  0.2819659091264626  0.7014305150742786  0.0507485835580681  1.0000
  F   F60       1.0  0.21803449578916198  0.7014295807741393  0.9492513646256101  1.0000
  F   F61       1.0  0.781964269108663  0.2014302744511838  0.4492511360251825  1.0000
  F   F62       1.0  0.718035031011148  0.20142938821317816  0.5507484457506067  1.0000
  F   F63       1.0  0.7180359382016875  0.2985719541015754  0.9492514696224106  1.0000
  F   F64       1.0  0.7819712637111422  0.29857148378506093  0.0507484175019286  1.0000
  F   F65       1.0  0.9978924877237674  0.7365766608997861  0.5386557756814412  1.0000
  F   F66       1.0  0.5021072390658857  0.7365770625145345  0.4613445371437308  1.0000
  F   F67       1.0  0.5021077909438745  0.7634242154381851  0.0386555702465685  1.0000
  F   F68       1.0  0.9978906531926128  0.7634237912611113  0.9613450231097714  1.0000
  F   F69       1.0  0.0021067514871049  0.2634244036594993  0.46134481960316986  1.0000
  F   F70       1.0  0.4978906960872465  0.26342259742796864  0.5386560581408801  1.0000
  F   F71       1.0  0.49789405638527023  0.23657778553195646  0.9613442118818868  1.0000
  F   F72       1.0  0.0021059779012233995  0.23657352765359724  0.038655843226614195  1.0000
