data_image0
_chemical_formula_structural       Zn4H52C48N4O20
_chemical_formula_sum              "Zn4 H52 C48 N4 O20"
_cell_length_a       7.16082996
_cell_length_b       7.520981313799612
_cell_length_c       24.1618
_cell_angle_alpha    90.0
_cell_angle_beta     90.0
_cell_angle_gamma    91.14055847503377

_space_group_name_H-M_alt    "P 1"
_space_group_IT_number       1

loop_
  _space_group_symop_operation_xyz
  'x, y, z'

loop_
  _atom_site_type_symbol
  _atom_site_label
  _atom_site_symmetry_multiplicity
  _atom_site_fract_x
  _atom_site_fract_y
  _atom_site_fract_z
  _atom_site_occupancy
  Zn  Zn1       1.0  0.1311912517227753  0.5531371592144794  0.22088006688243672  1.0000
  Zn  Zn2       1.0  0.3688094300095059  0.94686326674519  0.7208796530059871  1.0000
  Zn  Zn3       1.0  0.868808294033812  0.44686401134344333  0.7791199331175633  1.0000
  Zn  Zn4       1.0  0.6311928809165933  0.053136573935518114  0.2791199331175633  1.0000
  H   H1        1.0  0.021395472033042  0.8167268021583001  0.2744667201946882  1.0000
  H   H2        1.0  0.4786038688187161  0.6832762835557988  0.7744675479475873  1.0000
  H   H3        1.0  0.9786027050402024  0.1832756982768373  0.7255320381759631  1.0000
  H   H4        1.0  0.5213984699102099  0.316724887002124  0.22553162429951362  1.0000
  H   H5        1.0  0.24389231494518523  0.8216167606716809  0.2724474169970748  1.0000
  H   H6        1.0  0.25610702590657997  0.6783863250424176  0.7724478308735243  1.0000
  H   H7        1.0  0.7561045212475433  0.1783883995178783  0.7275521691264757  1.0000
  H   H8        1.0  0.7438952572166995  0.321612185761083  0.2275517552500261  1.0000
  H   H9        1.0  0.13927029762324133  0.4900983195485651  0.3476235214263852  1.0000
  H   H10       1.0  0.36073084393839133  0.0099009358531887  0.8476239353028348  1.0000
  H   H11       1.0  0.860732013302858  0.50990152113215  0.6523748230678166  1.0000
  H   H12       1.0  0.6392685906068891  0.9900949151958829  0.1523748230678166  1.0000
  H   H13       1.0  0.10792058902275409  0.1033420984928739  0.3901923697737786  1.0000
  H   H14       1.0  0.3920778151722003  0.396659816663302  0.890191128144423  1.0000
  H   H15       1.0  0.8920817497061718  0.8966590720650489  0.6098084579791276  1.0000
  H   H16       1.0  0.6079188542035752  0.6033373642629769  0.1098084579791205  1.0000
  H   H17       1.0  0.2849248388044856  0.2538855289182038  0.4116816627900235  1.0000
  H   H18       1.0  0.21507496187663114  0.24611638623797216  0.9116808350371244  1.0000
  H   H19       1.0  0.715081744988602  0.7461183013941479  0.5883183372099765  1.0000
  H   H20       1.0  0.784921624090664  0.7538768050566702  0.0883183372099765  1.0000
  H   H21       1.0  0.0209595070752826  0.46295552562465053  0.4465863470436773  1.0000
  H   H22       1.0  0.4790389249224916  0.03704771940874  0.9465859331672279  1.0000
  H   H23       1.0  0.9790457080344621  0.5370496345649158  0.5534136529563227  1.0000
  H   H24       1.0  0.5209576888476305  0.9629468017631171  0.053414066832772306  1.0000
  H   H25       1.0  0.904178188731599  0.0742536942058649  0.4713783741277524  1.0000
  H   H26       1.0  0.5958230418244597  0.42574955082751853  0.9713800296335509  1.0000
  H   H27       1.0  0.09582571330044937  0.925755455615338  0.5286191426135503  1.0000
  H   H28       1.0  0.4041708067761433  0.5742463002215459  0.028619556489999802  1.0000
  H   H29       1.0  0.8344530994115686  0.2772541313107055  0.5095911728430806  1.0000
  H   H30       1.0  0.6655424339885128  0.22274379421382665  0.0095911728430806  1.0000
  H   H31       1.0  0.16554921151453778  0.7227457093700026  0.4904084132804698  1.0000
  H   H32       1.0  0.3344514424149167  0.7772533867124525  0.9904088271569196  1.0000
  H   H33       1.0  0.15836086015744397  0.1466548694535774  0.20653345363341916  1.0000
  H   H34       1.0  0.3416374328262036  0.3533417261937473  0.7065330397569696  1.0000
  H   H35       1.0  0.8416358370211511  0.8533436413499232  0.79346737411948  1.0000
  H   H36       1.0  0.6583592365495716  0.6466554547325387  0.2934669602430304  1.0000
  H   H37       1.0  0.11620610247171467  0.9212165846862634  0.1322678773932395  1.0000
  H   H38       1.0  0.3837931271687508  0.578781181518977  0.6322682912696891  1.0000
  H   H39       1.0  0.8837878017345489  0.0787819261172302  0.8677329503596596  1.0000
  H   H40       1.0  0.6162077872711861  0.4212186591617311  0.36773336423610914  1.0000
  H   H41       1.0  0.0327128038566755  0.3553006353289733  0.017901398074649  1.0000
  H   H42       1.0  0.46728548912697215  0.1446959603183515  0.5179009841981995  1.0000
  H   H43       1.0  0.9672838099134464  0.6446938858428837  0.9820990158018007  1.0000
  H   H44       1.0  0.53271827389095  0.8553065401167859  0.4820990158018006  1.0000
  H   H45       1.0  0.08220760530021208  0.5618638134883014  0.0972398579576037  1.0000
  H   H46       1.0  0.4177930208264157  0.938133952716946  0.5972398579576037  1.0000
  H   H47       1.0  0.9177904883645523  0.4381346973151922  0.9027601420423964  1.0000
  H   H48       1.0  0.5822078936135141  0.0618658879637692  0.4027601420423963  1.0000
  H   H49       1.0  0.049668342422137406  0.8474349968911314  0.0396646773005358  1.0000
  H   H50       1.0  0.45033091502114786  0.6525640991913307  0.5396650911769854  1.0000
  H   H51       1.0  0.9503269026646348  0.15256085415794027  0.9603369782052695  1.0000
  H   H52       1.0  0.5496742722857704  0.3474397311210211  0.4603369782052695  1.0000
  C   C1        1.0  0.3048341992513669  0.3034327642549641  0.305327417659278  1.0000
  C   C2        1.0  0.1951656014297569  0.19656915090121174  0.8053274176592781  1.0000
  C   C3        1.0  0.6951681394775591  0.6965684063029585  0.694671754587823  1.0000
  C   C4        1.0  0.8048324922350145  0.8034293599022819  0.1946717545878229  1.0000
  C   C5        1.0  0.13394142513624263  0.3445525676908971  0.3416252100422952  1.0000
  C   C6        1.0  0.3660597442282237  0.1554480175880641  0.8416252100422952  1.0000
  C   C7        1.0  0.8660623100788525  0.6554486028670254  0.6583743760812553  1.0000
  C   C8        1.0  0.633938321633721  0.8445491633382218  0.15837437608125532  1.0000
  C   C9        1.0  0.9549875084882371  0.3062201868940876  0.3081620574626029  1.0000
  C   C10       1.0  0.5450150351455179  0.1937790685076592  0.808162057462603  1.0000
  C   C11       1.0  0.04501480243786919  0.6937796537866205  0.6918383564138466  1.0000
  C   C12       1.0  0.4549844828082427  0.8062207721730488  0.19183752866094753  1.0000
  C   C13       1.0  0.13943867801371107  0.2451907916975031  0.3969021347747272  1.0000
  C   C14       1.0  0.360559753984063  0.2548124533358873  0.8969017208982777  1.0000
  C   C15       1.0  0.8605651406098643  0.7548143684920632  0.6030978652252728  1.0000
  C   C16       1.0  0.6394368875888785  0.7451833977131841  0.1030982791017223  1.0000
  C   C17       1.0  0.0167097364273303  0.3181930714456271  0.44122706089778063  1.0000
  C   C18       1.0  0.48328866776761703  0.1818088437105416  0.9412270608977807  1.0000
  C   C19       1.0  0.9832954786824073  0.6818120887439321  0.5587721113493203  1.0000
  C   C20       1.0  0.5167051252273396  0.8181843475841006  0.05877293910221942  1.0000
  C   C21       1.0  0.9124988316960695  0.2186876687131942  0.4756557872343947  1.0000
  C   C22       1.0  0.587500974570993  0.2813142464429816  0.9756553733579454  1.0000
  C   C23       1.0  0.08750498692749889  0.7813174914763721  0.5243437988891557  1.0000
  C   C24       1.0  0.4124956670019556  0.7186816046060898  0.024343798889155707  1.0000
  C   C25       1.0  0.12925037971399425  0.18763370590490075  0.16426880447648531  1.0000
  C   C26       1.0  0.37074794107248  0.3123642196196386  0.6642692183529348  1.0000
  C   C27       1.0  0.870746317464608  0.8123648048986001  0.8357320232764138  1.0000
  C   C28       1.0  0.6292502081979376  0.6876369509382843  0.33573202327641394  1.0000
  C   C29       1.0  0.10506935445180689  0.062079998195109516  0.1226204173530121  1.0000
  C   C30       1.0  0.39493039062366353  0.4379192572066373  0.6226204173530121  1.0000
  C   C31       1.0  0.8949245775572762  0.9379198424855988  0.8773804103998871  1.0000
  C   C32       1.0  0.6050705238162732  0.5620805834740707  0.377380410399887  1.0000
  C   C33       1.0  0.06412371628298529  0.1176236498867453  0.0685077270733174  1.0000
  C   C34       1.0  0.43587742527865453  0.3823756055150086  0.5685077270733174  1.0000
  C   C35       1.0  0.9358715288037942  0.8823722011623261  0.9314935145560383  1.0000
  C   C36       1.0  0.564126393344921  0.6176295546745578  0.4314935145560383  1.0000
  C   C37       1.0  0.05834015681796959  0.3021507626213165  0.05906016935824  1.0000
  C   C38       1.0  0.44166372211035554  0.19784583302600114  0.5590605832346895  1.0000
  C   C39       1.0  0.941657853438322  0.6978437585505404  0.9409402445182096  1.0000
  C   C40       1.0  0.5583414651965554  0.8021579972863506  0.4409402445182097  1.0000
  C   C41       1.0  0.0861334114022654  0.4183966597150572  0.1028971351472165  1.0000
  C   C42       1.0  0.4138676745537281  0.0815999359322603  0.602896721270767  1.0000
  C   C43       1.0  0.9138646266568526  0.5815991913340073  0.8971036926056826  1.0000
  C   C44       1.0  0.5861346641752048  0.9184012346256624  0.39710327872923307  1.0000
  C   C45       1.0  0.028380427075766997  0.9840413141208373  0.026146644703622705  1.0000
  C   C46       1.0  0.4716202268536874  0.5159577819616175  0.5261466447036227  1.0000
  C   C47       1.0  0.9716176387861779  0.0159558668054416  0.9738541830492764  1.0000
  C   C48       1.0  0.5283821674808918  0.4840460483507272  0.4738541830492764  1.0000
  N   N1        1.0  0.11826045791277547  0.3631974462216832  0.1549992136347456  1.0000
  N   N2        1.0  0.3817392593598682  0.1368004793028561  0.654998799758296  1.0000
  N   N3        1.0  0.8817362392658267  0.6368010645818176  0.8450016141181537  1.0000
  N   N4        1.0  0.6182602585938922  0.863199361377852  0.3450016141181536  1.0000
  O   O1        1.0  0.3315918498617663  0.3941902346781632  0.26105629547467407  1.0000
  O   O2        1.0  0.1684092916998736  0.1058090207235836  0.7610558815982247  1.0000
  O   O3        1.0  0.6684104888671669  0.6058109358797594  0.7389432906488765  1.0000
  O   O4        1.0  0.8315901984510602  0.8941894900799101  0.23894287677242695  1.0000
  O   O5        1.0  0.4112725886226442  0.182243713559302  0.3216175947156259  1.0000
  O   O6        1.0  0.08872858074182229  0.3177568717196593  0.8216175947156259  1.0000
  O   O7        1.0  0.5887297779091085  0.8177587868758354  0.678381577531475  1.0000
  O   O8        1.0  0.9112709094091116  0.6822416390838343  0.17838157753147502  1.0000
  O   O9        1.0  0.9265708703238714  0.3997584305703441  0.2647037886250203  1.0000
  O   O10       1.0  0.5734288803375447  0.10024082483140262  0.7647033747485708  1.0000
  O   O11       1.0  0.07343141279940817  0.6002400802331493  0.7352966252514294  1.0000
  O   O12       1.0  0.4265706376162228  0.8997590158493054  0.2352957974985301  1.0000
  O   O13       1.0  0.8454688233371426  0.1842837452045387  0.3250821544752469  1.0000
  O   O14       1.0  0.6545336924937856  0.3157141803199934  0.8250825683516965  1.0000
  O   O15       1.0  0.1545376214418184  0.8157134357217473  0.6749178455247531  1.0000
  O   O16       1.0  0.3454616916071203  0.6842883201151366  0.17491743164830353  1.0000
  O   O17       1.0  0.13388911599685827  0.7484455865174625  0.2853649148656174  1.0000
  O   O18       1.0  0.3661102248549001  0.7515574991966363  0.785365328742067  1.0000
  O   O19       1.0  0.8661090888792058  0.2515582437948893  0.7146342573814835  1.0000
  O   O20       1.0  0.6338920860711992  0.24844234148407204  0.2146342573814835  1.0000
