data_image0
_chemical_formula_structural       ZnSiH16C24S4N4O12F6
_chemical_formula_sum              "Zn1 Si1 H16 C24 S4 N4 O12 F6"
_cell_length_a       7.613754435533198
_cell_length_b       14.00701159913821
_cell_length_c       13.986228292360178
_cell_angle_alpha    88.98534153598237
_cell_angle_beta     93.14582924658286
_cell_angle_gamma    93.1809918003978

_space_group_name_H-M_alt    "P 1"
_space_group_IT_number       1

loop_
  _space_group_symop_operation_xyz
  'x, y, z'

loop_
  _atom_site_type_symbol
  _atom_site_label
  _atom_site_symmetry_multiplicity
  _atom_site_fract_x
  _atom_site_fract_y
  _atom_site_fract_z
  _atom_site_occupancy
  Zn  Zn1       1.0  0.49525818632673685  0.5033080202148951  0.5019268071379414  1.0000
  Si  Si1       1.0  0.9954867553018332  0.5036681417416843  0.5021450652403985  1.0000
  H   H1        1.0  0.2612300263569622  0.6613913723780482  0.5487799769272144  1.0000
  H   H2        1.0  0.25809979352170126  0.8373642157456587  0.5510759440492308  1.0000
  H   H3        1.0  0.7795959408108928  0.6729479848663401  0.4642403209640875  1.0000
  H   H4        1.0  0.2111423474696039  0.3326291191167029  0.5371984783117085  1.0000
  H   H5        1.0  0.7324259073734395  0.3457978999324424  0.457315156906013  1.0000
  H   H6        1.0  0.7378264466145624  0.16997325123183768  0.4555575478869471  1.0000
  H   H7        1.0  0.24804738508990445  0.4580388438588087  0.661956134495405  1.0000
  H   H8        1.0  0.2469182979804785  0.4529042749618597  0.8380784360246167  1.0000
  H   H9        1.0  0.7839318748448747  0.5413448843293764  0.669329728384767  1.0000
  H   H10       1.0  0.20608373241211808  0.4639072756890315  0.3347790432108581  1.0000
  H   H11       1.0  0.7427517796242782  0.545237537762162  0.3417190369383292  1.0000
  H   H12       1.0  0.7459001128176936  0.5445247205393642  0.1657330263699635  1.0000
  H   H13       1.0  0.022111571792777302  0.9510891189056706  0.5747549857286528  1.0000
  H   H14       1.0  0.9717847379902905  0.05438068060637848  0.42717608587966527  1.0000
  H   H15       1.0  0.005434556063441719  0.42667362150642424  0.9513554106421722  1.0000
  H   H16       1.0  0.9856760484458461  0.5729940128315574  0.05259251019001709  1.0000
  C   C1        1.0  0.3778441542281641  0.705116728672067  0.5301737641427522  1.0000
  C   C2        1.0  0.3761275320354329  0.8040376964642987  0.5314187456767101  1.0000
  C   C3        1.0  0.5249833248076925  0.8607302241471683  0.5058653496188086  1.0000
  C   C4        1.0  0.6737981298688993  0.810967229235011  0.48287132347766  1.0000
  C   C5        1.0  0.6651690009712609  0.7112468433179513  0.48230545145678144  1.0000
  C   C6        1.0  0.514064985728872  0.9610990501702757  0.5031324141496967  1.0000
  C   C7        1.0  0.48167870611666785  0.04539770173310839  0.5014175819270292  1.0000
  C   C8        1.0  0.4697085297735697  0.1456812968023655  0.4985287477916954  1.0000
  C   C9        1.0  0.31947701684435964  0.19493243751868755  0.5201569368404577  1.0000
  C   C10       1.0  0.32675499399517344  0.29468108375394303  0.5203805101788957  1.0000
  C   C11       1.0  0.6157089902854693  0.3017274050490072  0.4750851698323756  1.0000
  C   C12       1.0  0.6187065909948186  0.20286846694869345  0.4741069986848601  1.0000
  C   C13       1.0  0.36961134848272786  0.4749533642764305  0.7047792411203133  1.0000
  C   C14       1.0  0.3686813113608309  0.4723182287279215  0.8038504685308324  1.0000
  C   C15       1.0  0.5236172416753603  0.4963430648274283  0.8595196954379886  1.0000
  C   C16       1.0  0.6766547803270981  0.5197430197727327  0.8087729169799756  1.0000
  C   C17       1.0  0.6670763095231109  0.521878055974568  0.7088222388602927  1.0000
  C   C18       1.0  0.5134636554097938  0.4977582027930579  0.9599881011859848  1.0000
  C   C19       1.0  0.47950866574540635  0.49871718328832065  0.0441105661695147  1.0000
  C   C20       1.0  0.4687483419247939  0.5019940358327445  0.14445969312167506  1.0000
  C   C21       1.0  0.31502028066274324  0.48073737556243407  0.195254503748437  1.0000
  C   C22       1.0  0.323551561767367  0.4816999623267576  0.29519472516482637  1.0000
  C   C23       1.0  0.6215076424471775  0.5273965034271839  0.29897795237638997  1.0000
  C   C24       1.0  0.6235161930217357  0.526789678032081  0.1999803885453062  1.0000
  S   S1        1.0  0.8802923839947779  0.8692970872731532  0.4602014045669803  1.0000
  S   S2        1.0  0.11308950488742649  0.1361115359603744  0.5419656974145965  1.0000
  S   S3        1.0  0.887744794699138  0.5416882313758576  0.8668092596885513  1.0000
  S   S4        1.0  0.1039333346993985  0.4581876442642923  0.13734135815617776  1.0000
  N   N1        1.0  0.5187705968628791  0.6591115872160739  0.504669591590897  1.0000
  N   N2        1.0  0.47324633450333653  0.34727721260850336  0.4991683098082191  1.0000
  N   N3        1.0  0.5154168085616816  0.500225281362347  0.6576938124113241  1.0000
  N   N4        1.0  0.4748935523122597  0.5043968153169942  0.3461943885334334  1.0000
  O   O1        1.0  0.953621153327283  0.8862477362623266  0.5663320206503926  1.0000
  O   O2        1.0  0.9850594071184275  0.8047580563014237  0.4129747098671145  1.0000
  O   O3        1.0  0.8505997535020741  0.9622439569351542  0.41433633600693287  1.0000
  O   O4        1.0  0.04077945719605219  0.11908904628108267  0.43567280320856827  1.0000
  O   O5        1.0  0.14296856086379958  0.04321828443537611  0.5879031931547516  1.0000
  O   O6        1.0  0.007353701261770597  0.20036969306309516  0.588924949483747  1.0000
  O   O7        1.0  0.9399475122809233  0.4354516482517921  0.8860685827111823  1.0000
  O   O8        1.0  0.002393647990928097  0.5893275396996314  0.8012794030441268  1.0000
  O   O9        1.0  0.8672056736737658  0.5864724984539008  0.9590330457907824  1.0000
  O   O10       1.0  0.0509141350956455  0.5642404841603863  0.11800130080563058  1.0000
  O   O11       1.0  0.1243192074050157  0.4132669111175531  0.04518796902785031  1.0000
  O   O12       1.0  0.9899313837197851  0.4104811842050892  0.2031797196152141  1.0000
  F   F1        1.0  0.22649391661304458  0.5077358683011184  0.5042606173685513  1.0000
  F   F2        1.0  0.7643664624861513  0.4994511062802829  0.500003861404167  1.0000
  F   F3        1.0  0.9908655668662406  0.5752612237927152  0.4030459085337768  1.0000
  F   F4        1.0  0.9996902123180789  0.4318847743980355  0.6011272978877428  1.0000
  F   F5        1.0  0.002928262081020715  0.6015049963868719  0.5724252209065952  1.0000
  F   F6        1.0  0.9880795707562128  0.4057694591238459  0.4318078151704228  1.0000
