data_image0
_chemical_formula_structural       Cu2H12C8O10
_chemical_formula_sum              "Cu2 H12 C8 O10"
_cell_length_a       6.765372957162963
_cell_length_b       7.224377710938526
_cell_length_c       7.908620832048521
_cell_angle_alpha    67.85479401315912
_cell_angle_beta     72.59441642190083
_cell_angle_gamma    65.51781176018217

_space_group_name_H-M_alt    "P 1"
_space_group_IT_number       1

loop_
  _space_group_symop_operation_xyz
  'x, y, z'

loop_
  _atom_site_type_symbol
  _atom_site_label
  _atom_site_symmetry_multiplicity
  _atom_site_fract_x
  _atom_site_fract_y
  _atom_site_fract_z
  _atom_site_occupancy
  Cu  Cu1       1.0  0.6212635065117452  0.8177739137603266  0.9754601671049768  1.0000
  Cu  Cu2       1.0  0.3787483783489876  0.18221047249583924  0.024543911810106112  1.0000
  H   H1        1.0  0.7124702404571791  0.44046837479600504  0.9058046163756898  1.0000
  H   H2        1.0  0.28751695868524507  0.559527224519975  0.09421106810946607  1.0000
  H   H3        1.0  0.9528563102661279  0.42818494258223444  0.8923723720695163  1.0000
  H   H4        1.0  0.047141192594452264  0.5718005189968736  0.10764119082146105  1.0000
  H   H5        1.0  0.9082107301457257  0.4134723032961175  0.6179034270571221  1.0000
  H   H6        1.0  0.09178976952328093  0.5865329665388616  0.38210124058743117  1.0000
  H   H7        1.0  0.8812369999464166  0.29758200220024367  0.46909849988932695  1.0000
  H   H8        1.0  0.11876114388655876  0.7024333699956598  0.5308962509078937  1.0000
  H   H9        1.0  0.19687767525993394  0.9650546157904215  0.5807416508438691  1.0000
  H   H10       1.0  0.8031199475659675  0.034950189833835986  0.41925496642656407  1.0000
  H   H11       1.0  0.2728040421383896  0.19221911258549795  0.46143600025765585  1.0000
  H   H12       1.0  0.7271951028540117  0.8077796038631032  0.5385594504450778  1.0000
  C   C1        1.0  0.7791022287424807  0.1600994025937013  0.7531393458789565  1.0000
  C   C2        1.0  0.22088774205893444  0.8399050461429524  0.24685540704237494  1.0000
  C   C3        1.0  0.9341060796401808  0.2614287054525732  0.6004374801895762  1.0000
  C   C4        1.0  0.06588880311276307  0.7385807925127421  0.3995609937650712  1.0000
  C   C5        1.0  0.175349508642185  0.12024915141915217  0.5889957935318435  1.0000
  C   C6        1.0  0.8246517198495052  0.8797535043157582  0.4110031056293549  1.0000
  C   C7        1.0  0.28467822513868407  0.08088474294024191  0.7467130311018337  1.0000
  C   C8        1.0  0.7153306231169194  0.9191187001700313  0.2532825472089686  1.0000
  O   O1        1.0  0.8239253212444451  0.9619571539059564  0.7883634802400648  1.0000
  O   O2        1.0  0.17608032204985585  0.0380466477448991  0.21163276528773875  1.0000
  O   O3        1.0  0.6116510903415175  0.2851521381492076  0.8321930374765855  1.0000
  O   O4        1.0  0.38832755052060713  0.7148480860618844  0.16779803254555503  1.0000
  O   O5        1.0  0.44005776161773014  0.903931653484264  0.7845700493046478  1.0000
  O   O6        1.0  0.5599614945283377  0.09607422505342099  0.21541599923124014  1.0000
  O   O7        1.0  0.22166981837767002  0.22660633510674444  0.8255267713378486  1.0000
  O   O8        1.0  0.7783357530048888  0.7733844628920751  0.17448206757018872  1.0000
  O   O9        1.0  0.7976094974986621  0.5050496369602939  0.933099792318721  1.0000
  O   O10       1.0  0.20238723621351795  0.49493897682857824  0.06691305755623489  1.0000
