data_image0
_chemical_formula_structural       Zn6H36C36N24O12
_chemical_formula_sum              "Zn6 H36 C36 N24 O12"
_cell_length_a       12.11904793927487
_cell_length_b       12.11906700188714
_cell_length_c       12.119105349545379
_cell_angle_alpha    96.19952533888058
_cell_angle_beta     96.19960666409409
_cell_angle_gamma    96.19930897724585

_space_group_name_H-M_alt    "P 1"
_space_group_IT_number       1

loop_
  _space_group_symop_operation_xyz
  'x, y, z'

loop_
  _atom_site_type_symbol
  _atom_site_label
  _atom_site_symmetry_multiplicity
  _atom_site_fract_x
  _atom_site_fract_y
  _atom_site_fract_z
  _atom_site_occupancy
  Zn  Zn1       1.0  0.326088044813325  0.0469752013035034  0.7608679716475422  1.0000
  Zn  Zn2       1.0  0.7608654176829218  0.326088405851756  0.0469740936009444  1.0000
  Zn  Zn3       1.0  0.0469763827694223  0.7608669578769564  0.3260885713043109  1.0000
  Zn  Zn4       1.0  0.6739100972532767  0.9530240643520074  0.23913254843436246  1.0000
  Zn  Zn5       1.0  0.23913439801964387  0.6739094036695265  0.9530247997552196  1.0000
  Zn  Zn6       1.0  0.9530225956479017  0.23913490048443722  0.6739090196469918  1.0000
  H   H1        1.0  0.20829996338353857  0.1229775777461768  0.5094380090544348  1.0000
  H   H2        1.0  0.5094376528123378  0.20830056478560274  0.12297836674952123  1.0000
  H   H3        1.0  0.1229786966925417  0.5094380972883314  0.2082990209707418  1.0000
  H   H4        1.0  0.7916973424171729  0.8770240771498196  0.4905602038180135  1.0000
  H   H5        1.0  0.49056132473861436  0.7916996320876707  0.8770231698494869  1.0000
  H   H6        1.0  0.8770227905690504  0.49056240556991776  0.7916995200580814  1.0000
  H   H7        1.0  0.0762875895792661  0.06783305876981421  0.4339856830530877  1.0000
  H   H8        1.0  0.4339852854825281  0.0762889883887254  0.0678346362352471  1.0000
  H   H9        1.0  0.06783422188403421  0.4339841215158415  0.07628877451722359  1.0000
  H   H10       1.0  0.9237097169265028  0.9321669362118002  0.5660123500901548  1.0000
  H   H11       1.0  0.5660153644090044  0.9237105813632597  0.9321678387287663  1.0000
  H   H12       1.0  0.9321664285978244  0.5660162791375855  0.9237113150852494  1.0000
  H   H13       1.0  0.2007519244709499  0.032357766026926506  0.381813747897823  1.0000
  H   H14       1.0  0.3818138765291438  0.2007546523629529  0.03236049458424622  1.0000
  H   H15       1.0  0.0323615688571053  0.3818128863713852  0.2007537236929835  1.0000
  H   H16       1.0  0.799246217909939  0.9676414999433262  0.6181859471086995  1.0000
  H   H17       1.0  0.618186773009853  0.7992457473462196  0.9676420702443737  1.0000
  H   H18       1.0  0.9676415904307804  0.6181869890508338  0.7992465807762344  1.0000
  H   H19       1.0  0.13300512799072814  0.6258302831781181  0.6923198264131615  1.0000
  H   H20       1.0  0.692317872829399  0.13300476399221142  0.6258319478485107  1.0000
  H   H21       1.0  0.6258310557901011  0.6923181174549596  0.1330039571191577  1.0000
  H   H22       1.0  0.8669938482648405  0.37417074270810274  0.3076842752765998  1.0000
  H   H23       1.0  0.3076861229239398  0.8669952133200807  0.37416763312243967  1.0000
  H   H24       1.0  0.3741695960253821  0.3076806239135905  0.8669943026033381  1.0000
  H   H25       1.0  0.0567394262196075  0.5111316059034294  0.5969784119301735  1.0000
  H   H26       1.0  0.5969779535004279  0.05674084888784141  0.5111356171273727  1.0000
  H   H27       1.0  0.5111301282847406  0.5969759073607437  0.05673851815962652  1.0000
  H   H28       1.0  0.9432595482350762  0.48887440004066474  0.4030254038718227  1.0000
  H   H29       1.0  0.4030268738510898  0.9432625466810409  0.48887267563293346  1.0000
  H   H30       1.0  0.4888713596819088  0.4030229355831311  0.943259843139991  1.0000
  H   H31       1.0  0.3057772876412699  0.8969574026600923  0.916044955828582  1.0000
  H   H32       1.0  0.9160452219191838  0.3057774100394468  0.8969587768185008  1.0000
  H   H33       1.0  0.8969579047773734  0.9160440139790398  0.30577819191043437  1.0000
  H   H34       1.0  0.6942208545018218  0.10304020245154526  0.08395703467487442  1.0000
  H   H35       1.0  0.08395877485349251  0.6942209076732199  0.1030397993478545  1.0000
  H   H36       1.0  0.10303940070904359  0.0839576406022005  0.6942208460373962  1.0000
  C   C1        1.0  0.1598899848744466  0.9508862546007181  0.5229283295923892  1.0000
  C   C2        1.0  0.5229268002730336  0.15988784586130583  0.9508880622693642  1.0000
  C   C3        1.0  0.9508886144222188  0.5229273145445816  0.15988686693453505  1.0000
  C   C4        1.0  0.840108992362218  0.04911394195781331  0.47707403208200116  1.0000
  C   C5        1.0  0.4770746864364739  0.8401109958235722  0.049113599331782616  1.0000
  C   C6        1.0  0.049112035354582396  0.4770747460232201  0.8401134023971437  1.0000
  C   C7        1.0  0.1616242608681304  0.048971242262268816  0.45861759539415914  1.0000
  C   C8        1.0  0.4586176263542114  0.16162597203806683  0.04897221811015132  1.0000
  C   C9        1.0  0.04897376281046209  0.4586171570579865  0.16162577036207182  1.0000
  C   C10       1.0  0.8383730449708224  0.9510295823617837  0.5413813526890721  1.0000
  C   C11       1.0  0.5413821880147225  0.8383734967680921  0.9510285051259829  1.0000
  C   C12       1.0  0.9510285599737286  0.5413834467460888  0.8383745223946306  1.0000
  C   C13       1.0  0.08348989966427212  0.6617735851692147  0.5366253798541081  1.0000
  C   C14       1.0  0.5366173577426778  0.08348532443208262  0.661778718066266  1.0000
  C   C15       1.0  0.6617729774998152  0.5366277555312211  0.08348613290871754  1.0000
  C   C16       1.0  0.9165040624829787  0.33823430685995953  0.4633632447221173  1.0000
  C   C17       1.0  0.46336154856183503  0.916509109768619  0.33823322242966475  1.0000
  C   C18       1.0  0.3382301878658893  0.4633629925651733  0.9165074075221824  1.0000
  C   C19       1.0  0.12716587641565982  0.7804811508379361  0.5648578509223796  1.0000
  C   C20       1.0  0.5648592098516332  0.1271638383460711  0.7804842749452661  1.0000
  C   C21       1.0  0.7804841481051028  0.5648581099505281  0.12716106398765703  1.0000
  C   C22       1.0  0.872831427851864  0.2195196722123782  0.4351452225377558  1.0000
  C   C23       1.0  0.43514729372662236  0.8728364430627027  0.2195172609078  1.0000
  C   C24       1.0  0.2195165030053232  0.4351422913323971  0.8728373754640444  1.0000
  C   C25       1.0  0.18252231628880367  0.848284797024789  0.6596306207329832  1.0000
  C   C26       1.0  0.6596296220324903  0.1825205879641132  0.8482857278278358  1.0000
  C   C27       1.0  0.8482858417416209  0.6596302333869134  0.18251847533660034  1.0000
  C   C28       1.0  0.8174749882547588  0.15171685661221093  0.3403708924409941  1.0000
  C   C29       1.0  0.3403718660488905  0.8174757641639518  0.1517148391041161  1.0000
  C   C30       1.0  0.15171397380797202  0.3403708972221154  0.8174774771764463  1.0000
  C   C31       1.0  0.22223167722221862  0.8278381942279154  0.7740473177989459  1.0000
  C   C32       1.0  0.7740475564332955  0.2222305448869619  0.8278390858995408  1.0000
  C   C33       1.0  0.827836226929591  0.7740474350495744  0.2222299503917853  1.0000
  C   C34       1.0  0.7777656263019993  0.1721651190087101  0.22595520017962661  1.0000
  C   C35       1.0  0.2259572729569186  0.7777695314826688  0.17216719725158214  1.0000
  C   C36       1.0  0.17216609640668426  0.22595482992787205  0.7777672217925939  1.0000
  N   N1        1.0  0.2026919881334877  0.9551381314512071  0.6315354650061167  1.0000
  N   N2        1.0  0.631535725672265  0.20269178961723364  0.9551400916809387  1.0000
  N   N3        1.0  0.9551405759273379  0.6315361137836818  0.20269036431574253  1.0000
  N   N4        1.0  0.7973053167626107  0.04486269222860533  0.3684659583032612  1.0000
  N   N5        1.0  0.3684682698432695  0.7973065268364367  0.044861784786952845  1.0000
  N   N6        1.0  0.04486007447803081  0.3684659474136184  0.7973082548651719  1.0000
  N   N7        1.0  0.11366340668204339  0.8466488958047693  0.480405004600712  1.0000
  N   N8        1.0  0.48040515037889975  0.11365991720064268  0.8466503277328172  1.0000
  N   N9        1.0  0.846651492281687  0.48040558414008677  0.11365893479669613  1.0000
  N   N10       1.0  0.8863347343652137  0.15335202945036744  0.5195965202857806  1.0000
  N   N11       1.0  0.5195963372734624  0.8863389254284825  0.15334885864218253  1.0000
  N   N12       1.0  0.15334999407529182  0.5195940875019787  0.8863428166690568  1.0000
  N   N13       1.0  0.09430198747018181  0.5924534000969716  0.6138920273163109  1.0000
  N   N14       1.0  0.6138946278224965  0.0943020732747684  0.592451610815786  1.0000
  N   N15       1.0  0.5924568330731148  0.6138881416571423  0.09430033407510052  1.0000
  N   N16       1.0  0.9056969895968195  0.4075368325688161  0.3861208070381892  1.0000
  N   N17       1.0  0.3861260975159126  0.9057007724257248  0.4075319399036701  1.0000
  N   N18       1.0  0.4075379638450798  0.38611569901392795  0.9056961935090443  1.0000
  N   N19       1.0  0.2790837296757259  0.914574455776169  0.8376517380210302  1.0000
  N   N20       1.0  0.8376489488420163  0.27908306020148643  0.9145747496677573  1.0000
  N   N21       1.0  0.91457483355844  0.8376518011092815  0.2790844923014078  1.0000
  N   N22       1.0  0.7209110691963331  0.0854210837492886  0.162348016293997  1.0000
  N   N23       1.0  0.1623475255899649  0.7209101948062939  0.08541916268001162  1.0000
  N   N24       1.0  0.0854216376625345  0.16234975378512936  0.7209094936170146  1.0000
  O   O1        1.0  0.035975421454601496  0.6295026420336499  0.4373201735233394  1.0000
  O   O2        1.0  0.43732479551130143  0.035975337094384885  0.6295091342957093  1.0000
  O   O3        1.0  0.6295064154082368  0.4373181428344355  0.035971956600477036  1.0000
  O   O4        1.0  0.9640235516963429  0.3704975504331359  0.56269291413102  1.0000
  O   O5        1.0  0.5626959208358855  0.9640316511528155  0.37049384248056333  1.0000
  O   O6        1.0  0.370495070090719  0.5626865098097582  0.9640270337513571  1.0000
  O   O7        1.0  0.1991370541119792  0.72868218136162  0.8027089339872758  1.0000
  O   O8        1.0  0.8027074398771319  0.19913494295334294  0.7286836374300308  1.0000
  O   O9        1.0  0.7286840564473137  0.8027075285764981  0.19913661845345124  1.0000
  O   O10       1.0  0.8008569086853968  0.2713115960446261  0.19729218917219535  1.0000
  O   O11       1.0  0.1972940520904132  0.8008589221358949  0.271309234229669  1.0000
  O   O12       1.0  0.27131325029625236  0.19729412726373854  0.8008591191928504  1.0000
