data_image0
_chemical_formula_structural       Ag4H12C16O12
_chemical_formula_sum              "Ag4 H12 C16 O12"
_cell_length_a       6.708489183488284
_cell_length_b       8.504539278257992
_cell_length_c       9.77457709718751
_cell_angle_alpha    98.1074522766587
_cell_angle_beta     104.22243287444665
_cell_angle_gamma    113.77265084909791

_space_group_name_H-M_alt    "P 1"
_space_group_IT_number       1

loop_
  _space_group_symop_operation_xyz
  'x, y, z'

loop_
  _atom_site_type_symbol
  _atom_site_label
  _atom_site_symmetry_multiplicity
  _atom_site_fract_x
  _atom_site_fract_y
  _atom_site_fract_z
  _atom_site_occupancy
  Ag  Ag1       1.0  0.3928031866900811  0.35154568492317384  0.05052001551165119  1.0000
  Ag  Ag2       1.0  0.607191898828205  0.6484515441849794  0.9494823291368988  1.0000
  Ag  Ag3       1.0  0.22235068722368115  0.6221826077556328  0.09166983556644939  1.0000
  Ag  Ag4       1.0  0.777663819815352  0.37782417379805366  0.9083353454584185  1.0000
  H   H1        1.0  0.46636505954732144  0.7520669942619589  0.4345902375902639  1.0000
  H   H2        1.0  0.5336415636700879  0.24792788463082613  0.5654038321470196  1.0000
  H   H3        1.0  0.23935954396564801  0.9694636536725694  0.0447270709524759  1.0000
  H   H4        1.0  0.7606331413885741  0.030534854024452305  0.9552759812965589  1.0000
  H   H5        1.0  0.09648950406259647  0.9950565073895491  0.1386384530962773  1.0000
  H   H6        1.0  0.9035012184949167  0.004948687811356899  0.8613588564141851  1.0000
  H   H7        1.0  0.7778421045168429  0.9921112199629006  0.6300167357088783  1.0000
  H   H8        1.0  0.2221667341973657  0.007879683825535702  0.3699793471852004  1.0000
  H   H9        1.0  0.5989913712733074  0.9851521322786851  0.17400279646665961  1.0000
  H   H10       1.0  0.4010061921812422  0.014851796598577499  0.8259977400812772  1.0000
  H   H11       1.0  0.18809085170788367  0.43928758113208494  0.4945097130690926  1.0000
  H   H12       1.0  0.8119065562499088  0.5607189648403403  0.5054931468441879  1.0000
  C   C1        1.0  0.16293631949771742  0.31961486462899563  0.7319702947278586  1.0000
  C   C2        1.0  0.8370572177434427  0.6803823445066824  0.2680317471992311  1.0000
  C   C3        1.0  0.9986904468905706  0.22653218736043357  0.5781371118187906  1.0000
  C   C4        1.0  0.0013118488593167202  0.7734691684550229  0.42186301835271683  1.0000
  C   C5        1.0  0.8116737843090291  0.05675802279441911  0.5437931082238521  1.0000
  C   C6        1.0  0.18832861833594458  0.9432380511785182  0.45620540169053925  1.0000
  C   C7        1.0  0.671890557835596  0.9707030421757422  0.3978042673716048  1.0000
  C   C8        1.0  0.32811512603092297  0.02929576825761159  0.6021921272284417  1.0000
  C   C9        1.0  0.7117502264008306  0.053058739567241296  0.2869870944726927  1.0000
  C   C10       1.0  0.2882484319013587  0.9469386406742899  0.7130087938471377  1.0000
  C   C11       1.0  0.8971460455635738  0.22192428121091717  0.3214705323256483  1.0000
  C   C12       1.0  0.1028503292090264  0.7780770582508862  0.6785243516619204  1.0000
  C   C13       1.0  0.04180905374538926  0.3083949517541669  0.4670397194121065  1.0000
  C   C14       1.0  0.9581921374174772  0.6916049902231053  0.5329651506631309  1.0000
  C   C15       1.0  0.9391569791553138  0.31046746421969107  0.20302761552213164  1.0000
  C   C16       1.0  0.06084354478788613  0.6895364728343906  0.7969755441177782  1.0000
  O   O1        1.0  0.13357135542305093  0.234329661792998  0.8296131491308358  1.0000
  O   O2        1.0  0.8664220943541565  0.7656701803219049  0.17039020733707844  1.0000
  O   O3        1.0  0.3212381868285163  0.47533348143055315  0.7514966490209433  1.0000
  O   O4        1.0  0.6787565036013348  0.5246678062906651  0.248499949894196  1.0000
  O   O5        1.0  0.49288727557106443  0.8013639638120508  0.3529164519626278  1.0000
  O   O6        1.0  0.5071217672415573  0.19862698762857184  0.6470766044578796  1.0000
  O   O7        1.0  0.7886354020263796  0.23034580537299118  0.0733193461221617  1.0000
  O   O8        1.0  0.2113637097053029  0.7696581434767464  0.9266814931472355  1.0000
  O   O9        1.0  0.11970980461497764  0.4580478962493401  0.2391165397345745  1.0000
  O   O10       1.0  0.880297608826929  0.5419574392284544  0.7608891438345965  1.0000
  O   O11       1.0  0.2386714521806397  0.061654920330582286  0.11802086700722472  1.0000
  O   O12       1.0  0.7613259460377793  0.9383436631679201  0.8819820845816723  1.0000
