data_image0
_chemical_formula_structural       Hg2H36C30S2N8Cl4O4
_chemical_formula_sum              "Hg2 H36 C30 S2 N8 Cl4 O4"
_cell_length_a       8.232593528360288
_cell_length_b       9.09107024681702
_cell_length_c       13.324818977046856
_cell_angle_alpha    98.17698428579183
_cell_angle_beta     106.10175380137005
_cell_angle_gamma    93.90360687981814

_space_group_name_H-M_alt    "P 1"
_space_group_IT_number       1

loop_
  _space_group_symop_operation_xyz
  'x, y, z'

loop_
  _atom_site_type_symbol
  _atom_site_label
  _atom_site_symmetry_multiplicity
  _atom_site_fract_x
  _atom_site_fract_y
  _atom_site_fract_z
  _atom_site_occupancy
  Hg  Hg1       1.0  0.4804263896370741  0.050149233886038785  0.6378930268127194  1.0000
  Hg  Hg2       1.0  0.5195715767090759  0.9498506954103192  0.36210654273264015  1.0000
  H   H1        1.0  0.34746411989949877  0.08549444847665907  0.8148317006928284  1.0000
  H   H2        1.0  0.6525351102715646  0.9145054776384852  0.1851680790088538  1.0000
  H   H3        1.0  0.9008631713779991  0.011276799719851698  0.7194232059511025  1.0000
  H   H4        1.0  0.09913718565849196  0.9887220064274518  0.2805774036492395  1.0000
  H   H5        1.0  0.8808944841119268  0.0877163411890933  0.6032980534500966  1.0000
  H   H6        1.0  0.11910446165132532  0.9122813496948511  0.3967022133244457  1.0000
  H   H7        1.0  0.41025177790935885  0.4037550880876778  0.2629825626898494  1.0000
  H   H8        1.0  0.5897466940423682  0.5962392424887212  0.7370150488408032  1.0000
  H   H9        1.0  0.5063461351586723  0.5727113340975122  0.23931690697447294  1.0000
  H   H10       1.0  0.49364900864100036  0.4272863646721206  0.760681976919287  1.0000
  H   H11       1.0  0.5775455726870148  0.5142773137529416  0.36453494855709323  1.0000
  H   H12       1.0  0.42245321513905754  0.48571925702848506  0.6354644331361572  1.0000
  H   H13       1.0  0.6739934462669266  0.28469578470933493  0.2788922402845202  1.0000
  H   H14       1.0  0.32600811166140886  0.7153030083090997  0.7211040650012422  1.0000
  H   H15       1.0  0.6048747771220562  0.3391370707994952  0.15411657195188164  1.0000
  H   H16       1.0  0.395127391577283  0.6608661993131264  0.8458817688354332  1.0000
  H   H17       1.0  0.1515017695139207  0.3467695324243039  0.4427271777722695  1.0000
  H   H18       1.0  0.8484946381106581  0.6532281631641156  0.557271916277813  1.0000
  H   H19       1.0  0.13377424249424757  0.3417780803812107  0.3065597373091081  1.0000
  H   H20       1.0  0.8662209117942722  0.6582196200463597  0.6934398989964665  1.0000
  H   H21       1.0  0.9857966676849016  0.22842648595491974  0.3447568379746216  1.0000
  H   H22       1.0  0.014196253850450109  0.771573457724223  0.6552426433572693  1.0000
  H   H23       1.0  0.8706859935886225  0.45256757892216365  0.41746248307336503  1.0000
  H   H24       1.0  0.12931085638094683  0.54743347199998  0.5825370089851561  1.0000
  H   H25       1.0  0.02222591597495693  0.5735087073926266  0.3888463160917724  1.0000
  H   H26       1.0  0.977773482622119  0.4264923404829801  0.6111551011030232  1.0000
  H   H27       1.0  0.142997927639648  0.5746012348476058  0.26809217102628935  1.0000
  H   H28       1.0  0.8570030929395854  0.425393092682249  0.7319073656406447  1.0000
  H   H29       1.0  0.6873357242348204  0.6670480721308252  0.9558534227236067  1.0000
  H   H30       1.0  0.3126669287648837  0.33295855994728635  0.0441483257194193  1.0000
  H   H31       1.0  0.6086071298426673  0.5293942687366523  0.08374880242368485  1.0000
  H   H32       1.0  0.39139617621094647  0.47060788306606594  0.9162511206741117  1.0000
  H   H33       1.0  0.9169712676785337  0.811108383270458  0.9008720484276014  1.0000
  H   H34       1.0  0.08302793069847068  0.1889005018722045  0.09913234453267712  1.0000
  H   H35       1.0  0.38335324518955355  0.9462943255354401  0.9417083044994361  1.0000
  H   H36       1.0  0.6166483442053161  0.053704472456829  0.058290258021777716  1.0000
  C   C1        1.0  0.5306673203094191  0.4750454435075824  0.27865626202346766  1.0000
  C   C2        1.0  0.46933129909064053  0.5249500055133822  0.7213414821766693  1.0000
  C   C3        1.0  0.6560050854672497  0.3830944207800399  0.23927112045266344  1.0000
  C   C4        1.0  0.34399664088710574  0.6169054939988569  0.7607268223262128  1.0000
  C   C5        1.0  0.060723422958872696  0.3382036661865087  0.36375675645241773  1.0000
  C   C6        1.0  0.9392756702527051  0.6617951431420082  0.636243642991602  1.0000
  C   C7        1.0  0.9463780710532245  0.4633232296064163  0.362171007563532  1.0000
  C   C8        1.0  0.05361864195685939  0.5366767045290999  0.6378291042373265  1.0000
  C   C9        1.0  0.868247217141082  0.5368863556281696  0.18632963425748278  1.0000
  C   C10       1.0  0.1317561308678918  0.4631158028063283  0.8136732984875866  1.0000
  C   C11       1.0  0.04039747698050181  0.5913648736358255  0.20055438074353305  1.0000
  C   C12       1.0  0.959605839561945  0.4086372798248377  0.7994462947660781  1.0000
  C   C13       1.0  0.08092022448023782  0.6660420354219312  0.12617563157306222  1.0000
  C   C14       1.0  0.9190807223495622  0.3339612445036764  0.8738255087052028  1.0000
  C   C15       1.0  0.9572337459241209  0.6968597332082636  0.036032681101623595  1.0000
  C   C16       1.0  0.042767369331698994  0.30314466847779886  0.9639700966697478  1.0000
  C   C17       1.0  0.7857295279494565  0.6423508595653831  0.02313766356549963  1.0000
  C   C18       1.0  0.21427424142682838  0.35765465088694265  0.9768641623643719  1.0000
  C   C19       1.0  0.7420617693571002  0.5639699111868595  0.09437712932340502  1.0000
  C   C20       1.0  0.2579405782570987  0.43603448234416214  0.905623601368838  1.0000
  C   C21       1.0  0.010825587723921615  0.7811930647154027  0.9684028727222442  1.0000
  C   C22       1.0  0.9891745376259634  0.21881357372512866  0.031598455408129736  1.0000
  C   C23       1.0  0.18179608849214898  0.8290352787567343  0.9861100550142939  1.0000
  C   C24       1.0  0.8182048583376583  0.1709680011688661  0.013891085263971124  1.0000
  C   C25       1.0  0.3075309720849758  0.7872976203849048  0.0736105568520387  1.0000
  C   C26       1.0  0.6924654250507698  0.2127000735455766  0.9263877847862221  1.0000
  C   C27       1.0  0.2451412804994533  0.9176788669190188  0.9206555209466746  1.0000
  C   C28       1.0  0.7548592134965233  0.08232105601491208  0.07934446891133012  1.0000
  C   C29       1.0  0.12505462111655416  0.08197533525952848  0.6943151569912873  1.0000
  C   C30       1.0  0.8749465993552262  0.9180201190046229  0.3056882744042113  1.0000
  S   S1        1.0  0.21728030516216282  0.16869957308635716  0.6132726889454789  1.0000
  S   S2        1.0  0.7827187460940406  0.831299229610387  0.38672470085128213  1.0000
  N   N1        1.0  0.8250296356825045  0.463280447463525  0.2585814694643816  1.0000
  N   N2        1.0  0.17496736173539768  0.5367217219031915  0.7414181552636168  1.0000
  N   N3        1.0  0.14349904739858488  0.9603341854923215  0.8394273841810647  1.0000
  N   N4        1.0  0.8565031527672884  0.0396690895941205  0.16057321384170117  1.0000
  N   N5        1.0  0.22132618102217086  0.039846092934020305  0.7827384303851804  1.0000
  N   N6        1.0  0.7786740390548273  0.9601515964266626  0.2172627989574992  1.0000
  N   N7        1.0  0.9576047482634776  0.05525268459152239  0.6690151661108745  1.0000
  N   N8        1.0  0.04239294416370853  0.9447450111315733  0.330985642919167  1.0000
  Cl  Cl1       1.0  0.6667961302770066  0.9114930087834308  0.7558282262164797  1.0000
  Cl  Cl2       1.0  0.3331971179490694  0.08850021275734579  0.24416690719577624  1.0000
  Cl  Cl3       1.0  0.6421170635893744  0.1980895692943818  0.5296531906365659  1.0000
  Cl  Cl4       1.0  0.35787948099469696  0.8019092430806722  0.4703452836711791  1.0000
  O   O1        1.0  0.2504774794912947  0.7109797579509874  0.14225970827054377  1.0000
  O   O2        1.0  0.7495255421544936  0.28902015862053076  0.8577407019001061  1.0000
  O   O3        1.0  0.4638192939187674  0.8121674291057559  0.09322275731530998  1.0000
  O   O4        1.0  0.5361860659731406  0.18783135602699733  0.906774930851235  1.0000
