data_image0
_chemical_formula_structural       Cd4H16C20N8O20
_chemical_formula_sum              "Cd4 H16 C20 N8 O20"
_cell_length_a       6.454140681259536
_cell_length_b       10.067993875051696
_cell_length_c       10.59602271864595
_cell_angle_alpha    89.99994911769403
_cell_angle_beta     104.87144127786432
_cell_angle_gamma    89.99965882005954

_space_group_name_H-M_alt    "P 1"
_space_group_IT_number       1

loop_
  _space_group_symop_operation_xyz
  'x, y, z'

loop_
  _atom_site_type_symbol
  _atom_site_label
  _atom_site_symmetry_multiplicity
  _atom_site_fract_x
  _atom_site_fract_y
  _atom_site_fract_z
  _atom_site_occupancy
  Cd  Cd1       1.0  0.1251640912120777  0.5707946269725711  0.16811646287441553  1.0000
  Cd  Cd2       1.0  0.37484580596825623  0.0707947608954669  0.33188078277420624  1.0000
  Cd  Cd3       1.0  0.8748362425258804  0.42920459631015717  0.8318787485161818  1.0000
  Cd  Cd4       1.0  0.6251543853160798  0.9292074421237402  0.6681219558825119  1.0000
  H   H1        1.0  0.3563972004242118  0.6289543645174334  0.9688951065622646  1.0000
  H   H2        1.0  0.14360329724372892  0.1289536744882511  0.5310978090888411  1.0000
  H   H3        1.0  0.6436030977092387  0.371043865517983  0.031101986647009017  1.0000
  H   H4        1.0  0.8563969118708245  0.8710435622986878  0.46890398866528926  1.0000
  H   H5        1.0  0.5413548644038997  0.6273493098751289  0.10631173465434068  1.0000
  H   H6        1.0  0.9586511129321809  0.1273570109425108  0.3936812523153178  1.0000
  H   H7        1.0  0.45864865753659967  0.3726449471681264  0.8936849398016447  1.0000
  H   H8        1.0  0.041350716947619014  0.8726461853207969  0.6063198655979676  1.0000
  H   H9        1.0  0.2380951284930504  0.42629568583968347  0.6671353355283924  1.0000
  H   H10       1.0  0.2619117473494299  0.9262918964951294  0.8328687606499016  1.0000
  H   H11       1.0  0.7619019458486066  0.5737035374482887  0.33286217643787097  1.0000
  H   H12       1.0  0.7380996114978943  0.07370236052819483  0.16713862826961898  1.0000
  H   H13       1.0  0.1936066465439481  0.3393768717284616  0.4358766800114182  1.0000
  H   H14       1.0  0.3063987378891184  0.839375139319401  0.06412810799774599  1.0000
  H   H15       1.0  0.8064000457180286  0.6606273177729208  0.5641223984002295  1.0000
  H   H16       1.0  0.6936077051158877  0.16062706368347077  0.9358841431385229  1.0000
  C   C1        1.0  0.22481733241976806  0.44245294365196486  0.4652950068822648  1.0000
  C   C2        1.0  0.2751838086330167  0.9424503648498972  0.034708062953903586  1.0000
  C   C3        1.0  0.7751829301040943  0.5575452863826699  0.5347039681444627  1.0000
  C   C4        1.0  0.7248227056064209  0.05754885841493262  0.9653004245511523  1.0000
  C   C5        1.0  0.27766335544184534  0.6569970733768855  0.4631254180582473  1.0000
  C   C6        1.0  0.22232957596628466  0.15699309481336607  0.03687182621673909  1.0000
  C   C7        1.0  0.7223321514930205  0.34300711614773155  0.5368699510091588  1.0000
  C   C8        1.0  0.7776690479519387  0.8430061284702295  0.9631287695509554  1.0000
  C   C9        1.0  0.282926318745524  0.621736753499974  0.5916025028588833  1.0000
  C   C10       1.0  0.21707250739438425  0.12173345391727254  0.9083976968537044  1.0000
  C   C11       1.0  0.7170676564277445  0.3782654495363433  0.4083888415008231  1.0000
  C   C12       1.0  0.7829308720975805  0.8782627896159312  0.091606504869624  1.0000
  C   C13       1.0  0.30902082361079414  0.7820686327888852  0.3963246528884809  1.0000
  C   C14       1.0  0.1909724125888417  0.2820676947314525  0.10367348381276287  1.0000
  C   C15       1.0  0.6909810418836884  0.21793357022866638  0.603674583208587  1.0000
  C   C16       1.0  0.8090214379406859  0.7179364947952112  0.8963244469055667  1.0000
  C   C17       1.0  0.29349908514419104  0.6939715245641126  0.7156099331005379  1.0000
  C   C18       1.0  0.20650703427472186  0.19396837740364253  0.7843904522972878  1.0000
  C   C19       1.0  0.7064899030031598  0.306031671724469  0.2843900371194223  1.0000
  C   C20       1.0  0.7934980372474244  0.8060248863887127  0.21560930596135816  1.0000
  N   N1        1.0  0.2387045081618311  0.5436717264808877  0.38695076751614005  1.0000
  N   N2        1.0  0.26128952995396304  0.04366951558101561  0.11304957996474488  1.0000
  N   N3        1.0  0.7612971970945709  0.45632948328663064  0.6130569367606853  1.0000
  N   N4        1.0  0.7387090939540926  0.9563316941956402  0.8869510158004843  1.0000
  N   N5        1.0  0.2508640720027557  0.4862033612370597  0.588415508316622  1.0000
  N   N6        1.0  0.2491390023724449  0.9862005435010207  0.911586976528845  1.0000
  N   N7        1.0  0.7491298497815394  0.5137938755654332  0.4115786587754043  1.0000
  N   N8        1.0  0.7508707178641602  0.013795700017801903  0.0884220331304135  1.0000
  O   O1        1.0  0.2545023774373335  0.7835556833629698  0.2732803951531436  1.0000
  O   O2        1.0  0.2454892761543022  0.2835554175245677  0.22671559497408814  1.0000
  O   O3        1.0  0.7454946256749723  0.2164455264165071  0.7267208804455619  1.0000
  O   O4        1.0  0.7545046455893213  0.7164497652501822  0.7732785721081114  1.0000
  O   O5        1.0  0.3861708827660025  0.6351903152054064  0.06633653009559033  1.0000
  O   O6        1.0  0.11382875501861635  0.13519533697414937  0.4336580488064286  1.0000
  O   O7        1.0  0.6138342065406093  0.36480692157346084  0.9336622872494046  1.0000
  O   O8        1.0  0.8861683014775751  0.8648118322856889  0.566340404058721  1.0000
  O   O9        1.0  0.3923894175644094  0.8841950434338631  0.46356477543206137  1.0000
  O   O10       1.0  0.10760927413542731  0.38419448740020823  0.0364294482617282  1.0000
  O   O11       1.0  0.6076157429613859  0.11580219334656053  0.5364302782780399  1.0000
  O   O12       1.0  0.8923862328248617  0.6158047358917502  0.9635659208118169  1.0000
  O   O13       1.0  0.3043068660011414  0.8218599409903433  0.7149341486902898  1.0000
  O   O14       1.0  0.19569790859222283  0.32185683489997535  0.7850678019992117  1.0000
  O   O15       1.0  0.6956949816732845  0.17814524176642274  0.2850660283118174  1.0000
  O   O16       1.0  0.8043023717466012  0.6781394086419824  0.2149302321212474  1.0000
  O   O17       1.0  0.2808573908368999  0.6224806004476876  0.8108057918231211  1.0000
  O   O18       1.0  0.21915589018993137  0.12248245647899837  0.6891948739019041  1.0000
  O   O19       1.0  0.7191203763788325  0.3775216026168168  0.1891923508712736  1.0000
  O   O20       1.0  0.7808539903050901  0.8775108073037291  0.3108056675825067  1.0000
