data_image0
_chemical_formula_structural       Mn4H44C12N4Cl8O16
_chemical_formula_sum              "Mn4 H44 C12 N4 Cl8 O16"
_cell_length_a       5.717191600018496
_cell_length_b       8.152639494658983
_cell_length_c       18.500864987377604
_cell_angle_alpha    96.50648057817295
_cell_angle_beta     90.00013171998128
_cell_angle_gamma    89.99972210251244

_space_group_name_H-M_alt    "P 1"
_space_group_IT_number       1

loop_
  _space_group_symop_operation_xyz
  'x, y, z'

loop_
  _atom_site_type_symbol
  _atom_site_label
  _atom_site_symmetry_multiplicity
  _atom_site_fract_x
  _atom_site_fract_y
  _atom_site_fract_z
  _atom_site_occupancy
  Mn  Mn1       1.0  0.9239849987382269  0.2607406912868554  0.6734249379457469  1.0000
  Mn  Mn2       1.0  0.423984911607377  0.7392613455106413  0.8265760611769227  1.0000
  Mn  Mn3       1.0  0.07601323132710999  0.7392628879284544  0.326575815121281  1.0000
  Mn  Mn4       1.0  0.5760168166771605  0.26073973114608856  0.1734218702577267  1.0000
  H   H1        1.0  0.5771130134602911  0.4609956578438029  0.692714780021554  1.0000
  H   H2        1.0  0.07711418585968488  0.5390049910806239  0.8072832098153175  1.0000
  H   H3        1.0  0.42288696571976897  0.5390054389113813  0.3072847739380082  1.0000
  H   H4        1.0  0.9228892915455303  0.46099487113882986  0.1927162854330221  1.0000
  H   H5        1.0  0.48162568484264057  0.3523070661564062  0.6215413285802998  1.0000
  H   H6        1.0  0.9816263510968212  0.6476898338925351  0.8784583851930852  1.0000
  H   H7        1.0  0.5183760434540616  0.6476928027644034  0.37845870750936694  1.0000
  H   H8        1.0  0.018378875429149795  0.35230756596242674  0.12154153347318446  1.0000
  H   H9        1.0  0.3647512677983968  0.1039119361310767  0.6950636788439939  1.0000
  H   H10       1.0  0.8647531358146734  0.8960890564822602  0.8049372295224234  1.0000
  H   H11       1.0  0.6352452131667333  0.8960879327981599  0.3049363572442518  1.0000
  H   H12       1.0  0.13524859248001767  0.10391080573999997  0.19506226572543997  1.0000
  H   H13       1.0  0.20812225674298188  0.0829067102849095  0.765295342456405  1.0000
  H   H14       1.0  0.7081182009946475  0.9170923300061133  0.7347064454335952  1.0000
  H   H15       1.0  0.7918759733367793  0.9170919241114033  0.23470463492014207  1.0000
  H   H16       1.0  0.291878279968472  0.08290753222457428  0.2652930498128471  1.0000
  H   H17       1.0  0.5178418051502617  0.45137544402998486  0.9227033694663763  1.0000
  H   H18       1.0  0.017848173905498796  0.5486266566799216  0.5772968103863791  1.0000
  H   H19       1.0  0.4821581740523583  0.548619486773191  0.07729643177412272  1.0000
  H   H20       1.0  0.9821483070390897  0.45137938489987306  0.42270351926271854  1.0000
  H   H21       1.0  0.33493941539687455  0.29958266159635377  0.8739283310022902  1.0000
  H   H22       1.0  0.8349413086455755  0.7004184268180892  0.6260725612363418  1.0000
  H   H23       1.0  0.6650588146972324  0.700412275908178  0.12607201107953617  1.0000
  H   H24       1.0  0.16506216874513768  0.29958762814756307  0.3739288500982455  1.0000
  H   H25       1.0  0.5195640842704063  0.1550709407730793  0.9532410082668581  1.0000
  H   H26       1.0  0.019559398743673698  0.8449298997942448  0.5467574912770774  1.0000
  H   H27       1.0  0.48043414582176774  0.8449227421056945  0.046757652577404905  1.0000
  H   H28       1.0  0.9804388313156308  0.15507365932542427  0.45324163926456174  1.0000
  H   H29       1.0  0.6884300749996797  0.11378291088472277  0.8787452066949447  1.0000
  H   H30       1.0  0.1884274101404344  0.8862186215543275  0.6212534429158085  1.0000
  H   H31       1.0  0.3115716533094356  0.8862120065185477  0.12125351286243813  1.0000
  H   H32       1.0  0.811576067248346  0.11378617878556699  0.3787462871812154  1.0000
  H   H33       1.0  0.9676802722584054  0.3224796121711718  0.9283049730164668  1.0000
  H   H34       1.0  0.46768394546066355  0.6775222842044144  0.5716960497457324  1.0000
  H   H35       1.0  0.032317957851979884  0.6775128830673366  0.07169741500820243  1.0000
  H   H36       1.0  0.5323142846026696  0.322481288312346  0.4283041624794992  1.0000
  H   H37       1.0  0.9268743054018527  0.16096172918504684  0.9854202836522749  1.0000
  H   H38       1.0  0.4268746661034796  0.8390439952186597  0.5145803523283025  1.0000
  H   H39       1.0  0.073120426473217  0.8390332150236616  0.014580599270402702  1.0000
  H   H40       1.0  0.5731253130724737  0.16095833606663484  0.4854192603434343  1.0000
  H   H41       1.0  0.7834656146585957  0.35551388700287123  0.007452540445811501  1.0000
  H   H42       1.0  0.2834691918376464  0.6444880855138349  0.4925468796873746  1.0000
  H   H43       1.0  0.21653261544372526  0.64447858144144  0.9925476842116727  1.0000
  H   H44       1.0  0.7165290382297868  0.3555142524728153  0.5074532738256894  1.0000
  C   C1        1.0  0.5167243787465523  0.3378868933000731  0.8847768166376827  1.0000
  C   C2        1.0  0.016737233508536096  0.6621164857116923  0.6152266663752715  1.0000
  C   C3        1.0  0.48326860398729815  0.6621154379964623  0.11522279603216395  1.0000
  C   C4        1.0  0.9832627456713539  0.3378871068979024  0.3847751683758249  1.0000
  C   C5        1.0  0.8449000416611624  0.2654099802461047  0.9632485074436093  1.0000
  C   C6        1.0  0.3449082985867165  0.7345910627522867  0.5367513085017139  1.0000
  C   C7        1.0  0.15509818844108028  0.7345837361254153  0.03675285760963481  1.0000
  C   C8        1.0  0.655095178808267  0.26541126182883795  0.4632477633291715  1.0000
  C   C9        1.0  0.6287615300576022  0.3674885318437546  0.8129864639205099  1.0000
  C   C10       1.0  0.12876813689837258  0.6324983511712573  0.6870092854996703  1.0000
  C   C11       1.0  0.3712279544736461  0.6325088680365026  0.18701345474149636  1.0000
  C   C12       1.0  0.8712335913922898  0.36750149765391166  0.31298912806460794  1.0000
  N   N1        1.0  0.6379855594908292  0.20506797961936477  0.9191583706611444  1.0000
  N   N2        1.0  0.13798148147424882  0.794933741720875  0.5808424150266521  1.0000
  N   N3        1.0  0.3620196670391778  0.7949294336326955  0.08084262968871772  1.0000
  N   N4        1.0  0.8620202467998932  0.20507229315193595  0.41915737378207774  1.0000
  Cl  Cl1       1.0  0.6755053303396465  0.015183865424575104  0.6363998272857647  1.0000
  Cl  Cl2       1.0  0.1755020503599525  0.9848177286451046  0.863600437858111  1.0000
  Cl  Cl3       1.0  0.32449289972980466  0.9848184792606246  0.3636008670690958  1.0000
  Cl  Cl4       1.0  0.8244944306154094  0.015179677922461098  0.13640002164758874  1.0000
  Cl  Cl5       1.0  0.16364630995665408  0.23890741502546578  0.5618622934208306  1.0000
  Cl  Cl6       1.0  0.663643132038409  0.7610917614901851  0.938138929566755  1.0000
  Cl  Cl7       1.0  0.836353669223321  0.7610949296569203  0.43813840093449863  1.0000
  Cl  Cl8       1.0  0.3363550980393484  0.23890686620758567  0.06186050696799582  1.0000
  O   O1        1.0  0.6188520076795782  0.41502244507146446  0.6418764310193342  1.0000
  O   O2        1.0  0.11885324055478459  0.5849780898191952  0.8581232039231499  1.0000
  O   O3        1.0  0.381147971500475  0.5849786516837197  0.3581231229402351  1.0000
  O   O4        1.0  0.8811484877419248  0.4150217791016146  0.14187683216650984  1.0000
  O   O5        1.0  0.7707773279535174  0.26051351691729957  0.7842667458146767  1.0000
  O   O6        1.0  0.27078864799530317  0.7394828127538556  0.7157317134998639  1.0000
  O   O7        1.0  0.22922265121622587  0.7394912901267573  0.2157335251231985  1.0000
  O   O8        1.0  0.7292218258397652  0.26051950511748595  0.2842668174911226  1.0000
  O   O9        1.0  0.5642502789122048  0.4965651595074333  0.7853732167295252  1.0000
  O   O10       1.0  0.06425450101912838  0.5034404889629016  0.7146266235236927  1.0000
  O   O11       1.0  0.4357444529506224  0.503432240364397  0.2146267019339022  1.0000
  O   O12       1.0  0.9357472272530031  0.4965655392113603  0.28537262444323386  1.0000
  O   O13       1.0  0.21658234164965506  0.13774681321482518  0.7200725481132655  1.0000
  O   O14       1.0  0.7165737639550613  0.8622596271730812  0.7799312191507188  1.0000
  O   O15       1.0  0.783414139313379  0.862254296943071  0.27992808752894416  1.0000
  O   O16       1.0  0.283424466114475  0.13774146958491676  0.2200683348083744  1.0000
