data_image0
_chemical_formula_structural       Cu2H54C48S16O16
_chemical_formula_sum              "Cu2 H54 C48 S16 O16"
_cell_length_a       9.60932915880929
_cell_length_b       13.368544166735571
_cell_length_c       13.46811309131559
_cell_angle_alpha    92.08626965159074
_cell_angle_beta     110.5927510241222
_cell_angle_gamma    109.39055923895035

_space_group_name_H-M_alt    "P 1"
_space_group_IT_number       1

loop_
  _space_group_symop_operation_xyz
  'x, y, z'

loop_
  _atom_site_type_symbol
  _atom_site_label
  _atom_site_symmetry_multiplicity
  _atom_site_fract_x
  _atom_site_fract_y
  _atom_site_fract_z
  _atom_site_occupancy
  Cu  Cu1       1.0  0.8555032522946959  0.7749913470332287  0.21638267310833464  1.0000
  Cu  Cu2       1.0  0.14449486449831989  0.22500880928166814  0.7836174832862708  1.0000
  H   H1        1.0  0.9632534118104985  0.5687774903272498  0.5470999143881341  1.0000
  H   H2        1.0  0.03674648299404743  0.4312218567849301  0.4528999169620817  1.0000
  H   H3        1.0  0.059972140650685894  0.5008629491681731  0.6436633389913237  1.0000
  H   H4        1.0  0.9400308624887895  0.49913800648780426  0.3563380705928906  1.0000
  H   H5        1.0  0.9681644238807436  0.5825356423423926  0.682513051792945  1.0000
  H   H6        1.0  0.03183791212952498  0.41746612104851255  0.317488961321004  1.0000
  H   H7        1.0  0.3863284489012031  0.6400263520332885  0.26294172339629535  1.0000
  H   H8        1.0  0.6136714477752108  0.35997299718872705  0.7370595934875721  1.0000
  H   H9        1.0  0.30736477470564694  0.5694748846345377  0.1283159457166505  1.0000
  H   H10       1.0  0.6926342372723581  0.43052285521794426  0.871685835437546  1.0000
  H   H11       1.0  0.4971910529757437  0.5741518274517929  0.22047710169875495  1.0000
  H   H12       1.0  0.5028097283990932  0.4258491311397562  0.7795237509147765  1.0000
  H   H13       1.0  0.6549487950854386  0.3772055327678315  0.2389525331912948  1.0000
  H   H14       1.0  0.3450479902569723  0.6227962421816641  0.7610510585632467  1.0000
  H   H15       1.0  0.9611763461127792  0.7084849324490249  0.45205059862443847  1.0000
  H   H16       1.0  0.03882265537865951  0.2915168332354057  0.5479490934998381  1.0000
  H   H17       1.0  0.7662745595297196  0.6053002935979065  0.3874260573605141  1.0000
  H   H18       1.0  0.23372622184511727  0.3947006649936426  0.6125747952530246  1.0000
  H   H19       1.0  0.8119861695427559  0.6930208074813392  0.5083003796231649  1.0000
  H   H20       1.0  0.1880146108961398  0.3069801500552884  0.4916997302235443  1.0000
  H   H21       1.0  0.3304266296091428  0.9262068368102663  0.43699431938142647  1.0000
  H   H22       1.0  0.6695745955188029  0.07379492804842872  0.5630074152471848  1.0000
  H   H23       1.0  0.26372306732622525  0.8373296609171135  0.31373554153318384  1.0000
  H   H24       1.0  0.7362794948679507  0.1626704916364758  0.686267214336439  1.0000
  H   H25       1.0  0.17780124365792457  0.7947972960286408  0.4108853955114639  1.0000
  H   H26       1.0  0.8222002076539285  0.20520285799273102  0.589117081872814  1.0000
  H   H27       1.0  0.8401612261633815  0.7518965997665318  0.9657838591703578  1.0000
  H   H28       1.0  0.1598371149416735  0.24810194360121324  0.03421555444626989  1.0000
  H   H29       1.0  0.8029550185447931  0.8743284430437442  0.966269749594481  1.0000
  H   H30       1.0  0.19704332162432786  0.1256700992690867  0.03372892125532449  1.0000
  H   H31       1.0  0.6529303357639835  0.75648813913449  0.8737518258202568  1.0000
  H   H32       1.0  0.3470664525775078  0.24350960154372814  0.12624791282960499  1.0000
  H   H33       1.0  0.9616067825956592  0.5113930562186795  0.08798430407072289  1.0000
  H   H34       1.0  0.0383924422718707  0.48860709546367787  0.9120139025087466  1.0000
  H   H35       1.0  0.10471003422605207  0.638978746772345  0.16801390008244244  1.0000
  H   H36       1.0  0.8952885216403954  0.36102221053511113  0.8319834244931169  1.0000
  H   H37       1.0  0.9620180275279965  0.6363341850839674  0.03948448359858502  1.0000
  H   H38       1.0  0.03798008645721749  0.3636659680661722  0.9605134444955464  1.0000
  H   H39       1.0  0.6348335430182033  0.777209280756409  0.6237469192211619  1.0000
  H   H40       1.0  0.36516124393566685  0.22279088312659218  0.37625463001789666  1.0000
  H   H41       1.0  0.8377292873041428  0.12104476823117948  0.33213569819226757  1.0000
  H   H42       1.0  0.1622679419826554  0.8789537755494338  0.6678626941721928  1.0000
  H   H43       1.0  0.8309781223530451  0.214144576219887  0.23821331686951902  1.0000
  H   H44       1.0  0.16902132963432573  0.7858539656800757  0.7617863752324464  1.0000
  H   H45       1.0  0.015776562355696883  0.1978310573957032  0.3125852895807597  1.0000
  H   H46       1.0  0.984222446814499  0.8021666792920356  0.6874142632729628  1.0000
  H   H47       1.0  0.3870611749764308  0.04652680380632999  0.2531927132859764  1.0000
  H   H48       1.0  0.6129400473437059  0.9534749578876074  0.7468067930421609  1.0000
  H   H49       1.0  0.5931373473380219  0.1288969212697211  0.29063530759970035  1.0000
  H   H50       1.0  0.4068645421113219  0.8711040326892958  0.7093635951987024  1.0000
  H   H51       1.0  0.5339562902903979  0.041745396900488216  0.3782902603706616  1.0000
  H   H52       1.0  0.46604448734069587  0.9582555574713894  0.6217076211755808  1.0000
  H   H53       1.0  0.2052517852672295  0.7558684038938921  0.0017263195457957266  1.0000
  H   H54       1.0  0.7947501060539891  0.24413255217495328  0.9982740687862586  1.0000
  C   C1        1.0  0.6271909133232113  0.46125493062854883  0.535951660355593  1.0000
  C   C2        1.0  0.37281475533401226  0.5387468283589953  0.46405118821437685  1.0000
  C   C3        1.0  0.5226833722305174  0.43768935165419975  0.42711624433022877  1.0000
  C   C4        1.0  0.47732096891112263  0.5623099927515938  0.5728869292618269  1.0000
  C   C5        1.0  0.39702815177129486  0.4757985576000294  0.39000480565606194  1.0000
  C   C6        1.0  0.6029777430698358  0.5242015905501984  0.6099987856695888  1.0000
  C   C7        1.0  0.5473017358126525  0.3721723065798841  0.34616874843886336  1.0000
  C   C8        1.0  0.45270038169247323  0.6278270386516452  0.6538323826488577  1.0000
  C   C9        1.0  0.95938418199394  0.5283254351400329  0.6157369866322994  1.0000
  C   C10       1.0  0.040617266510103785  0.4716747157165882  0.38426326245150455  1.0000
  C   C11       1.0  0.37790673943108993  0.5701541326675681  0.21265784576772961  1.0000
  C   C12       1.0  0.622094268127647  0.429845215086658  0.7873437496014757  1.0000
  C   C13       1.0  0.8942937601417428  0.9019978429102409  0.43196971974701626  1.0000
  C   C14       1.0  0.10570568135906198  0.0980047248216636  0.5680278833250296  1.0000
  C   C15       1.0  0.032905103621274676  0.9612730840601388  0.414949955526687  1.0000
  C   C16       1.0  0.9670941212462552  0.0387270676222258  0.5850482510527824  1.0000
  C   C17       1.0  0.8333957710688296  0.6871076556856011  0.43406404688982286  1.0000
  C   C18       1.0  0.16660389942368434  0.3128933043737305  0.5659365272383707  1.0000
  C   C19       1.0  0.2271911450408409  0.8634596851276797  0.3755310152065191  1.0000
  C   C20       1.0  0.7728103062710121  0.13654046889369204  0.6244714621777588  1.0000
  C   C21       1.0  0.5743422107088421  0.6128728771542384  0.025682690672958614  1.0000
  C   C22       1.0  0.4256563498372897  0.3871280854277969  0.9743183477367193  1.0000
  C   C23       1.0  0.6592968502039157  0.5477562796949372  0.07424787397093274  1.0000
  C   C24       1.0  0.3407017103422163  0.45224468288709835  0.9257531644387453  1.0000
  C   C25       1.0  0.5856781466281404  0.43504618292705294  0.0469001132840035  1.0000
  C   C26       1.0  0.4143210801112645  0.5649539708651404  0.9530995788291177  1.0000
  C   C27       1.0  0.679229251788719  0.36178596646185207  0.08419762679894657  1.0000
  C   C28       1.0  0.32076975363773386  0.6382117660062149  0.9157989549874795  1.0000
  C   C29       1.0  0.7480679082990349  0.7861923683151488  0.9542488538127569  1.0000
  C   C30       1.0  0.251929322859631  0.21380617757529305  0.045751024085355085  1.0000
  C   C31       1.0  0.9823039361904122  0.5963173977874235  0.10953566964560217  1.0000
  C   C32       1.0  0.017694620611976575  0.4036835605749474  0.8904623976967796  1.0000
  C   C33       1.0  0.8617752265725898  0.9405337699002557  0.5163881558875045  1.0000
  C   C34       1.0  0.1382259957475469  0.05946799179368161  0.4836113504406325  1.0000
  C   C35       1.0  0.7107539138596619  0.8779063738280753  0.5331680715063243  1.0000
  C   C36       1.0  0.2892468665792336  0.12209458370855938  0.466832038340385  1.0000
  C   C37       1.0  0.6555719264887828  0.0251368584117486  0.07912984140558885  1.0000
  C   C38       1.0  0.34442574374332224  0.9748624884712598  0.9208672046734702  1.0000
  C   C39       1.0  0.5207919016239015  0.9769096365270398  0.10506626984913221  1.0000
  C   C40       1.0  0.47920799130876907  0.023089708475311006  0.8949320759674391  1.0000
  C   C41       1.0  0.36719297408746576  0.9522924759208063  0.025513078095428864  1.0000
  C   C42       1.0  0.6328095824910916  0.0477076703032822  0.9744852211732461  1.0000
  C   C43       1.0  0.22139558611685578  0.9027409566009086  0.05245570674320282  1.0000
  C   C44       1.0  0.7786047505689312  0.09725919466858807  0.947543521088434  1.0000
  C   C45       1.0  0.8856906875005351  0.15710950109478009  0.2736080687042346  1.0000
  C   C46       1.0  0.114308763550902  0.8428890397502614  0.7263908806309087  1.0000
  C   C47       1.0  0.5103138049944603  0.05120725897052128  0.2942173149797255  1.0000
  C   C48       1.0  0.48968808445489026  0.9487936949884882  0.7057815878186772  1.0000
  S   S1        1.0  0.7808417571386029  0.40785255591433855  0.5755683369908409  1.0000
  S   S2        1.0  0.21916258400302974  0.5921467884914478  0.4244348366012146  1.0000
  S   S3        1.0  0.2762110323130359  0.4462588288790671  0.24984679355123515  1.0000
  S   S4        1.0  0.7237933097645309  0.5537405165816409  0.7501571228076499  1.0000
  S   S5        1.0  0.7576478498386264  0.7755186487351865  0.34987654681008  1.0000
  S   S6        1.0  0.2423538162346189  0.22448391922589642  0.65012384153313  1.0000
  S   S7        1.0  0.07746838321887839  0.9190370726640608  0.30561841172404053  1.0000
  S   S8        1.0  0.9225332905331314  0.0809614663003302  0.6943818373486151  1.0000
  S   S9        1.0  0.660643985464162  0.7569684009761914  0.05466344240508647  1.0000
  S   S10       1.0  0.33935435657682683  0.24303014344646806  0.9453367139783635  1.0000
  S   S11       1.0  0.8540785214814335  0.6059190781354289  0.1782725201345982  1.0000
  S   S12       1.0  0.14592070619391248  0.3940810767116787  0.8217279147453522  1.0000
  S   S13       1.0  0.8560265823696652  0.05467052366630299  0.16847718395055716  1.0000
  S   S14       1.0  0.1439702022280826  0.9453272127922574  0.8315195836320013  1.0000
  S   S15       1.0  0.5411053267310776  0.9409268091314615  0.23373722074980205  1.0000
  S   S16       1.0  0.4588916754358793  0.059073344431553196  0.7662596860921623  1.0000
  O   O1        1.0  0.638094380768962  0.42844884782518033  0.3003487352317221  1.0000
  O   O2        1.0  0.361906400605875  0.5715521107663619  0.6996521173818164  1.0000
  O   O3        1.0  0.4831146348545445  0.27187583786520964  0.3266416051929965  1.0000
  O   O4        1.0  0.5168832548186373  0.7281259282320817  0.6733570656791128  1.0000
  O   O5        1.0  0.6912813319899911  0.32752333974054443  0.17303549375208854  1.0000
  O   O6        1.0  0.30871012250819513  0.67247279110979  0.8269591386257884  1.0000
  O   O7        1.0  0.7379500896961774  0.3393974817466515  0.020539690916329838  1.0000
  O   O8        1.0  0.2620451335233156  0.6606034799641519  0.9794567982032019  1.0000
  O   O9        1.0  0.7325583275724482  0.8103558907390395  0.6014931256203082  1.0000
  O   O10       1.0  0.2674473371497541  0.18964990146486121  0.3985128332875191  1.0000
  O   O11       1.0  0.5853488320280108  0.892324127655833  0.48801263331869643  1.0000
  O   O12       1.0  0.41465062183123536  0.10767441635395869  0.5119885443169208  1.0000
  O   O13       1.0  0.1501982368551752  0.7957761893576817  0.03042780905585833  1.0000
  O   O14       1.0  0.8498065471036326  0.20422396026032888  0.9695755037844476  1.0000
  O   O15       1.0  0.1695898519055562  0.9584872568328111  0.09274110187254793  1.0000
  O   O16       1.0  0.8304135931151535  0.04151450298047621  0.9072597041930944  1.0000
