data_image0
_chemical_formula_structural       AlH12C39N7O30
_chemical_formula_sum              "Al1 H12 C39 N7 O30"
_cell_length_a       4.416911517433435
_cell_length_b       18.31344637137722
_cell_length_c       18.263890294201417
_cell_angle_alpha    120.57011119076681
_cell_angle_beta     89.60573423622398
_cell_angle_gamma    88.875035526358

_space_group_name_H-M_alt    "P 1"
_space_group_IT_number       1

loop_
  _space_group_symop_operation_xyz
  'x, y, z'

loop_
  _atom_site_type_symbol
  _atom_site_label
  _atom_site_symmetry_multiplicity
  _atom_site_fract_x
  _atom_site_fract_y
  _atom_site_fract_z
  _atom_site_occupancy
  Al  Al1       1.0  0.9909860388869516  0.0018877462685865053  0.5013068321227722  1.0000
  H   H1        1.0  0.8478584850165519  0.9581508446948561  0.25204486713973756  1.0000
  H   H2        1.0  0.724171951271991  0.0326103575131853  0.12081857316340462  1.0000
  H   H3        1.0  0.17026693839621737  0.2702137812595993  0.5553776329171216  1.0000
  H   H4        1.0  0.2987740708908007  0.38889125417117043  0.47134553186349865  1.0000
  H   H5        1.0  0.6699038012390943  0.5894569396441015  0.46704687543009293  1.0000
  H   H6        1.0  0.6283073974749412  0.7886986079404111  0.5604596107636797  1.0000
  H   H7        1.0  0.33119859276470726  0.5802515483207242  0.11459887083468343  1.0000
  H   H8        1.0  0.16746793916804845  0.7817474668749823  0.23410244273467387  1.0000
  H   H9        1.0  0.3590468406279825  0.0280279052920136  0.9160115165519473  1.0000
  H   H10       1.0  0.9242727822443866  0.9326032001996936  0.7220633408612829  1.0000
  H   H11       1.0  0.7876968579515804  0.3809280889364929  0.9164405020044132  1.0000
  H   H12       1.0  0.8990061424999355  0.2501955145670324  0.7084541637600739  1.0000
  C   C1        1.0  0.49495583110686425  0.0723681916678913  0.44092892732220446  1.0000
  C   C2        1.0  0.5016736511665201  0.06212827119919239  0.6317659545625746  1.0000
  C   C3        1.0  0.4765292244955077  0.8697030915542997  0.4290307770486097  1.0000
  C   C4        1.0  0.5769124149298008  0.24979703914770818  0.3872143316877158  1.0000
  C   C5        1.0  0.5101912914804103  0.20673706726298488  0.30021434029166744  1.0000
  C   C6        1.0  0.6287324661222228  0.11089045961464451  0.860240212777882  1.0000
  C   C7        1.0  0.5830661064919198  0.1998046129433391  0.9070779914004066  1.0000
  C   C8        1.0  0.5056674763050069  0.5936436259567727  0.2964000337185838  1.0000
  C   C9        1.0  0.585213152637259  0.6364602547765658  0.25365469109740263  1.0000
  C   C10       1.0  0.5144199273243403  0.2432048217753788  0.8640151089191337  1.0000
  C   C11       1.0  0.5107853153252221  0.19844894176651454  0.7748424031243532  1.0000
  C   C12       1.0  0.5337485322552099  0.10969147869107593  0.7280266269442991  1.0000
  C   C13       1.0  0.5841819159416558  0.06609686913738241  0.7720905989672392  1.0000
  C   C14       1.0  0.5597950585308169  0.7251553292146228  0.29587753715350135  1.0000
  C   C15       1.0  0.4661413166959818  0.7733645502834465  0.38173447106654396  1.0000
  C   C16       1.0  0.3742757411484661  0.7298159510988355  0.42281662666737685  1.0000
  C   C17       1.0  0.3975417922387195  0.640767331164888  0.3810761520148421  1.0000
  C   C18       1.0  0.4412568897164419  0.12030290843824079  0.2593310855422004  1.0000
  C   C19       1.0  0.4505201276822889  0.0776092508547563  0.3048983654301908  1.0000
  C   C20       1.0  0.502161824082009  0.1206477597602884  0.3929564486908746  1.0000
  C   C21       1.0  0.5597686632261726  0.2078280082611954  0.4335705696846831  1.0000
  C   C22       1.0  0.5120328224966072  0.3789423054091756  0.2574357271436087  1.0000
  C   C23       1.0  0.5473893556394599  0.24344201359649986  0.12366452736328883  1.0000
  C   C24       1.0  0.5144470826127403  0.2517096572337395  0.25264575212034407  1.0000
  C   C25       1.0  0.5221800084652344  0.5004195364831786  0.25110118563524264  1.0000
  C   C26       1.0  0.5645127382682205  0.3762853975702001  0.12315598740872258  1.0000
  C   C27       1.0  0.5825137402222537  0.2468770424234066  0.00047782050341994197  1.0000
  C   C28       1.0  0.4060108312812504  0.9839503058020326  0.2575147101254699  1.0000
  C   C29       1.0  0.3232345906717526  0.071763188538327  0.16930697472084696  1.0000
  C   C30       1.0  0.6096603897532731  0.2604071855178987  0.5273262812237719  1.0000
  C   C31       1.0  0.6985593418247262  0.33911373469661743  0.43299075651069785  1.0000
  C   C32       1.0  0.2731550340554634  0.5994859975395103  0.42883208466287953  1.0000
  C   C33       1.0  0.23148641244813453  0.7741816798203729  0.5108091926405225  1.0000
  C   C34       1.0  0.7241298722886639  0.5920322561996799  0.1644592834520823  1.0000
  C   C35       1.0  0.6126357647496974  0.7657977441299694  0.2436487963550676  1.0000
  C   C36       1.0  0.753809415035562  0.06252329526313363  0.9010604449795426  1.0000
  C   C37       1.0  0.5092102726427896  0.97381550575642  0.7296193038637216  1.0000
  C   C38       1.0  0.3927133039265058  0.33419249138378154  0.9080852263073144  1.0000
  C   C39       1.0  0.4597674750009303  0.2464965372787233  0.7297527137265405  1.0000
  N   N1        1.0  0.5420101548233162  0.3328349893226203  0.16809726276760273  1.0000
  N   N2        1.0  0.532088328122036  0.20370647529138353  0.16757278930939634  1.0000
  N   N3        1.0  0.5002859208247655  0.3367095606942741  0.2988906243496461  1.0000
  N   N4        1.0  0.4966228703629554  0.46329778660474125  0.2979173528917017  1.0000
  N   N5        1.0  0.5585265271890022  0.4605957728312547  0.16630910523854694  1.0000
  N   N6        1.0  0.5662881006571111  0.20122576469864842  0.039069619541443536  1.0000
  N   N7        1.0  0.5887221320349383  0.3316877975820489  0.03872135768781964  1.0000
  O   O1        1.0  0.24343171211032902  0.9089010928679856  0.4763756032798628  1.0000
  O   O2        1.0  0.25863275229654187  0.030383918726791102  0.43267365190713053  1.0000
  O   O3        1.0  0.25951275367745547  0.07376340420265852  0.6016060725026692  1.0000
  O   O4        1.0  0.7111838647803026  0.9032359210899729  0.4199954701024924  1.0000
  O   O5        1.0  0.7294391333168306  0.014237446059837601  0.5896867434374686  1.0000
  O   O6        1.0  0.7267519516945526  0.0776752284264859  0.4845696082123682  1.0000
  O   O7        1.0  0.6364247859348992  0.9354941242845599  0.251007625537305  1.0000
  O   O8        1.0  0.16124770876688638  0.9538467653902032  0.2255575266425183  1.0000
  O   O9        1.0  0.505386990152388  0.018526987882538003  0.10656069183401233  1.0000
  O   O10       1.0  0.04972447322476369  0.07828423377372933  0.16041344133213198  1.0000
  O   O11       1.0  0.38385273459135755  0.2763654521779912  0.5793572848057098  1.0000
  O   O12       1.0  0.8590250023898919  0.2909798550112939  0.5541039091934012  1.0000
  O   O13       1.0  0.5176968369293317  0.40304794398289084  0.48500279323106105  1.0000
  O   O14       1.0  0.971913218451995  0.3466552115969038  0.4258471465922541  1.0000
  O   O15       1.0  0.4489420940660551  0.5888126941803054  0.48068953670340897  1.0000
  O   O16       1.0  0.9993382068226351  0.5865275564720774  0.4245500778769014  1.0000
  O   O17       1.0  0.4059126822596254  0.7950339679047786  0.5760701861569049  1.0000
  O   O18       1.0  0.9542097556954231  0.7840981106282428  0.518351265705242  1.0000
  O   O19       1.0  0.5526821562502704  0.578902694108521  0.1003933086035787  1.0000
  O   O20       1.0  0.00031088614854009143  0.5788331977044692  0.1572370562836839  1.0000
  O   O21       1.0  0.3814987034993464  0.8003854044260593  0.22856845246304414  1.0000
  O   O22       1.0  0.8627578565920755  0.7630108081715791  0.21182512189921723  1.0000
  O   O23       1.0  0.5809942634717443  0.014236392817082298  0.9164611842228825  1.0000
  O   O24       1.0  0.0304939056001174  0.0650610542297656  0.9105594572875901  1.0000
  O   O25       1.0  0.706844839403871  0.9148824645789232  0.7191282119530914  1.0000
  O   O26       1.0  0.2416701892481754  0.9587051135824326  0.709633305346124  1.0000
  O   O27       1.0  0.5662746273136249  0.39544782486595415  0.9167567731349141  1.0000
  O   O28       1.0  0.11865656741794345  0.34444625544330176  0.9244735308010521  1.0000
  O   O29       1.0  0.6870967392728672  0.2514062374323416  0.6866646097978164  1.0000
  O   O30       1.0  0.21022060214482954  0.2791412395719989  0.7326262309027601  1.0000
