data_image0
_chemical_formula_structural       Ga4H12C8O20
_chemical_formula_sum              "Ga4 H12 C8 O20"
_cell_length_a       6.871842370461809
_cell_length_b       6.871828497884494
_cell_length_c       10.09825921762597
_cell_angle_alpha    100.15490177133208
_cell_angle_beta     100.1540564550979
_cell_angle_gamma    100.03203824895613

_space_group_name_H-M_alt    "P 1"
_space_group_IT_number       1

loop_
  _space_group_symop_operation_xyz
  'x, y, z'

loop_
  _atom_site_type_symbol
  _atom_site_label
  _atom_site_symmetry_multiplicity
  _atom_site_fract_x
  _atom_site_fract_y
  _atom_site_fract_z
  _atom_site_occupancy
  Ga  Ga1       1.0  0.751638998066568  0.24728002873691676  0.7498751812004513  1.0000
  Ga  Ga2       1.0  0.7527224342943841  0.24835761791602803  0.2501258520020214  1.0000
  Ga  Ga3       1.0  0.7518739675352109  0.7473726807578059  0.7499534438612869  1.0000
  Ga  Ga4       1.0  0.252634728932705  0.2481231915489559  0.2500467182594406  1.0000
  H   H1        1.0  0.22582592633649062  0.04919031871418159  0.6407961162530355  1.0000
  H   H2        1.0  0.9508100238519361  0.7741695495423709  0.35920810979347795  1.0000
  H   H3        1.0  0.44015676151360583  0.8513437646405959  0.40701789955949147  1.0000
  H   H4        1.0  0.1486586174580538  0.5598512540657623  0.5929800308013  1.0000
  H   H5        1.0  0.06351083520333842  0.6429618892307829  0.09278169740608179  1.0000
  H   H6        1.0  0.35704946462927717  0.9364781698832867  0.907221804850053  1.0000
  H   H7        1.0  0.8043455940738795  0.464774571423625  0.5759762124856636  1.0000
  H   H8        1.0  0.535227263308208  0.19565105965233437  0.4240235741544183  1.0000
  H   H9        1.0  0.7003352906141062  0.03018851824409549  0.9241755066492771  1.0000
  H   H10       1.0  0.9698145383428385  0.29967180427978946  0.07582504067993054  1.0000
  H   H11       1.0  0.2766312946108016  0.44547568661004516  0.8577280180266698  1.0000
  H   H12       1.0  0.5545250052437751  0.7233644988815868  0.1422680700310366  1.0000
  C   C1        1.0  0.0799662259479348  0.028802282976535296  0.6737161212632542  1.0000
  C   C2        1.0  0.9711996198031799  0.9200280266109857  0.32628578610940906  1.0000
  C   C3        1.0  0.5360004741803835  0.8970688329832014  0.5118652467495863  1.0000
  C   C4        1.0  0.1029326638516466  0.46400352720893057  0.4881358190491695  1.0000
  C   C5        1.0  0.9675523863930948  0.597536707813809  0.987982114252645  1.0000
  C   C6        1.0  0.4024701362071071  0.032436231980661  0.01201914544408571  1.0000
  C   C7        1.0  0.4230543742140894  0.4657647633268239  0.8255493560072792  1.0000
  C   C8        1.0  0.5342393584208764  0.5769419140256601  0.1744485626572185  1.0000
  O   O1        1.0  0.7771827053904234  0.4803751912041604  0.6699396911240214  1.0000
  O   O2        1.0  0.519634447320314  0.22281631110519123  0.3300595294427636  1.0000
  O   O3        1.0  0.018845675755606778  0.8582842186442573  0.7011291427717481  1.0000
  O   O4        1.0  0.1417142727727665  0.9811508051214587  0.29887399888397675  1.0000
  O   O5        1.0  0.7264050517570341  0.014284005191356598  0.8299126445401724  1.0000
  O   O6        1.0  0.9857209624025745  0.2735927975495329  0.1700858377445158  1.0000
  O   O7        1.0  0.5642395194533236  0.08525804297507017  0.5680050190744339  1.0000
  O   O8        1.0  0.9147444397527098  0.4357628383701594  0.43199286023005357  1.0000
  O   O9        1.0  0.6024049005481231  0.7603098700021816  0.5618651350666823  1.0000
  O   O10       1.0  0.23969690168076607  0.3975987596994628  0.4381315635258858  1.0000
  O   O11       1.0  0.996163242304526  0.1800633432850489  0.6783029745596707  1.0000
  O   O12       1.0  0.8199370346237771  0.003830869846986199  0.3217019349619719  1.0000
  O   O13       1.0  0.9386404138084855  0.4092763325643601  0.9318069856422397  1.0000
  O   O14       1.0  0.5907308817397379  0.0613506629485272  0.06819383207285058  1.0000
  O   O15       1.0  0.9017446165679317  0.7346045508514009  0.9379965435619013  1.0000
  O   O16       1.0  0.2654003808582673  0.09824304887313667  0.062007346712569196  1.0000
  O   O17       1.0  0.4849548726617954  0.6365701960842356  0.7987655723403435  1.0000
  O   O18       1.0  0.36343115422328504  0.5150393954447451  0.20122933854798214  1.0000
  O   O19       1.0  0.5065596471619287  0.3143222049112068  0.8209449347916404  1.0000
  O   O20       1.0  0.6856790750934039  0.4934388181729402  0.1790527489736533  1.0000
