data_image0
_chemical_formula_structural       Ag2H46C52S2N12O8
_chemical_formula_sum              "Ag2 H46 C52 S2 N12 O8"
_cell_length_a       7.096132745196542
_cell_length_b       13.612714692273077
_cell_length_c       15.4526
_cell_angle_alpha    110.31370145220204
_cell_angle_beta     101.75393470223446
_cell_angle_gamma    98.62923166710647

_space_group_name_H-M_alt    "P 1"
_space_group_IT_number       1

loop_
  _space_group_symop_operation_xyz
  'x, y, z'

loop_
  _atom_site_type_symbol
  _atom_site_label
  _atom_site_symmetry_multiplicity
  _atom_site_fract_x
  _atom_site_fract_y
  _atom_site_fract_z
  _atom_site_occupancy
  Ag  Ag1       1.0  0.7903606379306113  0.4715567196545364  0.43033147931982524  1.0000
  Ag  Ag2       1.0  0.2096406238809294  0.5284429552858754  0.569669510018123  1.0000
  H   H1        1.0  0.8503783379114725  0.3525903965168168  0.23484389825785706  1.0000
  H   H2        1.0  0.14965456432013724  0.6474157344234398  0.7651646139160988  1.0000
  H   H3        1.0  0.8202824269770234  0.3701612070940711  0.07733130618140645  1.0000
  H   H4        1.0  0.17974401774397822  0.6298400818462966  0.9226738268266884  1.0000
  H   H5        1.0  0.7480913187304666  0.6926843983342933  0.2137472479417965  1.0000
  H   H6        1.0  0.25189591882300283  0.3073128556061775  0.786251689065473  1.0000
  H   H7        1.0  0.7720947080923042  0.6596821341283103  0.3642168301686509  1.0000
  H   H8        1.0  0.22790043956617717  0.34031673381211647  0.6357826932670463  1.0000
  H   H9        1.0  0.8730025241446101  0.7191741726969594  0.09167199702202561  1.0000
  H   H10       1.0  0.1269918972166622  0.28082630924343016  0.9083305406331093  1.0000
  H   H11       1.0  0.6107065428239338  0.6761643017317595  0.05249758742668579  1.0000
  H   H12       1.0  0.38928682207663473  0.3238305312087704  0.9475031237951015  1.0000
  H   H13       1.0  0.7496706177696026  0.6553759822319164  0.9664031923773422  1.0000
  H   H14       1.0  0.2503252429920408  0.34462449970847325  0.033598185648948176  1.0000
  H   H15       1.0  0.6811693548958078  0.2758866623622751  0.8741476379722852  1.0000
  H   H16       1.0  0.31882398361668157  0.7241146265780927  0.12585051520410667  1.0000
  H   H17       1.0  0.8066386240573352  0.24261324616282556  0.7833039259685818  1.0000
  H   H18       1.0  0.19335363160636382  0.7573888497775271  0.21669437271108893  1.0000
  H   H19       1.0  0.5479808901182255  0.22130925367538615  0.7495173899799494  1.0000
  H   H20       1.0  0.45201100899389257  0.7786920352649815  0.2504806285447073  1.0000
  H   H21       1.0  0.6647879990851493  0.5651598404024796  0.7634008380428765  1.0000
  H   H22       1.0  0.3352118101319875  0.4348430625378511  0.23659776691020792  1.0000
  H   H23       1.0  0.6755345603393152  0.5832083949682385  0.6088008554682601  1.0000
  H   H24       1.0  0.32446777112697583  0.4167937009721071  0.39119709149300513  1.0000
  H   H25       1.0  0.7494805154079318  0.27366176341580933  0.4887654059767854  1.0000
  H   H26       1.0  0.2505182241544546  0.7263387185245804  0.5112349470724098  1.0000
  H   H27       1.0  0.727394244638049  0.23856129926031136  0.6336404362132981  1.0000
  H   H28       1.0  0.2726034120755473  0.7614399896800563  0.36636006233917573  1.0000
  H   H29       1.0  0.46512250708708797  0.2545931608745917  0.3735351681119069  1.0000
  H   H30       1.0  0.5348766022209261  0.7454049000658571  0.626463831983706  1.0000
  H   H31       1.0  0.8795526342234725  0.1708354398897711  0.18059071190818804  1.0000
  H   H32       1.0  0.12045114983722982  0.8291634280506628  0.819407030876789  1.0000
  H   H33       1.0  0.3907438752094024  0.18172993962765094  0.07209308436745228  1.0000
  H   H34       1.0  0.6092577431537265  0.8182705423127388  0.9279062437046475  1.0000
  H   H35       1.0  0.6121412896699354  0.2323514344097148  0.23819954218609493  1.0000
  H   H36       1.0  0.3878596023959845  0.7676506615306309  0.7617995644040005  1.0000
  H   H37       1.0  0.4441451259095218  0.0698668303190288  0.9504030459834921  1.0000
  H   H38       1.0  0.5558561359020189  0.9301328446213757  0.049597943354456116  1.0000
  H   H39       1.0  0.22530446115227684  0.9945427410716972  0.7823697700314084  1.0000
  H   H40       1.0  0.7746910430577856  0.0054569338687074  0.217631974980165  1.0000
  H   H41       1.0  0.7426337565251444  0.9929174431108051  0.6762473361616228  1.0000
  H   H42       1.0  0.257356703186602  0.0070838458295626  0.3237499005710163  1.0000
  H   H43       1.0  0.9602506104912862  0.0709611222927009  0.8450651489168022  1.0000
  H   H44       1.0  0.039749925023052426  0.9290401666476669  0.154932383237714  1.0000
  H   H45       1.0  0.21646691175865834  0.9236687747768995  0.6222452282405014  1.0000
  H   H46       1.0  0.7835224782983448  0.07633009316352708  0.3777550508688137  1.0000
  C   C1        1.0  0.8231467268056749  0.42556417676109953  0.22588192043271957  1.0000
  C   C2        1.0  0.176879348169706  0.5744395331792163  0.7741226241080952  1.0000
  C   C3        1.0  0.8076329335015731  0.4361132805072856  0.1388005837377975  1.0000
  C   C4        1.0  0.19239242837063847  0.5638888154330601  0.861204694773569  1.0000
  C   C5        1.0  0.7774407578039516  0.5327006871834357  0.13078753254885092  1.0000
  C   C6        1.0  0.22256698790628351  0.4672973737570131  0.8692142168780491  1.0000
  C   C7        1.0  0.7688669390454523  0.6152011021985047  0.21418940047804108  1.0000
  C   C8        1.0  0.23112605610949544  0.384796151741959  0.7858120165570383  1.0000
  C   C9        1.0  0.7822078083981907  0.59799747661242  0.29873919376684194  1.0000
  C   C10       1.0  0.2177945362621472  0.40200139132800666  0.7012616500678347  1.0000
  C   C11       1.0  0.7576317293176588  0.547403419829692  0.03896849564356592  1.0000
  C   C12       1.0  0.24236844964509882  0.45259706211069767  0.9610332863379438  1.0000
  C   C13       1.0  0.7478003356275806  0.6555866092268514  0.036959072932489796  1.0000
  C   C14       1.0  0.2521926463333273  0.34441387271353807  0.9630426829306129  1.0000
  C   C15       1.0  0.7069505345050333  0.3875012156768775  0.8049052262974499  1.0000
  C   C16       1.0  0.2930514272156373  0.6125033012634162  0.19509666217854252  1.0000
  C   C17       1.0  0.6833974030969687  0.2763619853508388  0.8038841886055649  1.0000
  C   C18       1.0  0.31659413946356807  0.7236384965895438  0.19611354976407813  1.0000
  C   C19       1.0  0.7023550927509279  0.4011855143476382  0.7137649771280649  1.0000
  C   C20       1.0  0.29764759526694473  0.5988173885926926  0.28623454426878675  1.0000
  C   C21       1.0  0.6836746760583453  0.4985274660056262  0.7043098771937861  1.0000
  C   C22       1.0  0.31632261090963004  0.5014762439346825  0.29569003289140733  1.0000
  C   C23       1.0  0.6895956678138689  0.5092637937473157  0.6188754962799123  1.0000
  C   C24       1.0  0.3104048677004698  0.4907374951930521  0.381122035874597  1.0000
  C   C25       1.0  0.7286493236005783  0.33551185592772004  0.5508726268230787  1.0000
  C   C26       1.0  0.2713515816593883  0.6644870120127067  0.44912549379871075  1.0000
  C   C27       1.0  0.7181205739062264  0.3174382843625594  0.6330955745665675  1.0000
  C   C28       1.0  0.2818839100635984  0.6825654255777494  0.36690824447875775  1.0000
  C   C29       1.0  0.37088722769392757  0.23361438937933335  0.3016765372826952  1.0000
  C   C30       1.0  0.6291104422137084  0.7663836715611152  0.698323622441748  1.0000
  C   C31       1.0  0.16519726630072282  0.2173291297711515  0.2856996141985206  1.0000
  C   C32       1.0  0.8347978945517979  0.7826665101693562  0.7142982761285805  1.0000
  C   C33       1.0  0.03997888532708768  0.18649204651307363  0.19394880989399604  1.0000
  C   C34       1.0  0.9600162755254333  0.8135035934274271  0.8060477861525255  1.0000
  C   C35       1.0  0.12250944596492273  0.17301676083728515  0.11631853181712157  1.0000
  C   C36       1.0  0.8774885804943012  0.8269821071031415  0.8836793195011906  1.0000
  C   C37       1.0  0.32946874449810803  0.19225967537430927  0.13295308781446377  1.0000
  C   C38       1.0  0.6705260334147456  0.8077416135660583  0.8670432585928152  1.0000
  C   C39       1.0  0.4523275857760254  0.2214246546726102  0.22484478532342675  1.0000
  C   C40       1.0  0.5476769245818787  0.7785725992678535  0.7751551203644096  1.0000
  C   C41       1.0  0.715810741966685  0.0784880111116095  0.908550996877551  1.0000
  C   C42       1.0  0.2841865713893696  0.9215092428288542  0.09144694127101621  1.0000
  C   C43       1.0  0.5080417625661583  0.055992079652852994  0.8899916190039858  1.0000
  C   C44       1.0  0.49195915588784084  0.9440035602876546  0.11000875135092501  1.0000
  C   C45       1.0  0.38617018432272243  0.013661702671306798  0.7966982313314472  1.0000
  C   C46       1.0  0.6138235239353874  0.9863371652691197  0.20330309887337703  1.0000
  C   C47       1.0  0.4708305249245797  0.9914648431457491  0.7190162711522702  1.0000
  C   C48       1.0  0.5291628135879095  0.0085364457946184  0.280984470585274  1.0000
  C   C49       1.0  0.6796009820244819  0.013564862673632697  0.7371496809579694  1.0000
  C   C50       1.0  0.3203963181375329  0.986435619266757  0.26285118457977313  1.0000
  C   C51       1.0  0.7994747652247656  0.0559606066536134  0.8302224588954985  1.0000
  C   C52       1.0  0.20052396114358126  0.9440431032867025  0.16977693870115462  1.0000
  S   S1        1.0  0.0636006319625295  0.2342712873635264  0.3854020884491476  1.0000
  S   S2        1.0  0.9363956117387817  0.7657235455769962  0.6145937149538125  1.0000
  N   N1        1.0  0.8068424554468124  0.5040521878727091  0.30467378751641405  1.0000
  N   N2        1.0  0.19317210432560472  0.49595152206760656  0.6953296798105055  1.0000
  N   N3        1.0  0.7492354409270661  0.46136592389972003  0.9649374411316244  1.0000
  N   N4        1.0  0.25076761683643417  0.5386345580406697  0.03506331587279015  1.0000
  N   N5        1.0  0.7366555695922303  0.4760371835467367  0.8803904066369339  1.0000
  N   N6        1.0  0.2633464053224799  0.523964105393631  0.11961179015132466  1.0000
  N   N7        1.0  0.7183062230098332  0.4306652236383641  0.5441147550573788  1.0000
  N   N8        1.0  0.2816943125045058  0.5693360653020036  0.45588536565828247  1.0000
  N   N9        1.0  0.012499159009827602  0.13766289868788556  0.019499884914985388  1.0000
  N   N10       1.0  0.9875035422020846  0.8623367762525191  0.9804992976538356  1.0000
  N   N11       1.0  0.8249368992921121  0.1191188461340502  0.004940577493570678  1.0000
  N   N12       1.0  0.1750629231190572  0.8808808288063616  0.9950576886314975  1.0000
  O   O1        1.0  0.8872456247038941  0.2757502793655604  0.36360042975168466  1.0000
  O   O2        1.0  0.11275422409536161  0.7242429395750065  0.6363965115770398  1.0000
  O   O3        1.0  0.21957141963493856  0.3099259215433037  0.4712077642734441  1.0000
  O   O4        1.0  0.7804273331214943  0.6900713323971599  0.5287909556671548  1.0000
  O   O5        1.0  0.012047671931888692  0.12539488498305218  0.38700317306340537  1.0000
  O   O6        1.0  0.9879453232230588  0.8746023689574187  0.612993713989667  1.0000
  O   O7        1.0  0.36138974935084883  0.9479554391925686  0.6269322245862553  1.0000
  O   O8        1.0  0.6386053983076324  0.052043428747857896  0.37306794598973164  1.0000
