data_image0
_chemical_formula_structural       Li8H56C32O40
_chemical_formula_sum              "Li8 H56 C32 O40"
_cell_length_a       9.486911009
_cell_length_b       10.41390399565766
_cell_length_c       13.2344
_cell_angle_alpha    107.64770058751199
_cell_angle_beta     90.0
_cell_angle_gamma    90.0

_space_group_name_H-M_alt    "P 1"
_space_group_IT_number       1

loop_
  _space_group_symop_operation_xyz
  'x, y, z'

loop_
  _atom_site_type_symbol
  _atom_site_label
  _atom_site_symmetry_multiplicity
  _atom_site_fract_x
  _atom_site_fract_y
  _atom_site_fract_z
  _atom_site_occupancy
  Li  Li1       1.0  0.1431477536483357  0.4399962813318936  0.6340324019026795  1.0000
  Li  Li2       1.0  0.643147173427863  0.0600041648676495  0.8659674778578506  1.0000
  Li  Li3       1.0  0.8568521399946006  0.5600036033898164  0.365967872839903  1.0000
  Li  Li4       1.0  0.3568516661311918  0.9399967275314368  0.13403303726981622  1.0000
  Li  Li5       1.0  0.6409873555503083  0.5428680495655342  0.8463969896206862  1.0000
  Li  Li6       1.0  0.1409868816868993  0.9571312736783355  0.6536029244973491  1.0000
  Li  Li7       1.0  0.3590135921765167  0.4571318351561758  0.1536032851218962  1.0000
  Li  Li8       1.0  0.859013011956037  0.0428686110433674  0.3463973502452405  1.0000
  H   H1        1.0  0.2537938848288803  0.6768830948643441  0.7689088356978432  1.0000
  H   H2        1.0  0.7537943586922893  0.8231172360569089  0.731090563198677  1.0000
  H   H3        1.0  0.746206008814056  0.3231177975347421  0.23109092382322424  1.0000
  H   H4        1.0  0.2462055349506471  0.1768816409874248  0.2689094711588282  1.0000
  H   H5        1.0  0.2576170470748025  0.7179247868201841  0.909837272216123  1.0000
  H   H6        1.0  0.7576175209382114  0.7820755441010618  0.590162882287004  1.0000
  H   H7        1.0  0.7423839006520154  0.2820750979015187  0.0901622469198671  1.0000
  H   H8        1.0  0.24238237270472499  0.2179233329432648  0.40983790767710104  1.0000
  H   H9        1.0  0.09736467424683329  0.7393873073084762  0.8442392567344116  1.0000
  H   H10       1.0  0.5973651481102422  0.7606130236127768  0.6557608977687082  1.0000
  H   H11       1.0  0.9026362734799845  0.2606125774132337  0.1557602624015715  1.0000
  H   H12       1.0  0.4026347455326941  0.2393848457541736  0.3442396518103052  1.0000
  H   H13       1.0  0.3915879464322671  0.7488695514417572  0.357480244289917  1.0000
  H   H14       1.0  0.8915873662117945  0.7511307794794959  0.14251915460660314  1.0000
  H   H15       1.0  0.6084119472106693  0.2511303332799528  0.642519274846066  1.0000
  H   H16       1.0  0.1084135815150233  0.2488691052422141  0.85748036452938  1.0000
  H   H17       1.0  0.23912209125266057  0.7125730122620695  0.4252897171790765  1.0000
  H   H18       1.0  0.739121511032188  0.7874273186591765  0.0747104373240433  1.0000
  H   H19       1.0  0.7608788564741573  0.2874268724596334  0.5747105575635132  1.0000
  H   H20       1.0  0.2608783826107484  0.2125725660625264  0.9252898374185392  1.0000
  H   H21       1.0  0.2331623009746338  0.6873649549572676  0.2848795202204073  1.0000
  H   H22       1.0  0.7331638289219241  0.8126353759639856  0.21511987867611285  1.0000
  H   H23       1.0  0.7668365385844211  0.3126359374418186  0.7151202393006599  1.0000
  H   H24       1.0  0.2668371188048937  0.1873635010803483  0.7848794000747858  1.0000
  H   H25       1.0  0.9321516763054517  0.559289160128337  0.7230452183317269  1.0000
  H   H26       1.0  0.43215120244204286  0.9407111707929161  0.7769549361713929  1.0000
  H   H27       1.0  0.0678492714213661  0.440710724593373  0.27695430080425615  1.0000
  H   H28       1.0  0.567849745284775  0.0592887139287939  0.2230453385711897  1.0000
  H   H29       1.0  0.8987224600200746  0.5360390199702891  0.6008036854330001  1.0000
  H   H30       1.0  0.3987219861566658  0.9639613109509638  0.8991972246767264  1.0000
  H   H31       1.0  0.1012784877067432  0.46396086475142084  0.3991965893095895  1.0000
  H   H32       1.0  0.6012779074862706  0.0360395814481222  0.10080404605754721  1.0000
  H   H33       1.0  0.5465772784292824  0.796842048408088  0.8732145912786253  1.0000
  H   H34       1.0  0.0465778586497549  0.7031582825131579  0.6267855632244945  1.0000
  H   H35       1.0  0.4534215611297725  0.2031578363136148  0.12678492785735782  1.0000
  H   H36       1.0  0.9534220349931815  0.2968426098859283  0.3732149519031793  1.0000
  H   H37       1.0  0.5249137464529596  0.7418319326291254  0.9703566448158227  1.0000
  H   H38       1.0  0.0249132725895507  0.7581683982921206  0.529643509687304  1.0000
  H   H39       1.0  0.47508720127386533  0.2581689597699608  0.02964387031185112  1.0000
  H   H40       1.0  0.9750866210533858  0.24183148642958227  0.47035600944868616  1.0000
  H   H41       1.0  0.4188402311595851  0.4263493065925701  0.7682814003455931  1.0000
  H   H42       1.0  0.9188385968552311  0.073651139606973  0.7317184794149442  1.0000
  H   H43       1.0  0.5811617706511143  0.5736515858065161  0.23171835917548123  1.0000
  H   H44       1.0  0.0811602427038238  0.9263487451147298  0.26828103972103895  1.0000
  H   H45       1.0  0.3899994420196435  0.4659600966706989  0.8937034655625026  1.0000
  H   H46       1.0  0.8899978077152823  0.0340403495288442  0.6062964141980273  1.0000
  H   H47       1.0  0.6100015057071744  0.534039788051011  0.1062968091800798  1.0000
  H   H48       1.0  0.11000103184376542  0.9659605428702421  0.39370334532304  1.0000
  H   H49       1.0  0.0209003752445795  0.20523264403630043  0.629742402658529  1.0000
  H   H50       1.0  0.5209008491079885  0.2947667944858665  0.8702579923235234  1.0000
  H   H51       1.0  0.9790995183983567  0.7947672406854096  0.37025862769066004  1.0000
  H   H52       1.0  0.4791000986188365  0.7052330902358435  0.12974152681245957  1.0000
  H   H53       1.0  0.1463258165574715  0.1818333676262043  0.5548962303239904  1.0000
  H   H54       1.0  0.6463262904208804  0.3181670785733388  0.9451036494365397  1.0000
  H   H55       1.0  0.8536730230015834  0.8181665170954986  0.4451040444185921  1.0000
  H   H56       1.0  0.3536746573059375  0.6818338138257474  0.054896110084527494  1.0000
  C   C1        1.0  0.848260302259149  0.4939614356691777  0.000667394367049211  1.0000
  C   C2        1.0  0.3482587743118586  0.006036995175613  0.4993320046233194  1.0000
  C   C3        1.0  0.1517406454676689  0.506037441375156  0.99933112877725  1.0000
  C   C4        1.0  0.6517400652471963  0.9939608741913375  0.5006677893491017  1.0000
  C   C5        1.0  0.0792987305653341  0.5231357111364261  0.912200710083475  1.0000
  C   C6        1.0  0.5792981503448615  0.9768626044300674  0.587798963649476  1.0000
  C   C7        1.0  0.9207022171614837  0.4768631659079077  0.0877978130608241  1.0000
  C   C8        1.0  0.4207006892141933  0.023135264936883  0.4122008303229379  1.0000
  C   C9        1.0  0.9304714665949518  0.5216534177124004  0.9098825264619208  1.0000
  C   C10       1.0  0.4304720468154244  0.9783448978540933  0.5901163916644308  1.0000
  C   C11       1.0  0.0695273729641031  0.47834545933192635  0.09011599668237841  1.0000
  C   C12       1.0  0.5695267927436305  0.0216529715128573  0.40988264670139074  1.0000
  C   C13       1.0  0.1922670085415135  0.6771450909827976  0.8389949107457113  1.0000
  C   C14       1.0  0.692268536488811  0.8228552399384484  0.6610052437574083  1.0000
  C   C15       1.0  0.8077328851014229  0.3228547937389052  0.1610046083902716  1.0000
  C   C16       1.0  0.3077324112380139  0.1771436371058783  0.3389955462066965  1.0000
  C   C17       1.0  0.34865827210375494  0.4909656108223928  0.4937696006956074  1.0000
  C   C18       1.0  0.8486576918832753  0.0090338276997741  0.0062300386798455  1.0000
  C   C19       1.0  0.65134267562307  0.5090342738993172  0.5062299184403827  1.0000
  C   C20       1.0  0.1513422017596611  0.990966057021936  0.9937702360627442  1.0000
  C   C21       1.0  0.421580849257019  0.5234410373821632  0.41194485789259266  1.0000
  C   C22       1.0  0.9215813231204278  0.9765603012164733  0.08805553699561133  1.0000
  C   C23       1.0  0.5784179903020287  0.47655884733954684  0.5880554168499899  1.0000
  C   C24       1.0  0.0784185705225084  0.0234405911826201  0.9119449781320554  1.0000
  C   C25       1.0  0.4311044971455971  0.4648325056839653  0.5852346318193469  1.0000
  C   C26       1.0  0.9311039169251245  0.0351679405155778  0.9147652479411904  1.0000
  C   C27       1.0  0.5688964505812208  0.5351683867151209  0.4147651277017275  1.0000
  C   C28       1.0  0.0688949226339233  0.9648339595608917  0.08523475196496119  1.0000
  C   C29       1.0  0.2998721077177962  0.682409197608969  0.351145774005623  1.0000
  C   C30       1.0  0.7998715274973236  0.817591133312277  0.14885438049749672  1.0000
  C   C31       1.0  0.7001277859251402  0.3175906871127339  0.6488545007369595  1.0000
  C   C32       1.0  0.2001294202294943  0.1824077437320497  0.8511448982534021  1.0000
  O   O1        1.0  0.7140016380014487  0.488852511359319  0.9901501471579905  1.0000
  O   O2        1.0  0.2140001100541582  0.0111469271628479  0.5098487366108628  1.0000
  O   O3        1.0  0.2859982556414877  0.511147373362391  0.009848616371400007  1.0000
  O   O4        1.0  0.7859976754210081  0.9888529575588619  0.4901507825251201  1.0000
  O   O5        1.0  0.1538192988861837  0.5388312939865827  0.8265098396514504  1.0000
  O   O6        1.0  0.6538187186657112  0.9611690369346704  0.6734903148516693  1.0000
  O   O7        1.0  0.8461816488406343  0.4611685907351273  0.1734889238779331  1.0000
  O   O8        1.0  0.3461801208933437  0.0388298401096634  0.326509719505829  1.0000
  O   O9        1.0  0.856867951252859  0.5416497676147216  0.8361973390885283  1.0000
  O   O10       1.0  0.35686747738945  0.9583505633065315  0.6638028154145986  1.0000
  O   O11       1.0  0.14313299647396596  0.4583511247843646  0.16380166482593952  1.0000
  O   O12       1.0  0.6431313621696048  0.0416483137378023  0.3361979745495063  1.0000
  O   O13       1.0  0.21598073367149342  0.4791647010407872  0.49849616045771933  1.0000
  O   O14       1.0  0.7159801534510208  0.0208347374813798  0.0015034789177264015  1.0000
  O   O15       1.0  0.7840191599714429  0.5208341760035395  0.5015038738997788  1.0000
  O   O16       1.0  0.284018686108034  0.9791661549177065  0.9984970362099405  1.0000
  O   O17       1.0  0.3460346573174036  0.543827358430029  0.3280824946263153  1.0000
  O   O18       1.0  0.846034077096931  0.9561739801686003  0.17191790026189582  1.0000
  O   O19       1.0  0.6539652363255328  0.4561735339690571  0.6719172648947591  1.0000
  O   O20       1.0  0.1539658165460054  0.0438259045531098  0.8280823744806937  1.0000
  O   O21       1.0  0.3559209100619469  0.4333042958601467  0.6539677702593423  1.0000
  O   O22       1.0  0.8559203298414744  0.0666961503393964  0.8460321095011951  1.0000
  O   O23       1.0  0.6440789835809895  0.5666976042163157  0.3460329852534159  1.0000
  O   O24       1.0  0.144079563801462  0.9333047420596898  0.15396840562647907  1.0000
  O   O25       1.0  0.9764453351793846  0.5579832102455811  0.6544026631227169  1.0000
  O   O26       1.0  0.4764438072320941  0.942017120675672  0.8455967357738032  1.0000
  O   O27       1.0  0.0235566666313218  0.4420166744761289  0.3455968560132732  1.0000
  O   O28       1.0  0.5235550323269607  0.057982764046038  0.15440278336217972  1.0000
  O   O29       1.0  0.5766334262870529  0.7242187397273625  0.902576703307716  1.0000
  O   O30       1.0  0.0766329524236369  0.7757825988712739  0.5974236915804952  1.0000
  O   O31       1.0  0.42336752143977213  0.2757821526717308  0.09742381181995802  1.0000
  O   O32       1.0  0.9233669412192995  0.22421829352781233  0.4025760679405792  1.0000
  O   O33       1.0  0.4618173392628719  0.4276623102169737  0.8379872655245677  1.0000
  O   O34       1.0  0.9618167590423923  0.0723381359825694  0.6620126142359696  1.0000
  O   O35       1.0  0.5381836084639531  0.5723375745047363  0.1620122536114152  1.0000
  O   O36       1.0  0.0381831346005441  0.9276617487391405  0.3379869049000206  1.0000
  O   O37       1.0  0.0781814016486919  0.253744248400217  0.5886749319231583  1.0000
  O   O38       1.0  0.5781818755121009  0.2462551901219427  0.9113239518456951  1.0000
  O   O39       1.0  0.9218184919942446  0.7462556363214858  0.4113245872128317  1.0000
  O   O40       1.0  0.4218180181308355  0.7537446945997601  0.08867556729029506  1.0000
