data_image0
_chemical_formula_structural       U4H40C56N8O24
_chemical_formula_sum              "U4 H40 C56 N8 O24"
_cell_length_a       9.065045509
_cell_length_b       11.885949079851438
_cell_length_c       13.858
_cell_angle_alpha    108.92251227569312
_cell_angle_beta     90.0
_cell_angle_gamma    90.0

_space_group_name_H-M_alt    "P 1"
_space_group_IT_number       1

loop_
  _space_group_symop_operation_xyz
  'x, y, z'

loop_
  _atom_site_type_symbol
  _atom_site_label
  _atom_site_symmetry_multiplicity
  _atom_site_fract_x
  _atom_site_fract_y
  _atom_site_fract_z
  _atom_site_occupancy
  U   U1        1.0  0.41283631684854794  0.0632590490548353  0.7281931730723841  1.0000
  U   U2        1.0  0.9128382192659076  0.4367414494505936  0.771807831508454  1.0000
  U   U3        1.0  0.5871597660172299  0.9367419479560154  0.2718081144844362  1.0000
  U   U4        1.0  0.0871633792919795  0.5632595475602641  0.22819634246776133  1.0000
  H   H1        1.0  0.1751761751690495  0.6154109529454743  0.5829659165502294  1.0000
  H   H2        1.0  0.6751824901401022  0.8845887637824887  0.9170272215744932  1.0000
  H   H3        1.0  0.8248143920046118  0.3845864864887361  0.4170286086583275  1.0000
  H   H4        1.0  0.3248235209714707  0.1154113438342037  0.0829673241613094  1.0000
  H   H5        1.0  0.3513142870422641  0.534756243506763  0.4345814247724746  1.0000
  H   H6        1.0  0.8513139831827843  0.9652443626153583  0.06541629035871924  1.0000
  H   H7        1.0  0.648682898961937  0.4652447535040949  0.5654162547601018  1.0000
  H   H8        1.0  0.1486876153751027  0.034755745001334  0.9345811417964853  1.0000
  H   H9        1.0  0.03910184451341791  0.857268353962361  0.5646664131948498  1.0000
  H   H10       1.0  0.5391048500692079  0.6427331415539256  0.9353366005476502  1.0000
  H   H11       1.0  0.9608920320755133  0.142730864260173  0.43533654442178  1.0000
  H   H12       1.0  0.460901161042365  0.3572696342452488  0.06466446015905093  1.0000
  H   H13       1.0  0.9904462135447645  0.076390064439444  0.612966826464195  1.0000
  H   H14       1.0  0.4904476205426605  0.4236104340659849  0.8870385077457359  1.0000
  H   H15       1.0  0.0095498693210132  0.9236091537830902  0.3870382959669812  1.0000
  H   H16       1.0  0.509556184292066  0.5763914523390312  0.11296591360785158  1.0000
  H   H17       1.0  0.6861145919041434  0.6961341457345398  0.39353571414255134  1.0000
  H   H18       1.0  0.1861126894867766  0.8038655709934233  0.10646536163551448  1.0000
  H   H19       1.0  0.3138836972384809  0.3038677406704764  0.6064665423964826  1.0000
  H   H20       1.0  0.8138889090711103  0.1961318684407942  0.8935320499924303  1.0000
  H   H21       1.0  0.5321639031167038  0.611838256603022  0.3292409273101597  1.0000
  H   H22       1.0  0.03216089756091381  0.8881596813366173  0.17075821050347173  1.0000
  H   H23       1.0  0.46783659230276  0.3881609616195121  0.6707584222822194  1.0000
  H   H24       1.0  0.9678407009969733  0.11183864749175138  0.8292387268969961  1.0000
  H   H25       1.0  0.6559150744579016  0.5488593667087187  0.3953903627672731  1.0000
  H   H26       1.0  0.1559120689021114  0.9511403500192371  0.10461071301079272  1.0000
  H   H27       1.0  0.3440865240999855  0.4511425196962974  0.6046111721669121  1.0000
  H   H28       1.0  0.8440917359326222  0.0488588682032898  0.8953886365815932  1.0000
  H   H29       1.0  0.8915553696863442  0.6365883172995055  0.48333233393115194  1.0000
  H   H30       1.0  0.3915567766842401  0.863413178216774  0.016664185367709125  1.0000
  H   H31       1.0  0.10844071317943361  0.363411790317187  0.5166636550143552  1.0000
  H   H32       1.0  0.6084481312889096  0.1365887081882349  0.9833294119131324  1.0000
  H   H33       1.0  0.7468103710321898  0.6364940415184961  0.5706722542306508  1.0000
  H   H34       1.0  0.24680957175324642  0.8635030070269849  0.9293230281813648  1.0000
  H   H35       1.0  0.2531879181104273  0.3635016191273905  0.4293239410377155  1.0000
  H   H36       1.0  0.75319423308148  0.1364962111955492  0.0706698269673751  1.0000
  H   H37       1.0  0.9270036197454276  0.6830040197440893  0.6165274979101839  1.0000
  H   H38       1.0  0.4270039236049001  0.8169921394072261  0.8834675371244742  1.0000
  H   H39       1.0  0.0729935662587735  0.3169916409017972  0.38346797575333375  1.0000
  H   H40       1.0  0.5729998812298263  0.18300618942114258  0.116525070646901  1.0000
  C   C1        1.0  0.2992913821895726  0.7778063220927861  0.6417853964212341  1.0000
  C   C2        1.0  0.7992965940222094  0.7221942840293352  0.8582108755002553  1.0000
  C   C3        1.0  0.700700288122512  0.22219289612974788  0.35821250996144743  1.0000
  C   C4        1.0  0.2007094170893708  0.2778067129815156  0.1417853608226167  1.0000
  C   C5        1.0  0.2740262029058513  0.6635022739883141  0.5744897459266554  1.0000
  C   C6        1.0  0.7740314147384808  0.8364983321338072  0.9255065259948341  1.0000
  C   C7        1.0  0.7259654674062404  0.3364969442342201  0.42550816045603324  1.0000
  C   C8        1.0  0.22597459637309214  0.1635008860887268  0.0744906587829988  1.0000
  C   C9        1.0  0.3738933242679181  0.6178745747698712  0.49539166275489077  1.0000
  C   C10       1.0  0.8738952266852851  0.8821260313522501  0.004606052376296111  1.0000
  C   C11       1.0  0.6261027585978525  0.38212642224098653  0.5046074599873833  1.0000
  C   C12       1.0  0.1261096812878648  0.1178740762644424  0.9953906581740526  1.0000
  C   C13       1.0  0.504236850820206  0.6792525551753954  0.48961163991071294  1.0000
  C   C14       1.0  0.004237154679685801  0.8207462721584092  0.010387023675441778  1.0000
  C   C15       1.0  0.495760335183995  0.3207457736529804  0.5103874623043012  1.0000
  C   C16       1.0  0.9957688564318943  0.1792547248524485  0.9896092126474373  1.0000
  C   C17       1.0  0.5291159316561576  0.787524732083817  0.5686355519859561  1.0000
  C   C18       1.0  0.029119544930900104  0.7124732058558221  0.9313635858276756  1.0000
  C   C19       1.0  0.47087684179435035  0.2124727073503934  0.4313647460613907  1.0000
  C   C20       1.0  0.9708875693190963  0.28752779115502847  0.0686340937048939  1.0000
  C   C21       1.0  0.6660970420948402  0.8588016694949445  0.5834995882697029  1.0000
  C   C22       1.0  0.16609844909273624  0.6411971578388601  0.9165012401309979  1.0000
  C   C23       1.0  0.3338979376325142  0.1411966593334313  0.41650240036471337  1.0000
  C   C24       1.0  0.833907562018837  0.3588038391719977  0.08349716100642722  1.0000
  C   C25       1.0  0.8104901395923039  0.8110234151965727  0.5703988149444754  1.0000
  C   C26       1.0  0.31049264972863  0.6889754121372249  0.9296020134562256  1.0000
  C   C27       1.0  0.1895037369966275  0.18897402423763768  0.4296022047077201  1.0000
  C   C28       1.0  0.6895144645213733  0.3110264742677842  0.07039591345371582  1.0000
  C   C29       1.0  0.926806157967853  0.891359721525852  0.5784003308461437  1.0000
  C   C30       1.0  0.4268075649657491  0.6086408845962694  0.9216046003335379  1.0000
  C   C31       1.0  0.0731888217595014  0.10863949669668219  0.4216047915850325  1.0000
  C   C32       1.0  0.5731962398689846  0.3913610018087468  0.07839693460064723  1.0000
  C   C33       1.0  0.9012199654032642  0.0127476865014629  0.6053229725542552  1.0000
  C   C34       1.0  0.40122468181643  0.4872537013981243  0.8946833306378894  1.0000
  C   C35       1.0  0.0987739111856669  0.9872515317210712  0.39468359308661866  1.0000
  C   C36       1.0  0.598781329295143  0.5127481850068918  0.105321090715691  1.0000
  C   C37       1.0  0.7568974687648194  0.0525445176041188  0.6290000001726669  1.0000
  C   C38       1.0  0.2569010820395619  0.447455980901303  0.8710038908275665  1.0000
  C   C39       1.0  0.24309861410095832  0.9474564794067319  0.3710063386180948  1.0000
  C   C40       1.0  0.7431038259335878  0.5525441267153894  0.12899931416643542  1.0000
  C   C41       1.0  0.1914882830181739  0.8435200990304139  0.7230895313458776  1.0000
  C   C42       1.0  0.6914912885739568  0.6564813964858729  0.776906266348135  1.0000
  C   C43       1.0  0.8085066967091805  0.156480897980444  0.2769067049770015  1.0000
  C   C44       1.0  0.3085136193991929  0.3435204899191433  0.2230902173521088  1.0000
  C   C45       1.0  0.6015160094437846  0.632207161665221  0.39771557146225694  1.0000
  C   C46       1.0  0.1015141070264178  0.8677925550627419  0.10228478271096011  1.0000
  C   C47       1.0  0.3984833828372558  0.36779294595147854  0.6022847471123427  1.0000
  C   C48       1.0  0.8984896978083086  0.1322075525539503  0.8977140926539422  1.0000
  C   C49       1.0  0.8444822469340778  0.684169126094254  0.5586166077229252  1.0000
  C   C50       1.0  0.3444825507935576  0.8158288118453852  0.9413803652761603  1.0000
  C   C51       1.0  0.1555149390701231  0.31582831333995637  0.44138008230017794  1.0000
  C   C52       1.0  0.6555223571795993  0.18417218516547249  0.058613706232165406  1.0000
  C   C53       1.0  0.7166660105070619  0.18081472220984549  0.6707351316006863  1.0000
  C   C54       1.0  0.2166773457507603  0.3191831081131014  0.8292694604771427  1.0000
  C   C55       1.0  0.2833245566665994  0.8191827172243717  0.32927238249515506  1.0000
  C   C56       1.0  0.783334181052922  0.6808161101094328  0.1707371051637382  1.0000
  N   N1        1.0  0.4219338994164588  0.8387716236078688  0.6365912687870221  1.0000
  N   N2        1.0  0.9219369049722418  0.6612272037259288  0.8634059515894279  1.0000
  N   N3        1.0  0.5780599771724795  0.161226705220507  0.36340783342799204  1.0000
  N   N4        1.0  0.0780691061393313  0.3387720144966053  0.13658978997870722  1.0000
  N   N5        1.0  0.6429057630448582  0.977350795927151  0.6192822200381373  1.0000
  N   N6        1.0  0.1429093763196008  0.5226489208008117  0.8807210205544821  1.0000
  N   N7        1.0  0.3570881135440729  0.0226484222953829  0.3807221807881973  1.0000
  N   N8        1.0  0.8570966347919722  0.4773520762100461  0.11928243181688462  1.0000
  O   O1        1.0  0.2241720681912156  0.9567960074854226  0.7638241378349306  1.0000
  O   O2        1.0  0.7241772800238452  0.5432037092425404  0.73617405152374  1.0000
  O   O3        1.0  0.7758196021208761  0.04320410013126969  0.2361732943202739  1.0000
  O   O4        1.0  0.2758276279493117  0.4567972877683175  0.2638250712185268  1.0000
  O   O5        1.0  0.08478611599213083  0.793745154841872  0.7469222109550842  1.0000
  O   O6        1.0  0.5847902246863372  0.7062572300685659  0.7530716693017468  1.0000
  O   O7        1.0  0.9152077605968003  0.2062567315631441  0.2530728295354621  1.0000
  O   O8        1.0  0.41521468328681277  0.2937455457306086  0.24692145375161798  1.0000
  O   O9        1.0  0.8107262112146572  0.2581582171892691  0.6653021155740076  1.0000
  O   O10       1.0  0.3107254119357137  0.2418405025278361  0.8347012806714889  1.0000
  O   O11       1.0  0.18927428420480655  0.7418401116390996  0.33470420268950113  1.0000
  O   O12       1.0  0.6892750834837502  0.7581596050888564  0.16530120271765725  1.0000
  O   O13       1.0  0.5885254513839229  0.20543759954138346  0.7092413003630185  1.0000
  O   O14       1.0  0.0885257552433956  0.29456200956988  0.7907609000501454  1.0000
  O   O15       1.0  0.4114739408971246  0.7945616186811504  0.2907638220681648  1.0000
  O   O16       1.0  0.9114736370376448  0.7054398768351291  0.20924568611798122  1.0000
  O   O17       1.0  0.5185412467409165  0.0458064674446916  0.8335120721505335  1.0000
  O   O18       1.0  0.0185492725693521  0.4541895840899315  0.6664905819628617  1.0000
  O   O19       1.0  0.48144711415590546  0.9541883038070366  0.16649109178895563  1.0000
  O   O20       1.0  0.9814622542343372  0.5458060765559622  0.33351571577339467  1.0000
  O   O21       1.0  0.3122984873257764  0.0768080796948496  0.6195104282186819  1.0000
  O   O22       1.0  0.8122948740510267  0.42319064002226264  0.8804871951880173  1.0000
  O   O23       1.0  0.6877064206473804  0.923190249133526  0.3804865091817859  1.0000
  O   O24       1.0  0.18770341509159044  0.5768139145652356  0.11951724669281558  1.0000
