data_image0
_chemical_formula_structural       Hg2H12C14S2I4N4
_chemical_formula_sum              "Hg2 H12 C14 S2 I4 N4"
_cell_length_a       6.6369443706627544
_cell_length_b       9.256719379843727
_cell_length_c       10.958552198273338
_cell_angle_alpha    112.10816901848408
_cell_angle_beta     89.97037677739279
_cell_angle_gamma    111.08860074573776

_space_group_name_H-M_alt    "P 1"
_space_group_IT_number       1

loop_
  _space_group_symop_operation_xyz
  'x, y, z'

loop_
  _atom_site_type_symbol
  _atom_site_label
  _atom_site_symmetry_multiplicity
  _atom_site_fract_x
  _atom_site_fract_y
  _atom_site_fract_z
  _atom_site_occupancy
  Hg  Hg1       1.0  0.6480712169851587  0.29746923239002854  0.448129302642677  1.0000
  Hg  Hg2       1.0  0.35193824133204304  0.7025294004681727  0.5518689456762615  1.0000
  H   H1        1.0  0.6144378364357693  0.2291215161497249  0.9047959212552286  1.0000
  H   H2        1.0  0.3855649642800786  0.7708758565547525  0.09520100917706027  1.0000
  H   H3        1.0  0.7808065306560579  0.560613280125608  0.7212199756625708  1.0000
  H   H4        1.0  0.21919314266774848  0.43939289515308383  0.2787852700403732  1.0000
  H   H5        1.0  0.9377796931137325  0.8730672440919918  0.9485568577705549  1.0000
  H   H6        1.0  0.06221357603941161  0.12693516633236607  0.05144352441645589  1.0000
  H   H7        1.0  0.9945640886814004  0.9874490793947358  0.19996292861420537  1.0000
  H   H8        1.0  0.005421866697780301  0.0125507641836577  0.8000402770457811  1.0000
  H   H9        1.0  0.8965696746228459  0.7925398790529243  0.3136143089845263  1.0000
  H   H10       1.0  0.10342406981023798  0.20745746388541153  0.6863853510556838  1.0000
  H   H11       1.0  0.740174923242769  0.4797691479322311  0.18589667231419332  1.0000
  H   H12       1.0  0.25982485871215016  0.5202282148501991  0.8141011679874026  1.0000
  C   C1        1.0  0.6751825388295173  0.3502143639594522  0.7729559299154899  1.0000
  C   C2        1.0  0.3248219408803478  0.6497893671397533  0.22703940105211026  1.0000
  C   C3        1.0  0.752126496808053  0.5037205601601399  0.9957949245400569  1.0000
  C   C4        1.0  0.2478747877598764  0.4962767951365663  0.004203825636551531  1.0000
  C   C5        1.0  0.8083970503286935  0.6158408730723866  0.9312985117152409  1.0000
  C   C6        1.0  0.1916057323406122  0.38415646644077844  0.06870205820948884  1.0000
  C   C7        1.0  0.8959485864434101  0.7904252039067573  0.0014738545782507692  1.0000
  C   C8        1.0  0.10405243567055322  0.20957463949491742  0.9985302609738583  1.0000
  C   C9        1.0  0.926282548119481  0.8514319295164937  0.14025247379372272  1.0000
  C   C10       1.0  0.07371611140616353  0.14856921065537423  0.8597484102680752  1.0000
  C   C11       1.0  0.8705901627608198  0.7404871505608314  0.20510972665194785  1.0000
  C   C12       1.0  0.1294072385592457  0.25951147580048667  0.7948885216517781  1.0000
  C   C13       1.0  0.7826286706652822  0.5647985522004004  0.13467555043196458  1.0000
  C   C14       1.0  0.21736807899382168  0.43519877576649435  0.8653259293582708  1.0000
  S   S1        1.0  0.5894413359002967  0.17972437731396698  0.6243192213399453  1.0000
  S   S2        1.0  0.410564637399311  0.8202793297038651  0.3756788392488843  1.0000
  I   I1        1.0  0.5655999339851547  0.12849073707830166  0.17703369467765384  1.0000
  I   I2        1.0  0.43439381947119665  0.8715066224556904  0.8229641456163321  1.0000
  I   I3        1.0  0.8306204178738099  0.6612054788537022  0.5315868640838204  1.0000
  I   I4        1.0  0.1693778569564728  0.33879188311662034  0.46841097621587124  1.0000
  N   N1        1.0  0.6707777304251508  0.3415065649907517  0.8943347861697858  1.0000
  N   N2        1.0  0.3292312435888363  0.6584971187578148  0.10566600404217752  1.0000
  N   N3        1.0  0.7585860690518159  0.5163935466711961  0.7954087032943634  1.0000
  N   N4        1.0  0.24141347300731303  0.48360634570533273  0.2045899530171909  1.0000
