data_image0
_chemical_formula_structural       Zn2H28C40N4O10
_chemical_formula_sum              "Zn2 H28 C40 N4 O10"
_cell_length_a       9.20517358718896
_cell_length_b       10.49561817511194
_cell_length_c       11.463372576028892
_cell_angle_alpha    114.52950453482558
_cell_angle_beta     90.89315908925137
_cell_angle_gamma    115.71596192190921

_space_group_name_H-M_alt    "P 1"
_space_group_IT_number       1

loop_
  _space_group_symop_operation_xyz
  'x, y, z'

loop_
  _atom_site_type_symbol
  _atom_site_label
  _atom_site_symmetry_multiplicity
  _atom_site_fract_x
  _atom_site_fract_y
  _atom_site_fract_z
  _atom_site_occupancy
  Zn  Zn1       1.0  0.03099681332487592  0.11798314470285483  0.7976589401727452  1.0000
  Zn  Zn2       1.0  0.9690014058786857  0.8820160284746451  0.2023402365355764  1.0000
  H   H1        1.0  0.7375721306363728  0.8651523533913162  0.299059059063154  1.0000
  H   H2        1.0  0.2624271749215056  0.13484681957620384  0.700940136162302  1.0000
  H   H3        1.0  0.8268984143274309  0.8157939775276051  0.3844000411104105  1.0000
  H   H4        1.0  0.1731014925327585  0.18420639234997077  0.6155996199166012  1.0000
  H   H5        1.0  0.41606475758583633  0.31405399943064793  0.25938097287349393  1.0000
  H   H6        1.0  0.5839339381603494  0.685943972081475  0.7406186270391616  1.0000
  H   H7        1.0  0.2984116673841513  0.08963822581540631  0.0892233551338677  1.0000
  H   H8        1.0  0.7015865603287993  0.9103609519074354  0.9107749510857062  1.0000
  H   H9        1.0  0.47508240129177187  0.056273250303704  0.2299037541446154  1.0000
  H   H10       1.0  0.5249163029638027  0.9437247257537676  0.770094975279285  1.0000
  H   H11       1.0  0.13464090685236124  0.8959921875533182  0.4662052234720447  1.0000
  H   H12       1.0  0.8653589914984395  0.10400817777890842  0.5337953080437146  1.0000
  H   H13       1.0  0.3406203749797641  0.8216602632433591  0.5174344891666891  1.0000
  H   H14       1.0  0.6593784455261088  0.178340106844189  0.4825651533431881  1.0000
  H   H15       1.0  0.4428854988476587  0.6753183623064274  0.3309875338690986  1.0000
  H   H16       1.0  0.5571150008054532  0.3246831999358477  0.6690134634482163  1.0000
  H   H17       1.0  0.4333757003246319  0.5573778061698036  0.08717191323943749  1.0000
  H   H18       1.0  0.5666231031624706  0.44262255482705365  0.9128294702479423  1.0000
  H   H19       1.0  0.32839985359603224  0.5075110333493171  0.8641820122347282  1.0000
  H   H20       1.0  0.6716011225996965  0.49248932722758104  0.1358194082869133  1.0000
  H   H21       1.0  0.15967566277718254  0.5487532339164574  0.7181508687598921  1.0000
  H   H22       1.0  0.8403265160231612  0.45124952048054473  0.2818514833648607  1.0000
  H   H23       1.0  0.9690105143465075  0.6568364145087459  0.7008530448573893  1.0000
  H   H24       1.0  0.03099047035860986  0.3431639506135013  0.2991475051755046  1.0000
  H   H25       1.0  0.8845126501381627  0.7915623763331681  0.9031928948653416  1.0000
  H   H26       1.0  0.11548617036771698  0.2084379937543801  0.0968067476445356  1.0000
  H   H27       1.0  0.32427471727170604  0.4227859623659569  0.6461429761629418  1.0000
  H   H28       1.0  0.6757256661310934  0.5772132058462418  0.3538571080683965  1.0000
  C   C1        1.0  0.40121317496692654  0.4577594381038281  0.5823679298156321  1.0000
  C   C2        1.0  0.5987849109675665  0.5422373319528971  0.4176320747842155  1.0000
  C   C3        1.0  0.45322580000548374  0.39609603184113945  0.3646824572568974  1.0000
  C   C4        1.0  0.5467739820950186  0.6039019394610037  0.6353171611728854  1.0000
  C   C5        1.0  0.35289695888591416  0.3521986520583625  0.4466706692774666  1.0000
  C   C6        1.0  0.6471011355579677  0.6477981225437119  0.5533284648336334  1.0000
  C   C7        1.0  0.19758852205998073  0.19289268419946376  0.390239954448532  1.0000
  C   C8        1.0  0.8024107834978977  0.8071064887680562  0.6097592407769241  1.0000
  C   C9        1.0  0.38846948854584434  0.0521663625426854  0.0513767886458538  1.0000
  C   C10       1.0  0.6115303190828173  0.9478316223955049  0.9486202183176786  1.0000
  C   C11       1.0  0.485682956753074  0.03236453625404321  0.12928771698588554  1.0000
  C   C12       1.0  0.5143141846055671  0.967634641678778  0.8707105707165611  1.0000
  C   C13       1.0  0.40228358306250556  0.0204948711937618  0.921953864978768  1.0000
  C   C14       1.0  0.5977124719418255  0.9795043069490388  0.0780444042065509  1.0000
  C   C15       1.0  0.300809841872379  0.0476863972912938  0.8408816320180605  1.0000
  C   C16       1.0  0.6991871747265748  0.9523103820661093  0.15911661308715713  1.0000
  C   C17       1.0  0.182883554  0.8354920797051903  0.38801996227369523  1.0000
  C   C18       1.0  0.8171169456531118  0.16450948253708483  0.6119810350436197  1.0000
  C   C19       1.0  0.2977130892413697  0.790630220691554  0.41544823426749383  1.0000
  C   C20       1.0  0.702287410411742  0.20937134155072099  0.5845527630498211  1.0000
  C   C21       1.0  0.3535570429161511  0.7114017632415967  0.313156843361341  1.0000
  C   C22       1.0  0.6464451358841926  0.28860099115539833  0.6868455087634047  1.0000
  C   C23       1.0  0.2954690246622818  0.6778613975268755  0.18344944439886035  1.0000
  C   C24       1.0  0.7045314749908299  0.3221401647153996  0.8165515529184547  1.0000
  C   C25       1.0  0.3468201355610958  0.5972694621984118  0.0715550820688833  1.0000
  C   C26       1.0  0.6531836316643335  0.4027321039592806  0.9284451003110732  1.0000
  C   C27       1.0  0.2905021119820007  0.571775533749694  0.948694725934473  1.0000
  C   C28       1.0  0.7094971935758849  0.4282236392178262  0.05130446929098296  1.0000
  C   C29       1.0  0.1783969371690404  0.6255382733765414  0.9276246642842664  1.0000
  C   C30       1.0  0.8216046403289922  0.374463284110412  0.07237722203892356  1.0000
  C   C31       1.0  0.11989232233589332  0.6076598629256085  0.804103524549177  1.0000
  C   C32       1.0  0.8801103500258377  0.3923416988967078  0.19589750980239976  1.0000
  C   C33       1.0  0.014278183586924292  0.666269422612217  0.7939230176955264  1.0000
  C   C34       1.0  0.9857232946795803  0.3337297499353512  0.20607621456419173  1.0000
  C   C35       1.0  0.9656078805396858  0.7417629729970372  0.9066433704389638  1.0000
  C   C36       1.0  0.034392494353738784  0.2582361906698125  0.0933575842811223  1.0000
  C   C37       1.0  0.12282038913607346  0.7032706450509281  0.0360424465375714  1.0000
  C   C38       1.0  0.8771801275358087  0.296730926282045  0.963956809802241  1.0000
  C   C39       1.0  0.18181915364172602  0.7295339384283749  0.16555551795212856  1.0000
  C   C40       1.0  0.8181824323656957  0.2704676236039206  0.8344454978823137  1.0000
  N   N1        1.0  0.01732702996412883  0.7579100100479437  0.02359411357993931  1.0000
  N   N2        1.0  0.9826734611795942  0.24209154764898247  0.9764077542261234  1.0000
  N   N3        1.0  0.12694372598928544  0.8059522684879071  0.2666640565014831  1.0000
  N   N4        1.0  0.8730567651544375  0.1940492892090191  0.7333378113045868  1.0000
  O   O1        1.0  0.15589420845942928  0.1087059949896769  0.2639235928825059  1.0000
  O   O2        1.0  0.8441040107441398  0.8912931781878229  0.7360755838258228  1.0000
  O   O3        1.0  0.11564686442786612  0.14695115743248272  0.46549967137887904  1.0000
  O   O4        1.0  0.8843529176726364  0.8530468138696676  0.5344999470509038  1.0000
  O   O5        1.0  0.20092677721508784  0.09531300860780333  0.8958075343366473  1.0000
  O   O6        1.0  0.7990719355498684  0.9046849719950173  0.10419032459850536  1.0000
  O   O7        1.0  0.321828842400798  0.026226679403514197  0.7263145914540559  1.0000
  O   O8        1.0  0.6781699781050748  0.973773690684034  0.27368505105582114  1.0000
  O   O9        1.0  0.7867911894869409  0.7924388191920712  0.29202473146217756  1.0000
  O   O10       1.0  0.21320811607093765  0.20756035377544887  0.7079744637632857  1.0000
