data_image0
_chemical_formula_structural       Cu4P4H56C36N8Cl4O4
_chemical_formula_sum              "Cu4 P4 H56 C36 N8 Cl4 O4"
_cell_length_a       8.414994749330754
_cell_length_b       8.693978886220343
_cell_length_c       17.60045550256211
_cell_angle_alpha    88.36857127834696
_cell_angle_beta     87.61135115293214
_cell_angle_gamma    64.27700481607584

_space_group_name_H-M_alt    "P 1"
_space_group_IT_number       1

loop_
  _space_group_symop_operation_xyz
  'x, y, z'

loop_
  _atom_site_type_symbol
  _atom_site_label
  _atom_site_symmetry_multiplicity
  _atom_site_fract_x
  _atom_site_fract_y
  _atom_site_fract_z
  _atom_site_occupancy
  Cu  Cu1       1.0  0.37761156247997724  0.4924781194728353  0.5738811145598673  1.0000
  Cu  Cu2       1.0  0.6223856037082953  0.5075155414097168  0.4261188489037479  1.0000
  Cu  Cu3       1.0  0.5147212080280852  0.6175897066193485  0.9246843943202236  1.0000
  Cu  Cu4       1.0  0.485285492478269  0.382406525295508  0.0753136173814823  1.0000
  P   P1        1.0  0.32317022794008204  0.6180903243593364  0.6821884381092572  1.0000
  P   P2        1.0  0.6768336065444559  0.381912301771017  0.31781123778553416  1.0000
  P   P3        1.0  0.38255310648210633  0.6664388301591088  0.8173887231054662  1.0000
  P   P4        1.0  0.6174566296855843  0.333561254558738  0.1826108658574199  1.0000
  H   H1        1.0  0.872537496795843  0.032158338695886385  0.6206862446649666  1.0000
  H   H2        1.0  0.12746041385723572  0.9678442923855074  0.3793169682504781  1.0000
  H   H3        1.0  0.9834230994594151  0.12391745103759182  0.8842129786642303  1.0000
  H   H4        1.0  0.01658357619709248  0.8760762410433713  0.1157879150659227  1.0000
  H   H5        1.0  0.7329238446207996  0.34782853500995264  0.8194834982221905  1.0000
  H   H6        1.0  0.2670816646399174  0.6521651809936772  0.1805219657221997  1.0000
  H   H7        1.0  0.4551336511872748  0.9808789317010281  0.7847191663646312  1.0000
  H   H8        1.0  0.5448536035844782  0.0191287346757747  0.2152756737782227  1.0000
  H   H9        1.0  0.659425477764657  0.9510576528903625  0.7397587993568135  1.0000
  H   H10       1.0  0.3405606819233427  0.04895514405625081  0.26023939142585556  1.0000
  H   H11       1.0  0.6519945692152903  0.7977124724490492  0.8070253339425619  1.0000
  H   H12       1.0  0.3479969254352042  0.20229907002196507  0.19297446609156307  1.0000
  H   H13       1.0  0.07051629092913458  0.6070621047687438  0.8916093390986289  1.0000
  H   H14       1.0  0.9294864652168686  0.39294818164804457  0.10838910122660651  1.0000
  H   H15       1.0  0.9777201175942093  0.4714585124437818  0.8611470686648204  1.0000
  H   H16       1.0  0.022279687710216878  0.5285530446792704  0.1388514151263678  1.0000
  H   H17       1.0  0.9609688003646325  0.6491009555653732  0.8033321128986657  1.0000
  H   H18       1.0  0.039033375552989476  0.3509106009262268  0.19666518330837585  1.0000
  H   H19       1.0  0.03761409441822389  0.2206894010239608  0.4469879896836558  1.0000
  H   H20       1.0  0.9623841528101311  0.7792966029445692  0.5530137774098236  1.0000
  H   H21       1.0  0.9768296512728654  0.20534331090311034  0.5431323499462478  1.0000
  H   H22       1.0  0.023173397151801108  0.7946452754778832  0.4568715447345327  1.0000
  H   H23       1.0  0.18567691780463488  0.04958848767391539  0.5055430206529294  1.0000
  H   H24       1.0  0.8143242829668366  0.9503962489607787  0.49445927103490556  1.0000
  H   H25       1.0  0.10360545539549551  0.43583138142861333  0.6927914124534522  1.0000
  H   H26       1.0  0.8963930165751535  0.5641699559710319  0.3072089681580152  1.0000
  H   H27       1.0  0.13224904445045377  0.260956801221738  0.7540458492649263  1.0000
  H   H28       1.0  0.8677460196275676  0.7390547571642044  0.2459550096945406  1.0000
  H   H29       1.0  0.31787472295857105  0.26671061945892655  0.7034399198585746  1.0000
  H   H30       1.0  0.6821130952963445  0.7332932471264398  0.2965606506118377  1.0000
  H   H31       1.0  0.4744462512797297  0.2251381353471658  0.8291521163235699  1.0000
  H   H32       1.0  0.5255486566664872  0.7748631928823926  0.1708483414831861  1.0000
  H   H33       1.0  0.2863601121749397  0.21932492086727953  0.8775434737059982  1.0000
  H   H34       1.0  0.7136319135401975  0.7806827813432519  0.12245523993197342  1.0000
  H   H35       1.0  0.3678311928613311  0.36578579787115467  0.9059973634516253  1.0000
  H   H36       1.0  0.6321673174668873  0.6342180962244798  0.0940029754329501  1.0000
  H   H37       1.0  0.6780339753059083  0.30189184389707435  0.6827867278235331  1.0000
  H   H38       1.0  0.3219668969949297  0.6981095299677519  0.3172187138671987  1.0000
  H   H39       1.0  0.7899227756359793  0.5565724771475685  0.7127336746261435  1.0000
  H   H40       1.0  0.2100781517676324  0.4434339831298784  0.2872671391283177  1.0000
  H   H41       1.0  0.8144301926215007  0.7037276487020633  0.6465452637708822  1.0000
  H   H42       1.0  0.18557015995681778  0.2962800883950222  0.3534555419860154  1.0000
  H   H43       1.0  0.704734069554817  0.5785648051262556  0.620097200949445  1.0000
  H   H44       1.0  0.2952751355482377  0.4214391198520673  0.3799034744095948  1.0000
  H   H45       1.0  0.7798836250378897  0.0374196471276633  0.9450999149475409  1.0000
  H   H46       1.0  0.22011904034931007  0.9625829995529357  0.0549037631011728  1.0000
  H   H47       1.0  0.9433390076710139  0.8429680114185629  0.9852801318836341  1.0000
  H   H48       1.0  0.0566611639256607  0.15702695568825223  0.014723154748992297  1.0000
  H   H49       1.0  0.7600061670828635  0.9890116414974414  0.0421992761417087  1.0000
  H   H50       1.0  0.23999698020523394  0.010984594737010397  0.957801084996518  1.0000
  H   H51       1.0  0.4337477861158446  0.8449774401940786  0.5842143723989253  1.0000
  H   H52       1.0  0.5662564892104811  0.15501621542171048  0.41578146025196355  1.0000
  H   H53       1.0  0.5328621460726881  0.978938053690207  0.6104709235786389  1.0000
  H   H54       1.0  0.4671338845086694  0.0210606871758472  0.3895238696201558  1.0000
  H   H55       1.0  0.3254513789392136  0.009445145510291299  0.6524883272690543  1.0000
  H   H56       1.0  0.6745469811962364  0.9905510346559013  0.3475047520121919  1.0000
  C   C1        1.0  0.8955498311163409  0.05377984367779479  0.678966368912171  1.0000
  C   C2        1.0  0.10445516652649908  0.9462202456753628  0.3210361632793095  1.0000
  C   C3        1.0  0.9573161216021759  0.1048462967731609  0.8260328220127703  1.0000
  C   C4        1.0  0.04269117264028211  0.895148681928987  0.1739691741086702  1.0000
  C   C5        1.0  0.8164974567961919  0.2312570504797122  0.7891340161475852  1.0000
  C   C6        1.0  0.18350930908317045  0.768741771855339  0.21086963443031687  1.0000
  C   C7        1.0  0.17138020493759137  0.2920877960601942  0.5256067119921894  1.0000
  C   C8        1.0  0.8286204020977834  0.7078981937872085  0.4743915952759181  1.0000
  C   C9        1.0  0.58071265741782  0.8851080900323891  0.7610236196761804  1.0000
  C   C10       1.0  0.4192781775876213  0.11489960574903078  0.2389745516332482  1.0000
  C   C11       1.0  0.047059291491493065  0.5479269343814224  0.8415649209696949  1.0000
  C   C12       1.0  0.9529410448775618  0.452080782481147  0.1584324764253395  1.0000
  C   C13       1.0  0.08993615602742008  0.1851099645918808  0.504317688730211  1.0000
  C   C14       1.0  0.9100602846068426  0.8148747496987667  0.495683001703739  1.0000
  C   C15       1.0  0.037033630933741755  0.9234340012510672  0.7156842597335141  1.0000
  C   C16       1.0  0.9629755028572758  0.0765648170801185  0.2843176351999404  1.0000
  C   C17       1.0  0.06981109861357028  0.950161246467566  0.7912627979261018  1.0000
  C   C18       1.0  0.9302004030891027  0.04983756785974689  0.2087373413629052  1.0000
  C   C19       1.0  0.1926502184364125  0.34435947220304547  0.7335982696766337  1.0000
  C   C20       1.0  0.8073447197627317  0.6556444026052333  0.26640044222229153  1.0000
  C   C21       1.0  0.3460953828424921  0.30324578537196334  0.8568253006361033  1.0000
  C   C22       1.0  0.6539018957169274  0.6967555422261427  0.14317396958650616  1.0000
  C   C23       1.0  0.22290153872216928  0.4347457512290588  0.8008535699341266  1.0000
  C   C24       1.0  0.7770962709018859  0.5652517361085712  0.1991446138923365  1.0000
  C   C25       1.0  0.549499877131126  0.7886853572203518  0.6964060794905292  1.0000
  C   C26       1.0  0.45049096327741006  0.21132234530590205  0.3035932279395155  1.0000
  C   C27       1.0  0.7856826875345035  0.20574778457418563  0.7143270736385574  1.0000
  C   C28       1.0  0.2143205089173394  0.7942510218459374  0.2856755180140098  1.0000
  C   C29       1.0  0.7252592928729271  0.6482086168471709  0.6669517225747299  1.0000
  C   C30       1.0  0.2747399073532719  0.3518016705167994  0.3330484991267112  1.0000
  C   C31       1.0  0.6996378454536439  0.8428797063871656  0.9664747995649279  1.0000
  C   C32       1.0  0.30036242230491433  0.1571229072006801  0.0335243854648368  1.0000
  C   C33       1.0  0.8018698282445483  0.9320503813653644  0.9856140737427522  1.0000
  C   C34       1.0  0.19813160267231214  0.06794969544529288  0.014387967583694199  1.0000
  C   C35       1.0  0.4541828050597161  0.9127606062477083  0.6318812767743651  1.0000
  C   C36       1.0  0.5458161817663053  0.08723687065693038  0.36811460907910026  1.0000
  N   N1        1.0  0.23653409875847586  0.37936868457762773  0.5426147652102101  1.0000
  N   N2        1.0  0.7634653721340359  0.620619875771176  0.45738636636429664  1.0000
  N   N3        1.0  0.4362470471500402  0.708962043621142  0.7271531330446308  1.0000
  N   N4        1.0  0.5637590320688304  0.2910328983001094  0.2728432082054795  1.0000
  N   N5        1.0  0.31185557852237616  0.5392211594939126  0.7709307512444852  1.0000
  N   N6        1.0  0.6881470187902748  0.4607788933940711  0.22906671986773117  1.0000
  N   N7        1.0  0.6179742650437277  0.7691937565597157  0.9518533139475807  1.0000
  N   N8        1.0  0.3820265748385765  0.2308075768360567  0.04814531101943939  1.0000
  Cl  Cl1       1.0  0.714567993463028  0.3598961244638872  0.9807443487186944  1.0000
  Cl  Cl2       1.0  0.28543690585232884  0.6400988245179279  0.019253722444105396  1.0000
  Cl  Cl3       1.0  0.6543757555991547  0.2980010658186529  0.5257998911851727  1.0000
  Cl  Cl4       1.0  0.34561780820711624  0.7019900291978161  0.47420019120062307  1.0000
  O   O1        1.0  0.12568635902469785  0.7801672010814329  0.6710425778043001  1.0000
  O   O2        1.0  0.8743109578922842  0.2198366832126695  0.3289566506914099  1.0000
  O   O3        1.0  0.2004355386324833  0.8414208592089947  0.8384292735450884  1.0000
  O   O4        1.0  0.7995771100192284  0.1585753981065992  0.16157031367874447  1.0000
