data_image0
_chemical_formula_structural       Cu2H40C36N8O8
_chemical_formula_sum              "Cu2 H40 C36 N8 O8"
_cell_length_a       7.182798488191528
_cell_length_b       8.528582994834723
_cell_length_c       17.124364170883613
_cell_angle_alpha    77.85748145073086
_cell_angle_beta     77.90211579990262
_cell_angle_gamma    65.1263754273207

_space_group_name_H-M_alt    "P 1"
_space_group_IT_number       1

loop_
  _space_group_symop_operation_xyz
  'x, y, z'

loop_
  _atom_site_type_symbol
  _atom_site_label
  _atom_site_symmetry_multiplicity
  _atom_site_fract_x
  _atom_site_fract_y
  _atom_site_fract_z
  _atom_site_occupancy
  Cu  Cu1       1.0  0.9999984733601653  0.4999966269834745  0.5000018590690373  1.0000
  Cu  Cu2       1.0  7.896872560000001e-07  2.6180609325000003e-06  6.633184170999997e-07  1.0000
  H   H1        1.0  0.5011265681019028  0.33478078331487643  0.4653481483426346  1.0000
  H   H2        1.0  0.3016792352400373  0.16530335716057468  0.03469360618186096  1.0000
  H   H3        1.0  0.49886722665223737  0.6652111909545371  0.5346489276941424  1.0000
  H   H4        1.0  0.698320799226416  0.8346977752496586  0.965305167194266  1.0000
  H   H5        1.0  0.8139858374274523  0.9080744456553946  0.38706562719266907  1.0000
  H   H6        1.0  0.10941934611011558  0.5919644215631052  0.11308701106759136  1.0000
  H   H7        1.0  0.18599988012766755  0.09192009401791522  0.6129267724607101  1.0000
  H   H8        1.0  0.8905851460515779  0.40803800942450147  0.8869108861700565  1.0000
  H   H9        1.0  0.8272347799188182  0.0751211297300074  0.4295507347329205  1.0000
  H   H10       1.0  0.3322288596184891  0.42513829690329896  0.07057883262385896  1.0000
  H   H11       1.0  0.17275699415583992  0.924864326598474  0.570447559868164  1.0000
  H   H12       1.0  0.6677774603050255  0.5748602195616357  0.9294193214331725  1.0000
  H   H13       1.0  0.4461808225991814  0.9601153518152473  0.3541386839356163  1.0000
  H   H14       1.0  0.7610192168496399  0.5395798836175985  0.14596464040654658  1.0000
  H   H15       1.0  0.5538035266225664  0.03987794132135039  0.6458600130631139  1.0000
  H   H16       1.0  0.23899043109816642  0.4604173432654903  0.8540351428152203  1.0000
  H   H17       1.0  0.05115498544238055  0.19193411541689195  0.41091561084815703  1.0000
  H   H18       1.0  0.6546873693188148  0.30780407882601685  0.08897484129469282  1.0000
  H   H19       1.0  0.9488287407147953  0.8080631481644219  0.5890887085562608  1.0000
  H   H20       1.0  0.3453166940222517  0.6922035799043017  0.9110235480484546  1.0000
  H   H21       1.0  0.8811760591960289  0.7502859169557897  0.24999667059134356  1.0000
  H   H22       1.0  0.11883052867144524  0.24972049973558802  0.7500083926102902  1.0000
  H   H23       1.0  0.38963180487055404  0.583148814361344  0.36456078009155846  1.0000
  H   H24       1.0  0.33761825695516007  0.9164415223026269  0.13525892215685073  1.0000
  H   H25       1.0  0.6103739502174864  0.4168484080239808  0.6354386266170805  1.0000
  H   H26       1.0  0.6623931730097185  0.0835635641439083  0.8647434345427383  1.0000
  H   H27       1.0  0.19037244131036613  0.7496516021771953  0.24989899982352873  1.0000
  H   H28       1.0  0.8096378505849627  0.25034952996654175  0.7500994850380991  1.0000
  H   H29       1.0  0.996980661458082  0.0756126979537513  0.2855148073418545  1.0000
  H   H30       1.0  0.35856673387041826  0.4246749817551461  0.21455551948835694  1.0000
  H   H31       1.0  0.003009927475979177  0.9243897533236594  0.7144855869962257  1.0000
  H   H32       1.0  0.6414378818217874  0.5753274614929963  0.785443670298818  1.0000
  H   H33       1.0  0.7738569677354975  0.2727943390511598  0.2962546500054584  1.0000
  H   H34       1.0  0.3434085970587119  0.2273961235958666  0.20386772036672335  1.0000
  H   H35       1.0  0.22613577513344307  0.7272068334056884  0.703748540542513  1.0000
  H   H36       1.0  0.6565954315887836  0.7726063250329176  0.7961320529430365  1.0000
  H   H37       1.0  0.7652451193336276  0.1038116358287766  0.25292180969486106  1.0000
  H   H38       1.0  0.1226062736330961  0.39619497754257077  0.24725600640827133  1.0000
  H   H39       1.0  0.23474658954649627  0.8962012126298903  0.747073357115326  1.0000
  H   H40       1.0  0.8773964129760116  0.603810068507457  0.7527423031390368  1.0000
  C   C1        1.0  0.4285157068562954  0.2640289022097235  0.4452638548889566  1.0000
  C   C2        1.0  0.13828868219811596  0.23594761840026734  0.05477666719725248  1.0000
  C   C3        1.0  0.5714801974142534  0.73596439215963  0.5547346790996456  1.0000
  C   C4        1.0  0.8617167453905737  0.7640561434485564  0.9452238550373762  1.0000
  C   C5        1.0  0.7621530694625704  0.05001922712624919  0.38325876358672406  1.0000
  C   C6        1.0  0.19580916548274985  0.4500416461911883  0.11687179421390675  1.0000
  C   C7        1.0  0.23783304089330662  0.9499740498684305  0.6167381828442797  1.0000
  C   C8        1.0  0.8041960594633936  0.5499594922160682  0.883127481179734  1.0000
  C   C9        1.0  0.3966119346453922  0.07140137273035661  0.3857449400128416  1.0000
  C   C10       1.0  0.8543171032271457  0.42837283455417463  0.11432778362774329  1.0000
  C   C11       1.0  0.603367629381765  0.9285971612923661  0.6142557486503504  1.0000
  C   C12       1.0  0.14568439680819986  0.5716257126953509  0.8856737460603553  1.0000
  C   C13       1.0  0.20331742876935968  0.18492588425454676  0.4142274275874128  1.0000
  C   C14       1.0  0.8030959368417996  0.3148928359881539  0.08571596725299449  1.0000
  C   C15       1.0  0.7966718722696697  0.8150687565015815  0.5857755634709532  1.0000
  C   C16       1.0  0.1969173027614133  0.6851147788141604  0.9142775469001092  1.0000
  C   C17       1.0  0.7660240730242978  0.5642473608359424  0.38508635260310337  1.0000
  C   C18       1.0  0.7153508850725104  0.9358136987974391  0.11484096524038272  1.0000
  C   C19       1.0  0.23398290057161844  0.4357472518676034  0.614913225318446  1.0000
  C   C20       1.0  0.2846523969799009  0.06419270801553272  0.8851631379255448  1.0000
  C   C21       1.0  0.6482383923725411  0.6566193719677713  0.31465289581991834  1.0000
  C   C22       1.0  0.619476438143586  0.8434674116036833  0.18527422600793378  1.0000
  C   C23       1.0  0.35176697831334297  0.3433804792397695  0.6853483412522862  1.0000
  C   C24       1.0  0.38053180953673416  0.15653767722497497  0.8147284632054762  1.0000
  C   C25       1.0  0.7298137966071893  0.7501396695608236  0.24997482765458998  1.0000
  C   C26       1.0  0.2701855134734147  0.24986412157333862  0.7500289447067344  1.0000
  C   C27       1.0  0.4536385326649538  0.6555475151978953  0.3140937798213129  1.0000
  C   C28       1.0  0.42348082249158375  0.8441808011795972  0.18573991118315544  1.0000
  C   C29       1.0  0.546364220571853  0.3444536324713852  0.685906537113098  1.0000
  C   C30       1.0  0.5765274029795081  0.15582558710931957  0.814262108901218  1.0000
  C   C31       1.0  0.3420564326407672  0.7497899578426158  0.2499066587287827  1.0000
  C   C32       1.0  0.6579501912465772  0.2502124937846801  0.7500933655897339  1.0000
  C   C33       1.0  0.8273478715687902  0.1308413889075339  0.29961755644316657  1.0000
  C   C34       1.0  0.2582547605067307  0.3693297630073005  0.20050969115580125  1.0000
  C   C35       1.0  0.172640585639627  0.8691610417301876  0.700380710814052  1.0000
  C   C36       1.0  0.7417498551854748  0.6306726802408421  0.7994894986313809  1.0000
  N   N1        1.0  0.22575670429012729  0.30402435931635813  0.45112052704580907  1.0000
  N   N2        1.0  0.9814468804994122  0.19591436574841486  0.048818723170846484  1.0000
  N   N3        1.0  0.7742363882873988  0.6959689742167401  0.5488822171052019  1.0000
  N   N4        1.0  0.018559032812717674  0.8040880789989799  0.951180592120714  1.0000
  N   N5        1.0  0.5366807471087397  0.1233066297467218  0.4057674903109427  1.0000
  N   N6        1.0  0.06624676642163509  0.3765760799775819  0.09434395905856968  1.0000
  N   N7        1.0  0.46330655954578515  0.876685337026423  0.594228958203942  1.0000
  N   N8        1.0  0.9337585029429718  0.6234224595091719  0.9056566545931373  1.0000
  O   O1        1.0  0.9098714294227012  0.6135484040270998  0.39061345760755  1.0000
  O   O2        1.0  0.913917868148566  0.8867186133363633  0.10941665872764608  1.0000
  O   O3        1.0  0.0901362200548592  0.3864410054548059  0.6093882133075609  1.0000
  O   O4        1.0  0.08608938720194456  0.11328123398978823  0.890584120326359  1.0000
  O   O5        1.0  0.7207107267156445  0.45064890405527086  0.43515917581968455  1.0000
  O   O6        1.0  0.6067395254335608  0.04915175539259311  0.06466278673690333  1.0000
  O   O7        1.0  0.2792869608982683  0.5493430747119135  0.5648382767302279  1.0000
  O   O8        1.0  0.39326510981529583  0.9508677387265366  0.9353443820123386  1.0000
