data_image0
_chemical_formula_structural       Al4Zn6H120C120N12Cl12O24
_chemical_formula_sum              "Al4 Zn6 H120 C120 N12 Cl12 O24"
_cell_length_a       13.62633903085529
_cell_length_b       16.693664333876775
_cell_length_c       22.906274090283258
_cell_angle_alpha    82.3017549487499
_cell_angle_beta     72.68674997749478
_cell_angle_gamma    65.92431474280768

_space_group_name_H-M_alt    "P 1"
_space_group_IT_number       1

loop_
  _space_group_symop_operation_xyz
  'x, y, z'

loop_
  _atom_site_type_symbol
  _atom_site_label
  _atom_site_symmetry_multiplicity
  _atom_site_fract_x
  _atom_site_fract_y
  _atom_site_fract_z
  _atom_site_occupancy
  Al  Al1       1.0  0.3210628188931394  0.8943305238664365  0.969634531515929  1.0000
  Al  Al2       1.0  0.1851181288171799  0.6057965419091503  0.5301340228154673  1.0000
  Al  Al3       1.0  0.678934737894984  0.10567053307007511  0.030366387859167787  1.0000
  Al  Al4       1.0  0.8148823826488893  0.39420319910458096  0.4698651924496886  1.0000
  Zn  Zn1       1.0  0.20130699206715255  0.4506293010105082  0.8228690432172386  1.0000
  Zn  Zn2       1.0  0.474862710354273  0.049426891530401904  0.6772707674175321  1.0000
  Zn  Zn3       1.0  0.7986924263817269  0.5493710973685993  0.17713073765977333  1.0000
  Zn  Zn4       1.0  0.5251372369455255  0.9505708833473178  0.3227296154430945  1.0000
  Zn  Zn5       1.0  0.783665892813097  0.250124795585279  0.7500140923908917  1.0000
  Zn  Zn6       1.0  0.2163330808527633  0.7498749449263046  0.2499849593363095  1.0000
  H   H1        1.0  0.4136525170637951  0.8273930273648917  0.7812617330625075  1.0000
  H   H2        1.0  0.022153578988437103  0.6725468526710046  0.7186942713927279  1.0000
  H   H3        1.0  0.5863465770114685  0.17260802718757154  0.21873804054015272  1.0000
  H   H4        1.0  0.9778503327937358  0.3274522350977804  0.28130615109625984  1.0000
  H   H5        1.0  0.3407969699065275  0.7559448817540898  0.7945875034172332  1.0000
  H   H6        1.0  0.8912373740224667  0.744001347567675  0.7053416702953753  1.0000
  H   H7        1.0  0.6592009114262466  0.244055519971127  0.20541385966900097  1.0000
  H   H8        1.0  0.10876488023419734  0.2559964295063537  0.2946596125273687  1.0000
  H   H9        1.0  0.48454247557241087  0.7112732198383043  0.7896846572762045  1.0000
  H   H10       1.0  0.9854606901254994  0.7886647383353419  0.7102422342109238  1.0000
  H   H11       1.0  0.5154566193579839  0.28872783952447617  0.21031729851042516  1.0000
  H   H12       1.0  0.014542127955380102  0.21133500295056248  0.2897570081427503  1.0000
  H   H13       1.0  0.3650225053857098  0.6393327820922965  0.05976871554664598  1.0000
  H   H14       1.0  0.06413760102259378  0.8608322953528644  0.44025734236982583  1.0000
  H   H15       1.0  0.634979867570088  0.36066629940196293  0.9402289247836325  1.0000
  H   H16       1.0  0.9358642451346096  0.13916942118755318  0.5597449332183474  1.0000
  H   H17       1.0  0.3768233712719534  0.5775626370039859  0.997511937835057  1.0000
  H   H18       1.0  0.9518971969876374  0.9225929013928039  0.5025334447304104  1.0000
  H   H19       1.0  0.6231614386734917  0.4224377599719987  0.0024878169602189203  1.0000
  H   H20       1.0  0.04809307924094238  0.0774042154907306  0.4974665370630974  1.0000
  H   H21       1.0  0.24502778625601002  0.6518314106818507  0.03781801490307401  1.0000
  H   H22       1.0  0.9346081771595606  0.8483889816212695  0.4621930940233838  1.0000
  H   H23       1.0  0.7549676206682179  0.34817555543313006  0.9621844483006188  1.0000
  H   H24       1.0  0.06539844796866838  0.1516061592568008  0.5378028712943532  1.0000
  H   H25       1.0  0.4084414474982765  0.43958886277496134  0.8507369647269343  1.0000
  H   H26       1.0  0.6988940337426611  0.060363815514783405  0.6493237613413073  1.0000
  H   H27       1.0  0.5915579709506031  0.5604115356041462  0.14926281615007758  1.0000
  H   H28       1.0  0.3011043769541216  0.9396339655952415  0.35067951303891937  1.0000
  H   H29       1.0  0.479216363614654  0.5377091318994259  0.8827894413245474  1.0000
  H   H30       1.0  0.8997716492361079  0.962178060711601  0.6172610019041613  1.0000
  H   H31       1.0  0.5207813132408174  0.46229323715382986  0.11721132705242354  1.0000
  H   H32       1.0  0.10022700056921245  0.03782233885952731  0.38273935185906544  1.0000
  H   H33       1.0  0.15503717122516047  0.7461036925647732  0.8970768170233968  1.0000
  H   H34       1.0  0.798044466759556  0.7539421390517873  0.6028339942081473  1.0000
  H   H35       1.0  0.8449576341651335  0.2538967062320339  0.10292334611335717  1.0000
  H   H36       1.0  0.2019573433981918  0.24605498400297418  0.39716830521194885  1.0000
  H   H37       1.0  0.0975546075874547  0.6390974106411562  0.8617226147501427  1.0000
  H   H38       1.0  0.5982238094484555  0.861038263592995  0.6381961801264708  1.0000
  H   H39       1.0  0.9024438010570035  0.3609003589240985  0.13827542238858107  1.0000
  H   H40       1.0  0.4017782053576154  0.1389568930958021  0.3618071504396881  1.0000
  H   H41       1.0  0.6550624918141422  0.8478625255405915  0.9688671347955663  1.0000
  H   H42       1.0  0.4721635161077699  0.6520183938708398  0.5311177993901168  1.0000
  H   H43       1.0  0.3449363624684735  0.15213590670250446  0.031133813676930813  1.0000
  H   H44       1.0  0.5278369963844651  0.34798135291527643  0.4688840344957869  1.0000
  H   H45       1.0  0.6383219584562381  0.8057701475021019  0.045585776454146305  1.0000
  H   H46       1.0  0.4901383953918524  0.6941836693422871  0.45441170300880884  1.0000
  H   H47       1.0  0.36167798884356017  0.19422762737561783  0.9544146064064805  1.0000
  H   H48       1.0  0.5098632099465448  0.30581541911638505  0.5455891288284391  1.0000
  H   H49       1.0  0.6266487685559596  0.9155240521547369  0.031450082801100586  1.0000
  H   H50       1.0  0.5738739655304526  0.5843549195271578  0.46849666033390497  1.0000
  H   H51       1.0  0.3733505298255721  0.08447503410762638  0.9685498490740373  1.0000
  H   H52       1.0  0.4261292978465291  0.41564548251245986  0.5315046204799643  1.0000
  H   H53       1.0  0.1270920327068055  0.0029344368409667  0.148220727217911  1.0000
  H   H54       1.0  0.27857988768193553  0.49733082463749406  0.35153030239111166  1.0000
  H   H55       1.0  0.872905848454941  0.9970659639221892  0.8517801994315307  1.0000
  H   H56       1.0  0.7214232551146152  0.5026682623991903  0.6484698201104991  1.0000
  H   H57       1.0  0.2217478631753521  0.04490073670908859  0.15963905616953164  1.0000
  H   H58       1.0  0.4266182734975244  0.4553769844586811  0.34008826557832356  1.0000
  H   H59       1.0  0.778249693783799  0.9551003211894836  0.8403622996423509  1.0000
  H   H60       1.0  0.5733853140820598  0.5446227604455275  0.659912586073098  1.0000
  H   H61       1.0  0.22943512545179343  0.9398433042739781  0.18815739746200683  1.0000
  H   H62       1.0  0.3577939899092469  0.5604808601002773  0.3116428751277596  1.0000
  H   H63       1.0  0.7705642928260586  0.0601570931430615  0.8118419469782199  1.0000
  H   H64       1.0  0.6422088281716325  0.4395188811856272  0.6883563672259216  1.0000
  H   H65       1.0  0.28715626962430457  0.1478482003310617  0.8814010226546574  1.0000
  H   H66       1.0  0.31635596136155897  0.3523549537351869  0.618485957299214  1.0000
  H   H67       1.0  0.7128431495086857  0.8521522018963024  0.1186005039695317  1.0000
  H   H68       1.0  0.6836434570873205  0.6476454446439205  0.3815138235777981  1.0000
  H   H69       1.0  0.14434968610354554  0.1881002440118849  0.8815098983806919  1.0000
  H   H70       1.0  0.21384812419186966  0.3121459326379465  0.6183758337260485  1.0000
  H   H71       1.0  0.8556497330294449  0.8119001582154796  0.11849162824349693  1.0000
  H   H72       1.0  0.7861525075125751  0.6878551214545894  0.3816236669777667  1.0000
  H   H73       1.0  0.24838380936025561  0.1242666951792515  0.8200867256096417  1.0000
  H   H74       1.0  0.19259075238822715  0.37604213639858136  0.6797571402403619  1.0000
  H   H75       1.0  0.7516141918688388  0.8757350177006487  0.17991405004168123  1.0000
  H   H76       1.0  0.8074089907763307  0.6239576077312992  0.3202435207845866  1.0000
  H   H77       1.0  0.027272415381062794  0.8656764174350755  0.9582607007877189  1.0000
  H   H78       1.0  0.8511902476565751  0.6343086331222166  0.5416057801271847  1.0000
  H   H79       1.0  0.9727284204586296  0.13432266740530002  0.04173852175178181  1.0000
  H   H80       1.0  0.14880949516593495  0.365691109083535  0.4583940080241788  1.0000
  H   H81       1.0  0.03540205623244929  0.9099157193889765  0.8821354949758842  1.0000
  H   H82       1.0  0.8275580129685592  0.5900646716816739  0.6177534856427586  1.0000
  H   H83       1.0  0.9645980106216213  0.09008336471929822  0.1178634275762462  1.0000
  H   H84       1.0  0.17244140565135513  0.4099357276594945  0.3822467316710529  1.0000
  H   H85       1.0  0.9421964572343738  0.9768179828532767  0.9445906896801264  1.0000
  H   H86       1.0  0.8636940307792145  0.5231174033905218  0.5553161225789651  1.0000
  H   H87       1.0  0.057803285246080784  0.0231817574283468  0.0554082255976525  1.0000
  H   H88       1.0  0.13630526760231718  0.4768816828718343  0.44468380929617274  1.0000
  H   H89       1.0  0.7826027419077589  0.22373762238527212  0.8813696751472975  1.0000
  H   H90       1.0  0.8881459506897684  0.2760794318120645  0.6187623029459742  1.0000
  H   H91       1.0  0.21739740867215565  0.7762581784299698  0.11862824736505219  1.0000
  H   H92       1.0  0.11185488549197943  0.7239196549524393  0.38123779246711115  1.0000
  H   H93       1.0  0.9160005573642706  0.13814863542103242  0.9432468923092331  1.0000
  H   H94       1.0  0.9975763362445914  0.3618638336550434  0.5567968104347686  1.0000
  H   H95       1.0  0.0839993892514315  0.8618491356084234  0.05675174480422382  1.0000
  H   H96       1.0  0.002426806380931651  0.6381352524195733  0.4432028756300497  1.0000
  H   H97       1.0  0.16472174016747937  0.032246042019295394  0.77401190812585  1.0000
  H   H98       1.0  0.9711434904903483  0.46798395428699274  0.725928231943918  1.0000
  H   H99       1.0  0.8352758155944852  0.9677550091448239  0.22598639262848522  1.0000
  H   H100      1.0  0.02885471504502128  0.5320157903028149  0.27407270197987543  1.0000
  H   H101      1.0  0.019652393727767486  0.12101815326400363  0.7193807907439692  1.0000
  H   H102      1.0  0.8605920555082844  0.37893789517657683  0.7806835752003424  1.0000
  H   H103      1.0  0.980343948265549  0.8789822393004981  0.28061648087318514  1.0000
  H   H104      1.0  0.13940922494340666  0.6210618465692547  0.21931594005217653  1.0000
  H   H105      1.0  0.4679573303945688  0.046837021917689015  0.1090628036298185  1.0000
  H   H106      1.0  0.6242284928703156  0.4532523869237011  0.3908836116729405  1.0000
  H   H107      1.0  0.5320420046705222  0.95316666167858  0.8909388501605663  1.0000
  H   H108      1.0  0.37577270436860744  0.5467506410013598  0.6091182129297367  1.0000
  H   H109      1.0  0.522798611543628  0.05070245007849651  0.20306161990028934  1.0000
  H   H110      1.0  0.7769649648907161  0.44938830833867627  0.29686072126308727  1.0000
  H   H111      1.0  0.4772009276567101  0.9492992642656118  0.7969397557257736  1.0000
  H   H112      1.0  0.22303238776216722  0.5506147178499956  0.7031404762763246  1.0000
  H   H113      1.0  0.49085119940597344  0.8169112998080407  0.26870597428229814  1.0000
  H   H114      1.0  0.5768824194136711  0.6831923992379744  0.23126970420018725  1.0000
  H   H115      1.0  0.5091480984624751  0.18308778356812644  0.7312926482824621  1.0000
  H   H116      1.0  0.42311809205239825  0.3168073417757569  0.7687295110649615  1.0000
  H   H117      1.0  0.43985390578085737  0.7998406238699831  0.17507502015232035  1.0000
  H   H118      1.0  0.41513660663554935  0.7002349917269511  0.3249205100480807  1.0000
  H   H119      1.0  0.5601444546241223  0.20016501958776442  0.8249226838838837  1.0000
  H   H120      1.0  0.5848632559122535  0.2997660606714163  0.6750782542315791  1.0000
  C   C1        1.0  0.40624087002449727  0.7682523405369037  0.8058746420486075  1.0000
  C   C2        1.0  0.9802848044875389  0.7316700769117545  0.6940627967526752  1.0000
  C   C3        1.0  0.5937574554071928  0.2317487152075799  0.1941257044402747  1.0000
  C   C4        1.0  0.019717569665445477  0.26832901131695763  0.3059378986351505  1.0000
  C   C5        1.0  0.38085460750227174  0.7784606647915595  0.873699880946333  1.0000
  C   C6        1.0  0.03288478723388254  0.7214541708454549  0.6262361176495972  1.0000
  C   C7        1.0  0.6191452557296342  0.22154039145506488  0.12630062908049672  1.0000
  C   C8        1.0  0.9671168181045073  0.2785449176132176  0.37376471418765084  1.0000
  C   C9        1.0  0.3518920061452704  0.7155994063523394  0.9153758792009514  1.0000
  C   C10       1.0  0.9827266279171878  0.7843602936443406  0.5845914175295734  1.0000
  C   C11       1.0  0.6481069676916104  0.28440033512130475  0.08462360896304236  1.0000
  C   C12       1.0  0.01727574640682409  0.2156387955464325  0.41540971429504486  1.0000
  C   C13       1.0  0.34551035414065706  0.7159632419291668  0.9782903744842814  1.0000
  C   C14       1.0  0.03967418678075761  0.7841603703362807  0.5216929362766791  1.0000
  C   C15       1.0  0.6544852198932032  0.2840371556756197  0.021709215766257697  1.0000
  C   C16       1.0  0.960325880928451  0.2158387185823116  0.47830816845941365  1.0000
  C   C17       1.0  0.33403390127382676  0.6410398126734622  0.0203719233704476  1.0000
  C   C18       1.0  0.9954007957979198  0.8591458191860467  0.4796398228670284  1.0000
  C   C19       1.0  0.6659590417716  0.3589612408324997  0.9796276325172146  1.0000
  C   C20       1.0  0.004600245032158109  0.14085130121248565  0.5203613036921126  1.0000
  C   C21       1.0  0.3545582294046524  0.5081774691554201  0.8612843501187228  1.0000
  C   C22       1.0  0.7240387881989957  0.9917995372003502  0.6387753225271596  1.0000
  C   C23       1.0  0.6454424022997926  0.4918235849371158  0.13871515058509226  1.0000
  C   C24       1.0  0.2759612793391852  0.008199550756181402  0.3612253457721409  1.0000
  C   C25       1.0  0.39345323729430953  0.563348347172898  0.8795590349369108  1.0000
  C   C26       1.0  0.8363496538435841  0.9365952912624633  0.62047880514843  1.0000
  C   C27       1.0  0.6065443188097034  0.43665270591535693  0.12044013869101634  1.0000
  C   C28       1.0  0.16365283900854166  0.06340510138647198  0.3795182477469297  1.0000
  C   C29       1.0  0.3218832624758789  0.6509119276882203  0.8934058272696248  1.0000
  C   C30       1.0  0.8660975827090097  0.8490547181462775  0.6066114867880401  1.0000
  C   C31       1.0  0.6781127559989526  0.3490891258599546  0.10659361925713996  1.0000
  C   C32       1.0  0.13390139078582305  0.1509450214032455  0.39338712850236857  1.0000
  C   C33       1.0  0.21351318299784344  0.6785981771190848  0.8867845250620618  1.0000
  C   C34       1.0  0.7787552664827044  0.8214081376893532  0.6132097845150569  1.0000
  C   C35       1.0  0.7864838096240162  0.3214009136814155  0.1132175619085062  1.0000
  C   C36       1.0  0.22124249478272157  0.1785909519191264  0.38679172956930336  1.0000
  C   C37       1.0  0.18084678564801476  0.6201494756859988  0.8676504610397231  1.0000
  C   C38       1.0  0.6685562577587518  0.8798928930462322  0.6323425819453161  1.0000
  C   C39       1.0  0.8191525127335167  0.37984961057636474  0.13234947083541465  1.0000
  C   C40       1.0  0.33144182719618687  0.12010553654063469  0.3676571936662185  1.0000
  C   C41       1.0  0.6088193050761602  0.8640828741489912  0.016647019899245726  1.0000
  C   C42       1.0  0.489868772284616  0.6358622314050849  0.48332192027579884  1.0000
  C   C43       1.0  0.3911787802208407  0.13591555736200434  0.9833536285858815  1.0000
  C   C44       1.0  0.5101325088511784  0.3641375141890038  0.5166793407238971  1.0000
  C   C45       1.0  0.48661281045848864  0.8913538115154295  0.024034138522445393  1.0000
  C   C46       1.0  0.40220641574625665  0.6087634845729964  0.47589220858348114  1.0000
  C   C47       1.0  0.5133848660549347  0.1086485556136978  0.9759657569809408  1.0000
  C   C48       1.0  0.5977948653895381  0.3912362610210921  0.5241090524162075  1.0000
  C   C49       1.0  0.40889389049512187  0.9195298609675361  0.08144564388776132  1.0000
  C   C50       1.0  0.41018362153918275  0.5805684820824054  0.4184531349246187  1.0000
  C   C51       1.0  0.591103377576779  0.08047644370385142  0.9185543715074758  1.0000
  C   C52       1.0  0.5898166859626668  0.41943322914554676  0.5815467949416444  1.0000
  C   C53       1.0  0.2930550447700567  0.9475247138798366  0.089805409467715  1.0000
  C   C54       1.0  0.33068527372584805  0.5526722289379578  0.4099961920294675  1.0000
  C   C55       1.0  0.706943400900016  0.052477654943451996  0.9101952224598335  1.0000
  C   C56       1.0  0.6693153578075693  0.44732882419251047  0.5900028722375623  1.0000
  C   C57       1.0  0.2126864866219691  0.9859000411045002  0.149853435091984  1.0000
  C   C58       1.0  0.3487742516179892  0.514369814939478  0.3499044610599356  1.0000
  C   C59       1.0  0.7873115144361051  0.0141016708133321  0.8501469041225463  1.0000
  C   C60       1.0  0.6512290110748822  0.4856305832518899  0.6500950740067638  1.0000
  C   C61       1.0  0.44775129956136056  0.9231350661440418  0.1348669120586123  1.0000
  C   C62       1.0  0.5061168263875259  0.5769206653715457  0.3650749395116932  1.0000
  C   C63       1.0  0.5522472656629773  0.07686861190980211  0.8651322595604329  1.0000
  C   C64       1.0  0.49388457515767203  0.4230803942634154  0.6349270433634616  1.0000
  C   C65       1.0  0.22490608416621427  0.1320829710863691  0.8699118598898536  1.0000
  C   C66       1.0  0.22684935424558  0.3681743589568711  0.629933344359806  1.0000
  C   C67       1.0  0.7750930102510976  0.8679180853902151  0.13008878658639836  1.0000
  C   C68       1.0  0.773149740513787  0.6318266994438488  0.3700681749900241  1.0000
  C   C69       1.0  0.2175633931069996  0.049638354124653  0.9021388100722447  1.0000
  C   C70       1.0  0.1693687728237308  0.4505584351096203  0.597659414622072  1.0000
  C   C71       1.0  0.7824344877126987  0.9503620447143746  0.09786124370361192  1.0000
  C   C72       1.0  0.8306321832543374  0.5494419628095599  0.40234009335610216  1.0000
  C   C73       1.0  0.13218302263761214  0.023386470100895496  0.8995311021122773  1.0000
  C   C74       1.0  0.055084576228381366  0.4768472846082261  0.6003736014920449  1.0000
  C   C75       1.0  0.8678182569589409  0.9766132668346188  0.10046623095627896  1.0000
  C   C76       1.0  0.9449159354087158  0.5231524573675657  0.3996260502098963  1.0000
  C   C77       1.0  0.11756469576612708  0.9495253377479074  0.9323888208892513  1.0000
  C   C78       1.0  0.9995079589134122  0.5505852732152191  0.5674317197918484  1.0000
  C   C79       1.0  0.8824333044368089  0.05047636935960748  0.06760933614130948  1.0000
  C   C80       1.0  0.000491783567035476  0.44941446706640426  0.4325671954859303  1.0000
  C   C81       1.0  0.025097429719792813  0.9241314968366084  0.9296472332903393  1.0000
  C   C82       1.0  0.8789021522056538  0.5758782144627618  0.5702178914279301  1.0000
  C   C83       1.0  0.9749015437750328  0.07586824271290743  0.07035138200007655  1.0000
  C   C84       1.0  0.12109791499047148  0.4241208715696417  0.4297819039977853  1.0000
  C   C85       1.0  0.8684680475708715  0.18118917990310726  0.8596940551235549  1.0000
  C   C86       1.0  0.9096501100207984  0.318752512754955  0.6403970893693015  1.0000
  C   C87       1.0  0.1315275262919612  0.8188112167396113  0.14030509869019175  1.0000
  C   C88       1.0  0.09035347721672331  0.6812472302251182  0.359602889408535  1.0000
  C   C89       1.0  0.9435231934568404  0.1335065584507049  0.8935805251748904  1.0000
  C   C90       1.0  0.9707546852350076  0.36656237655338947  0.6064479807993379  1.0000
  C   C91       1.0  0.056475575389661845  0.8664951474647894  0.10641705896946263  1.0000
  C   C92       1.0  0.029248781935166227  0.6334360543099394  0.39355214897662455  1.0000
  C   C93       1.0  0.0519976307724619  0.0776248539678974  0.8638349918114374  1.0000
  C   C94       1.0  0.9934755657633328  0.42258769550606706  0.6361353156181908  1.0000
  C   C95       1.0  0.9480045375350055  0.9223761938923333  0.13616161737278526  1.0000
  C   C96       1.0  0.006524621842196068  0.5774127045672091  0.36386520168299097  1.0000
  C   C97       1.0  0.080898693456831  0.07363693142787041  0.7997779710874369  1.0000
  C   C98       1.0  0.9544671392126104  0.4265261671568225  0.7002106430017393  1.0000
  C   C99       1.0  0.919100399934322  0.9263641192763358  0.2002200567680604  1.0000
  C   C100      1.0  0.04553183530838112  0.5734735781650854  0.2997905909094243  1.0000
  C   C101      1.0  0.0011382304359699093  0.12334717483885528  0.7690217278562629  1.0000
  C   C102      1.0  0.8938478196307926  0.37667846596507815  0.7310370444568761  1.0000
  C   C103      1.0  0.9988596490155147  0.8766532163036587  0.23097483442526115  1.0000
  C   C104      1.0  0.10615236780370912  0.6233219331461299  0.2689630364075128  1.0000
  C   C105      1.0  0.4716179210191668  0.9943056155145554  0.14322918318281813  1.0000
  C   C106      1.0  0.6095219305389035  0.5057769210313837  0.3567075126941718  1.0000
  C   C107      1.0  0.5283819420417117  0.0056954397700082005  0.8567708904072192  1.0000
  C   C108      1.0  0.39048015592402396  0.49422742070458275  0.6432948973345489  1.0000
  C   C109      1.0  0.5018373292497528  0.9971422282035434  0.19545046840923422  1.0000
  C   C110      1.0  0.6947781892958173  0.5029273044677964  0.3044786218209055  1.0000
  C   C111      1.0  0.4981651649705866  0.002858172141913001  0.8045500759804726  1.0000
  C   C112      1.0  0.30522232285435535  0.49707244039419146  0.6955223391914133  1.0000
  C   C113      1.0  0.4856537485667401  0.8650724383635265  0.23136540013529583  1.0000
  C   C114      1.0  0.5824699753322305  0.6350260502875501  0.2686118323568749  1.0000
  C   C115      1.0  0.5143420659438718  0.1349305853988767  0.7686347609925832  1.0000
  C   C116      1.0  0.417531305461516  0.36497369338240293  0.7313885557692289  1.0000
  C   C117      1.0  0.45685407460412353  0.8567745161467571  0.17986319816112234  1.0000
  C   C118      1.0  0.49385321560399825  0.6433058890671005  0.3200915913765244  1.0000
  C   C119      1.0  0.5431418599738363  0.1432298197323902  0.8201368119686381  1.0000
  C   C120      1.0  0.5061466471148249  0.35669516429333464  0.6799076093399279  1.0000
  N   N1        1.0  0.2502027161234607  0.5360212723311905  0.8554161065523048  1.0000
  N   N2        1.0  0.6416081200637006  0.9640093076247924  0.6446015183890311  1.0000
  N   N3        1.0  0.7497987682924503  0.4639764992004131  0.1445826940991068  1.0000
  N   N4        1.0  0.3583949028365295  0.03598846825720871  0.355399191547491  1.0000
  N   N5        1.0  0.5075606557499341  0.9339774686030397  0.23910065582100512  1.0000
  N   N6        1.0  0.6809855812860232  0.5661037941289635  0.26083078366360013  1.0000
  N   N7        1.0  0.4924373454791676  0.0660242442768606  0.7609001198303176  1.0000
  N   N8        1.0  0.31901294845194866  0.43389529332542054  0.7391697210977526  1.0000
  N   N9        1.0  0.8966279486028268  0.17596508470247585  0.7984127968743949  1.0000
  N   N10       1.0  0.871354798799686  0.3240071788660758  0.7016810633989934  1.0000
  N   N11       1.0  0.1033712288562256  0.8240326846328188  0.20158510381489952  1.0000
  N   N12       1.0  0.1286464819940533  0.6759925648038845  0.29831932472711037  1.0000
  Cl  Cl1       1.0  0.25538654171805314  0.3273346564867765  0.8761734533791455  1.0000
  Cl  Cl2       1.0  0.45878439374869356  0.17277039095411342  0.6240005498000016  1.0000
  Cl  Cl3       1.0  0.7446139699190437  0.6726650854890153  0.12382619832279575  1.0000
  Cl  Cl4       1.0  0.5412177394144563  0.8272260682307858  0.3759982654001065  1.0000
  Cl  Cl5       1.0  0.0351958825988987  0.5296340398011238  0.8059385944674489  1.0000
  Cl  Cl6       1.0  0.3706885560276232  0.970495817636376  0.6942266910206102  1.0000
  Cl  Cl7       1.0  0.9648037401562559  0.47036439028788385  0.19406134468203365  1.0000
  Cl  Cl8       1.0  0.6293110665565036  0.029502611490571  0.305772811692087  1.0000
  Cl  Cl9       1.0  0.6299120893406351  0.3366883027738084  0.8155241146642496  1.0000
  Cl  Cl10      1.0  0.7820717868696716  0.16368122050926806  0.6843755455423236  1.0000
  Cl  Cl11      1.0  0.3700874486625094  0.6633134048358471  0.1844742059042659  1.0000
  Cl  Cl12      1.0  0.21793143982375074  0.836314584196444  0.31562401335629897  1.0000
  O   O1        1.0  0.3910368827400885  0.8444879831702181  0.8904719045451942  1.0000
  O   O2        1.0  0.1258203060263696  0.655418544795573  0.6094240739293896  1.0000
  O   O3        1.0  0.608959135734743  0.1555130703779568  0.10952754198157776  1.0000
  O   O4        1.0  0.8741799659891141  0.34457857583291934  0.3905771890791739  1.0000
  O   O5        1.0  0.347480073448544  0.7794430660555279  0.0034584393004379777  1.0000
  O   O6        1.0  0.13039916028806425  0.7207748960832775  0.49649358860052933  1.0000
  O   O7        1.0  0.6525192244199047  0.2205560173206464  0.9965401832643154  1.0000
  O   O8        1.0  0.8696036584769259  0.27922484905089107  0.5035073995003145  1.0000
  O   O9        1.0  0.4581800623507774  0.8875468583032886  0.975961973957567  1.0000
  O   O10       1.0  0.3217284134080884  0.6126778642629772  0.5239240170946077  1.0000
  O   O11       1.0  0.5418176989146486  0.11245223130518409  0.024039540126793234  1.0000
  O   O12       1.0  0.6782733962365766  0.38731925590560223  0.4760769730151183  1.0000
  O   O13       1.0  0.24941083883951615  0.9441616687690201  0.04790350259592195  1.0000
  O   O14       1.0  0.24165639303061673  0.5560872262098044  0.45183620206744735  1.0000
  O   O15       1.0  0.750589553072288  0.055836763014156084  0.9520971729777231  1.0000
  O   O16       1.0  0.7583423766710237  0.44391448451600724  0.5481635642608681  1.0000
  O   O17       1.0  0.29011329415283876  0.006669326269992801  0.9319488841343572  1.0000
  O   O18       1.0  0.22885855990998033  0.49341863596471564  0.56773810615028  1.0000
  O   O19       1.0  0.709882725177131  0.9933317320884996  0.0680527445763772  1.0000
  O   O20       1.0  0.7711425996192247  0.5065797888540543  0.4322593779164023  1.0000
  O   O21       1.0  0.18100921422038133  0.8994159978762397  0.9655608043858878  1.0000
  O   O22       1.0  0.046108659741953766  0.6005919998432816  0.5341262530654731  1.0000
  O   O23       1.0  0.8189884619509866  0.10058636732875928  0.03443821824391345  1.0000
  O   O24       1.0  0.9538907587069332  0.3994083985358259  0.46587352781154584  1.0000
