data_image0
_chemical_formula_structural       Cd3H38C28O16F12
_chemical_formula_sum              "Cd3 H38 C28 O16 F12"
_cell_length_a       9.538237419638117
_cell_length_b       9.648382328476227
_cell_length_c       12.386289461895146
_cell_angle_alpha    69.52179955857189
_cell_angle_beta     70.78038483957368
_cell_angle_gamma    87.54254626994972

_space_group_name_H-M_alt    "P 1"
_space_group_IT_number       1

loop_
  _space_group_symop_operation_xyz
  'x, y, z'

loop_
  _atom_site_type_symbol
  _atom_site_label
  _atom_site_symmetry_multiplicity
  _atom_site_fract_x
  _atom_site_fract_y
  _atom_site_fract_z
  _atom_site_occupancy
  Cd  Cd1       1.0  0.1941342456876285  0.5549725749235536  0.3424666146904869  1.0000
  Cd  Cd2       1.0  0.80586132779122  0.4450316996517856  0.6575342195483032  1.0000
  Cd  Cd3       1.0  0.4999997408941893  0.4999988118986494  0.5000000192634175  1.0000
  H   H1        1.0  0.27380202868719994  0.6008195761350451  0.6957748569909584  1.0000
  H   H2        1.0  0.7261989199202715  0.3991824902158074  0.3042252132474843  1.0000
  H   H3        1.0  0.0839100350124085  0.5204014712780848  0.7738275206348817  1.0000
  H   H4        1.0  0.9160919328648374  0.4795994875472973  0.2261701703460447  1.0000
  H   H5        1.0  0.12029216409206357  0.713778296879923  0.6963307570824427  1.0000
  H   H6        1.0  0.8797098950034011  0.2862237718538411  0.30366903037660364  1.0000
  H   H7        1.0  0.2655527772138271  0.9421511090373897  0.2131733702761594  1.0000
  H   H8        1.0  0.7344515020034591  0.05785096451590022  0.7868250444819438  1.0000
  H   H9        1.0  0.2005418933597269  0.8685799321770561  0.37649471994485134  1.0000
  H   H10       1.0  0.7994568351259231  0.131422129354263  0.6235067229945346  1.0000
  H   H11       1.0  0.019699819249176197  0.039924545981293115  0.3892670262746378  1.0000
  H   H12       1.0  0.9803010389942484  0.960076410407467  0.6107317546278355  1.0000
  H   H13       1.0  0.10399541370018989  0.1353884985529703  0.2298909186423758  1.0000
  H   H14       1.0  0.8960040689423607  0.8646091251906256  0.7701099270266029  1.0000
  H   H15       1.0  0.9378983694228605  0.0037183882900180005  0.18095833524443358  1.0000
  H   H16       1.0  0.06210137747839182  0.9962825657695551  0.8190399212952854  1.0000
  H   H17       1.0  0.8155197981497722  0.001792075804012001  0.3255091749548384  1.0000
  H   H18       1.0  0.18448199241610297  0.9982066628823392  0.6744891659227221  1.0000
  H   H19       1.0  0.8840281475353037  0.7554091152019569  0.43081697974529487  1.0000
  H   H20       1.0  0.1159692897342595  0.2445907240222809  0.5691821673015413  1.0000
  H   H21       1.0  0.8773587943603544  0.7380961850414212  0.2926342935521617  1.0000
  H   H22       1.0  0.12263726816252069  0.26190032148393544  0.7073677254033299  1.0000
  H   H23       1.0  0.23276598074922109  0.36493757644970515  0.14266517752935937  1.0000
  H   H24       1.0  0.7672346993286607  0.6350611598537342  0.8573334461276048  1.0000
  H   H25       1.0  0.3864448272838317  0.49992440707530533  0.08515426831699094  1.0000
  H   H26       1.0  0.6135538116919577  0.5000765444402121  0.9148466924285686  1.0000
  H   H27       1.0  0.19795806933137777  0.45161576373453033  0.9465987524207193  1.0000
  H   H28       1.0  0.8020393713549012  0.5483840752748463  0.05340362319470431  1.0000
  H   H29       1.0  0.374515125795483  0.5507096224464618  0.8891868217360042  1.0000
  H   H30       1.0  0.6254836904916771  0.4492935492080932  0.11081348911291415  1.0000
  H   H31       1.0  0.24259622197213554  0.7699743439325105  0.8577894831261333  1.0000
  H   H32       1.0  0.7574000170079315  0.23002438278558665  0.1422110787905666  1.0000
  H   H33       1.0  0.07009728250176289  0.6638124957676156  0.9499164644366617  1.0000
  H   H34       1.0  0.9299024669620265  0.3361884581308133  0.050084213529501695  1.0000
  H   H35       1.0  0.2949293700131932  0.7759568318682711  0.03572846328906816  1.0000
  H   H36       1.0  0.7050703803047682  0.22404412197644058  0.9642730218192455  1.0000
  H   H37       1.0  0.0962085687764755  0.7767388557880823  0.0891340395128708  1.0000
  H   H38       1.0  0.9037922008112674  0.22326099053116624  0.9108650663379194  1.0000
  C   C1        1.0  0.3995013914796671  0.273764958209867  0.37987903657787586  1.0000
  C   C2        1.0  0.6004948466462139  0.7262337685619472  0.6201207181966809  1.0000
  C   C3        1.0  0.4370851966490789  0.1296508921839674  0.34954793926021216  1.0000
  C   C4        1.0  0.5629133519626706  0.8703489493694649  0.6504517321493779  1.0000
  C   C5        1.0  0.5504183209294099  0.709142031270936  0.21516876970641619  1.0000
  C   C6        1.0  0.44957800499798134  0.29085780562410696  0.7848298529776656  1.0000
  C   C7        1.0  0.6568426153318113  0.8283069106732841  0.09653414809321956  1.0000
  C   C8        1.0  0.3431613996267728  0.17169183256402223  0.9034668557941432  1.0000
  C   C9        1.0  0.14936039500230447  0.5892409890805015  0.580537861701302  1.0000
  C   C10       1.0  0.8506404640952993  0.4107599672545419  0.41946172634331463  1.0000
  C   C11       1.0  0.16035449856274653  0.6062252452924998  0.6934538727184645  1.0000
  C   C12       1.0  0.839646450044725  0.39377682105835293  0.30654619751997814  1.0000
  C   C13       1.0  0.16605254304896278  0.907407106291771  0.2952807995474559  1.0000
  C   C14       1.0  0.8339493378809593  0.09259274235666481  0.7047188306660815  1.0000
  C   C15       1.0  0.054717261862649004  0.027043200567419507  0.2996746405542936  1.0000
  C   C16       1.0  0.9452833304137226  0.9729544256127982  0.7003251151931381  1.0000
  C   C17       1.0  0.9222992074047196  0.9672497970249339  0.2790582243226752  1.0000
  C   C18       1.0  0.07770249535965229  0.03274783153818821  0.7209412486453601  1.0000
  C   C19       1.0  0.929803154716531  0.8003572916642343  0.3302101927091456  1.0000
  C   C20       1.0  0.07019530523952969  0.1996414398196791  0.6697898036487615  1.0000
  C   C21       1.0  0.27232028252448964  0.48113341804612036  0.08723103474727613  1.0000
  C   C22       1.0  0.7276793774294389  0.5188664258364996  0.9127691610250537  1.0000
  C   C23       1.0  0.26275087922243756  0.5336171691260037  0.9577040701152414  1.0000
  C   C24       1.0  0.7372486920758021  0.46638156468710434  0.0422964506054129  1.0000
  C   C25       1.0  0.1858963043158397  0.680346506687144  0.9443541339671668  1.0000
  C   C26       1.0  0.8141043791787509  0.31965222940144145  0.05564771825839196  1.0000
  C   C27       1.0  0.1891872776780659  0.7162521104496662  0.05382411793280544  1.0000
  C   C28       1.0  0.8108146041060278  0.28374773814505977  0.9461763194228823  1.0000
  O   O1        1.0  0.29255809270529193  0.33379930518590584  0.3480680425619412  1.0000
  O   O2        1.0  0.7074425907892987  0.6661994309026796  0.6519338096636106  1.0000
  O   O3        1.0  0.47653579199453583  0.3073264275005273  0.43327689218004656  1.0000
  O   O4        1.0  0.5234648906458759  0.6926723086417684  0.5667241529033618  1.0000
  O   O5        1.0  0.4255326896559239  0.6839259127047586  0.20929764155022207  1.0000
  O   O6        1.0  0.5744659493198653  0.3160750388107658  0.7907033191953374  1.0000
  O   O7        1.0  0.6040895808172663  0.6594266367944216  0.30029019472637236  1.0000
  O   O8        1.0  0.39590905901270185  0.34057431466737853  0.6997115731613307  1.0000
  O   O9        1.0  0.2673766237317635  0.5728610450376764  0.4982649250231717  1.0000
  O   O10       1.0  0.732625346708019  0.4271399136265617  0.5017351873841919  1.0000
  O   O11       1.0  0.025202602354958997  0.5945915530513163  0.5638969753415426  1.0000
  O   O12       1.0  0.974800299553088  0.4054071879642295  0.4361018898987724  1.0000
  O   O13       1.0  0.088864301558381  0.7828612972150708  0.2907773162297005  1.0000
  O   O14       1.0  0.9111364688835337  0.21713854905046057  0.7092225967632403  1.0000
  O   O15       1.0  0.17572735296693048  0.5712328050555159  0.1485411582332645  1.0000
  O   O16       1.0  0.8242721305297989  0.42876481863436317  0.8514604945778574  1.0000
  F   F1        1.0  0.3366565867008902  0.014538734826807306  0.4348066624908711  1.0000
  F   F2        1.0  0.6633431636170782  0.9854622190179045  0.5651948226174355  1.0000
  F   F3        1.0  0.5750829130138726  0.08837267297949582  0.3488353745143015  1.0000
  F   F4        1.0  0.4249188801145394  0.9116260655457114  0.6511653877897103  1.0000
  F   F5        1.0  0.42951294205587226  0.14593963189084042  0.23771963239266822  1.0000
  F   F6        1.0  0.5704889397282216  0.8540602167038858  0.7622808049630195  1.0000
  F   F7        1.0  0.8043860372169789  0.8076979677669842  0.07906133875717104  1.0000
  F   F8        1.0  0.19561730882367806  0.19230632354243238  0.9209367088836871  1.0000
  F   F9        1.0  0.6345949329040081  0.9656783541890732  0.1045770735651033  1.0000
  F   F10       1.0  0.36540583753791367  0.0343214920764581  0.8954228394278304  1.0000
  F   F11       1.0  0.6326777604481251  0.8313768471708304  0.993431254619317  1.0000
  F   F12       1.0  0.36731941341692215  0.16861966168371376  0.006571288698921806  1.0000
