data_image0
_chemical_formula_structural       Cd2H32C32N20O4
_chemical_formula_sum              "Cd2 H32 C32 N20 O4"
_cell_length_a       7.415298656040599
_cell_length_b       9.830902499217801
_cell_length_c       12.447831472584548
_cell_angle_alpha    100.68967601319295
_cell_angle_beta     89.99978023721685
_cell_angle_gamma    90.0003510619703

_space_group_name_H-M_alt    "P 1"
_space_group_IT_number       1

loop_
  _space_group_symop_operation_xyz
  'x, y, z'

loop_
  _atom_site_type_symbol
  _atom_site_label
  _atom_site_symmetry_multiplicity
  _atom_site_fract_x
  _atom_site_fract_y
  _atom_site_fract_z
  _atom_site_occupancy
  Cd  Cd1       1.0  0.9999945025765767  4.4051977709911923e-07  0.5000020644095713  1.0000
  Cd  Cd2       1.0  0.4999991690117867  0.4999966972707026  0.4999968973282023  1.0000
  H   H1        1.0  0.4089780493439008  0.9207463802582365  0.5677251870366078  1.0000
  H   H2        1.0  0.9089839182896854  0.5792583955985223  0.4322704131338426  1.0000
  H   H3        1.0  0.5910189401771149  0.079266660534735  0.4322747786863914  1.0000
  H   H4        1.0  0.091025208216216  0.42073186650696204  0.5677269267618641  1.0000
  H   H5        1.0  0.6311158497969203  0.9807301953188554  0.7204776644140553  1.0000
  H   H6        1.0  0.1311139496176068  0.5192703272059731  0.2795163191131707  1.0000
  H   H7        1.0  0.3688932768067729  0.0192797886602065  0.2795146108390938  1.0000
  H   H8        1.0  0.8688951768675677  0.48071783759162645  0.7204847218656026  1.0000
  H   H9        1.0  0.5586672069135689  0.17639667187946628  0.8753960228589079  1.0000
  H   H10       1.0  0.05866612912169699  0.3236017472491923  0.1246017229298815  1.0000
  H   H11       1.0  0.4413378739755913  0.8236101796327515  0.12459979764572891  1.0000
  H   H12       1.0  0.9413362545771874  0.6763926446415665  0.875397845412131  1.0000
  H   H13       1.0  0.061912536835954816  0.23303681119416098  0.7088977368813829  1.0000
  H   H14       1.0  0.5619195259805281  0.26696469452745936  0.29110528638354083  1.0000
  H   H15       1.0  0.9380723155102969  0.7669575212449756  0.2911106595313342  1.0000
  H   H16       1.0  0.4380788120956254  0.7330431921212153  0.708890689961528  1.0000
  H   H17       1.0  0.18508681570617108  0.5087941727850663  0.06308996191576453  1.0000
  H   H18       1.0  0.6850914342058586  0.9912065424004696  0.9369087483462409  1.0000
  H   H19       1.0  0.8149047795133127  0.49120849488598856  0.9369116556649147  1.0000
  H   H20       1.0  0.31490555527384595  0.008795111736794998  0.0630895031927992  1.0000
  H   H21       1.0  0.5545511916249737  0.4007299534196632  0.8066875958847035  1.0000
  H   H22       1.0  0.05455321084431831  0.0992694728997208  0.1933119175917497  1.0000
  H   H23       1.0  0.4454457978648775  0.5992737764200128  0.1933101647735782  1.0000
  H   H24       1.0  0.9454478242998332  0.9007280190384176  0.806688920806657  1.0000
  H   H25       1.0  0.5262925758218202  0.577592907481609  0.8677557612450928  1.0000
  H   H26       1.0  0.026289565117210097  0.9224081752757415  0.1322441679810851  1.0000
  H   H27       1.0  0.4737017165239478  0.42241181429199753  0.1322485756549057  1.0000
  H   H28       1.0  0.9737114700375142  0.07758933826788449  0.8677534602150203  1.0000
  H   H29       1.0  0.3059336283230252  0.6427018268266451  0.016996113679532212  1.0000
  H   H30       1.0  0.8059314481169081  0.8572973111641243  0.9830036917165613  1.0000
  H   H31       1.0  0.6940647097147375  0.35729981651068937  0.9830037429595606  1.0000
  H   H32       1.0  0.1940668898983233  0.1426981212700937  0.016995229913099805  1.0000
  C   C1        1.0  0.3843398555913352  0.006535912129372398  0.6352736989275698  1.0000
  C   C2        1.0  0.8843414873380339  0.4934659353392944  0.364723824118272  1.0000
  C   C3        1.0  0.6156638767250087  0.9934719475236944  0.3647262901659474  1.0000
  C   C4        1.0  0.1156649420524332  0.5065274322121309  0.6352739832843639  1.0000
  C   C5        1.0  0.5067987049790261  0.039765828343981  0.7209081083468404  1.0000
  C   C6        1.0  0.0068017895925152  0.46023754485637614  0.2790913042769319  1.0000
  C   C7        1.0  0.49320502734525457  0.9602420475132049  0.279089473094956  1.0000
  C   C8        1.0  0.9932073369215857  0.539757871396226  0.7209100249956039  1.0000
  C   C9        1.0  0.4686507247831031  0.15035885851699496  0.8053450141023505  1.0000
  C   C10       1.0  0.968653630927882  0.3496454054247238  0.19465348481342912  1.0000
  C   C11       1.0  0.5313516589650219  0.84964693623359  0.1946538607718864  1.0000
  C   C12       1.0  0.0313554955899775  0.6503510459783965  0.8053480002940105  1.0000
  C   C13       1.0  0.308813922412412  0.22476089816538553  0.8011655206198044  1.0000
  C   C14       1.0  0.8088202338674081  0.2752375127192436  0.198834066503025  1.0000
  C   C15       1.0  0.6911817184737501  0.7752396668048432  0.1988406005911969  1.0000
  C   C16       1.0  0.19118349843057558  0.7247631170843007  0.8011624240944285  1.0000
  C   C17       1.0  0.1915510551894286  0.1821147041695284  0.7135809182712832  1.0000
  C   C18       1.0  0.6915557973805592  0.3178863069809025  0.28642173643105195  1.0000
  C   C19       1.0  0.8084378428607832  0.8178827391309652  0.2864271430922543  1.0000
  C   C20       1.0  0.3084438892525512  0.6821205391186921  0.713574886628578  1.0000
  C   C21       1.0  0.24597642567755432  0.3362958390906242  0.8925222323336612  1.0000
  C   C22       1.0  0.7459810662914136  0.16370438006336485  0.10747776957315121  1.0000
  C   C23       1.0  0.7540246094838495  0.6637078529478869  0.10748114617532421  1.0000
  C   C24       1.0  0.2540240145800752  0.8362983254454049  0.8925182301424357  1.0000
  C   C25       1.0  0.3160837758273942  0.5371243961881476  0.0334905460437511  1.0000
  C   C26       1.0  0.8160839218546626  0.962875813882057  0.9665102010800908  1.0000
  C   C27       1.0  0.6839145622057783  0.462880320192518  0.9665145934035027  1.0000
  C   C28       1.0  0.183914416176016  0.03712170505731649  0.0334866245676508  1.0000
  C   C29       1.0  0.5323727557707372  0.4714188235329215  0.8845275133259917  1.0000
  C   C30       1.0  0.0323747009793607  0.028581545454223097  0.11547219237898791  1.0000
  C   C31       1.0  0.46763097653545316  0.5285869604177335  0.11547296664829083  1.0000
  C   C32       1.0  0.967629031288851  0.9714159410881674  0.8845294485677827  1.0000
  N   N1        1.0  0.089307974282157  0.1524128392268338  0.3862642534784442  1.0000
  N   N2        1.0  0.5892946404195455  0.3475733074454864  0.6137283618194544  1.0000
  N   N3        1.0  0.9106795752329476  0.847588771679781  0.6137404184729435  1.0000
  N   N4        1.0  0.41069695479215085  0.6524221519815254  0.3862665470628599  1.0000
  N   N5        1.0  0.32329378826417343  0.3182380562452351  0.4017079921802349  1.0000
  N   N6        1.0  0.8233129031179229  0.18177702066544296  0.5982876441253211  1.0000
  N   N7        1.0  0.6767072468503558  0.6817491003918262  0.598288880217396  1.0000
  N   N8        1.0  0.1766921777342247  0.8182297552275841  0.40171941208736683  1.0000
  N   N9        1.0  0.20695964318640137  0.23553768468055838  0.3977087258240175  1.0000
  N   N10       1.0  0.7069699733178254  0.2644551635438645  0.6022846314041175  1.0000
  N   N11       1.0  0.7930373462537972  0.764456696396216  0.6022924476235687  1.0000
  N   N12       1.0  0.2930256675917064  0.7355475041356242  0.3977169861732365  1.0000
  N   N13       1.0  0.22842465185989616  0.07605549389523958  0.6321563046362543  1.0000
  N   N14       1.0  0.7284256904106029  0.4239456872120255  0.3678438819098915  1.0000
  N   N15       1.0  0.7715682919010972  0.92394404672158  0.36784805564089845  1.0000
  N   N16       1.0  0.2715712990743881  0.5760559777279752  0.6321527645280014  1.0000
  N   N17       1.0  0.3584226471789407  0.4427579232085748  0.9312225851531011  1.0000
  N   N18       1.0  0.8584253147944949  0.05724172428269008  0.068777878953064  1.0000
  N   N19       1.0  0.641579736542056  0.557244733682232  0.0687806375198718  1.0000
  N   N20       1.0  0.1415784174918002  0.9427578541662244  0.9312208634612134  1.0000
  O   O1        1.0  0.092597395550591  0.32438406092336436  0.9318340765703185  1.0000
  O   O2        1.0  0.5926010425092796  0.17561239699251976  0.0681681171706998  1.0000
  O   O3        1.0  0.9074036395867466  0.6756144445598122  0.06817012786529379  1.0000
  O   O4        1.0  0.40739999263640675  0.8243840705978441  0.9318309602916487  1.0000
