data_image0
_chemical_formula_structural       Co2H24C8Cl4O8
_chemical_formula_sum              "Co2 H24 C8 Cl4 O8"
_cell_length_a       6.829742951489959
_cell_length_b       7.939453142759071
_cell_length_c       9.09815458030272
_cell_angle_alpha    90.0831880010745
_cell_angle_beta     89.93456324912103
_cell_angle_gamma    115.8678558681524

_space_group_name_H-M_alt    "P 1"
_space_group_IT_number       1

loop_
  _space_group_symop_operation_xyz
  'x, y, z'

loop_
  _atom_site_type_symbol
  _atom_site_label
  _atom_site_symmetry_multiplicity
  _atom_site_fract_x
  _atom_site_fract_y
  _atom_site_fract_z
  _atom_site_occupancy
  Co  Co1       1.0  0.9999965539186206  0.49999821715325504  0.5000007096794974  1.0000
  Co  Co2       1.0  0.5000023773966192  5.612985206007697e-07  3.0862235291998285e-06  1.0000
  H   H1        1.0  0.5028174327388868  0.5078925380105872  0.7147989450520456  1.0000
  H   H2        1.0  0.9933000739990873  0.9922186251110074  0.21497118289514106  1.0000
  H   H3        1.0  0.49716664120556686  0.4920971703607007  0.285200696661704  1.0000
  H   H4        1.0  0.0067268297471657  0.007792235246824898  0.7850240565125688  1.0000
  H   H5        1.0  0.8112438347028076  0.7586079343925219  0.39709081832143767  1.0000
  H   H6        1.0  0.6892478004034357  0.7429474047695589  0.894890266443781  1.0000
  H   H7        1.0  0.18873813240690399  0.24137757393506112  0.6029077224935121  1.0000
  H   H8        1.0  0.31077451092610175  0.2570718110109381  0.1051049805139712  1.0000
  H   H9        1.0  0.7163611410342199  0.1646434046270286  0.4074447144055142  1.0000
  H   H10       1.0  0.78302766692493  0.33532340629695767  0.9074577906691631  1.0000
  H   H11       1.0  0.28364833340351925  0.8353590004040395  0.5925626178327121  1.0000
  H   H12       1.0  0.216971472248467  0.6646817362708147  0.09254295333830949  1.0000
  H   H13       1.0  0.5743151815102578  0.31801877689387936  0.6849528676771541  1.0000
  H   H14       1.0  0.9244024438375789  0.1831927839756204  0.18382279711183708  1.0000
  H   H15       1.0  0.42566583082304993  0.6819765017591803  0.3150467790699594  1.0000
  H   H16       1.0  0.07561769319286059  0.8168250321847025  0.8161834411713683  1.0000
  H   H17       1.0  0.750606389336042  0.1462946684253623  0.5781495505739116  1.0000
  H   H18       1.0  0.7489158961536049  0.3543804337639429  0.07813719061823579  1.0000
  H   H19       1.0  0.2493857850258791  0.8536936907199502  0.4218610777958531  1.0000
  H   H20       1.0  0.2510746888892682  0.6456134947788426  0.9218613517432032  1.0000
  H   H21       1.0  0.6435371906812719  0.7677936506422752  0.5462554829102686  1.0000
  H   H22       1.0  0.8534306508892726  0.7319931186435011  0.0454596803979541  1.0000
  H   H23       1.0  0.3564519895338663  0.23219747836127871  0.45374305826861416  1.0000
  H   H24       1.0  0.14658362097741665  0.2680246576972251  0.9545300736789953  1.0000
  C   C1        1.0  0.6681830979301039  0.6765107032722921  0.46431970478559487  1.0000
  C   C2        1.0  0.8314132809049539  0.8240405817158347  0.9632007473177708  1.0000
  C   C3        1.0  0.3318082508881233  0.3234818356394911  0.5356832328173694  1.0000
  C   C4        1.0  0.16860634837438226  0.17596744736663789  0.0367900970757589  1.0000
  C   C5        1.0  0.5314513592449117  0.4207261692982128  0.631083444699641  1.0000
  C   C6        1.0  0.9671086741096885  0.07978455140975167  0.1307096704836113  1.0000
  C   C7        1.0  0.4685283726110754  0.5792607280749492  0.36892059366554253  1.0000
  C   C8        1.0  0.0328971021399623  0.9202192266493936  0.8692899704723089  1.0000
  Cl  Cl1       1.0  0.959919027123398  0.5341614655924403  0.2382914705475727  1.0000
  Cl  Cl2       1.0  0.5398540866836326  0.9664373245661151  0.7380933622154018  1.0000
  Cl  Cl3       1.0  0.04007366434735355  0.46583666372890764  0.7617092718376313  1.0000
  Cl  Cl4       1.0  0.46014887746940053  0.03356085882374059  0.2619128711252046  1.0000
  O   O1        1.0  0.7160811234147103  0.5396633665897425  0.5420188570190447  1.0000
  O   O2        1.0  0.7838749975519544  0.9617906257907475  0.0403479736421559  1.0000
  O   O3        1.0  0.28390231029108287  0.4603221511415896  0.45798298050373626  1.0000
  O   O4        1.0  0.21614609750974983  0.03821741416520299  0.9596483657091497  1.0000
  O   O5        1.0  0.8258184352119002  0.21350366052936917  0.4877680706184364  1.0000
  O   O6        1.0  0.6735258385645366  0.2869155952897628  0.9878904719086634  1.0000
  O   O7        1.0  0.1741771431432609  0.7864972498102459  0.5121942029084323  1.0000
  O   O8        1.0  0.32646218366740937  0.7130937067795952  0.0121476501250726  1.0000
