data_image0
_chemical_formula_structural       Zn4H32C76N8O24
_chemical_formula_sum              "Zn4 H32 C76 N8 O24"
_cell_length_a       5.62109753928879
_cell_length_b       18.95414526122499
_cell_length_c       25.463366288000262
_cell_angle_alpha    90.00000094262084
_cell_angle_beta     90.0000162684397
_cell_angle_gamma    95.41458177004185

_space_group_name_H-M_alt    "P 1"
_space_group_IT_number       1

loop_
  _space_group_symop_operation_xyz
  'x, y, z'

loop_
  _atom_site_type_symbol
  _atom_site_label
  _atom_site_symmetry_multiplicity
  _atom_site_fract_x
  _atom_site_fract_y
  _atom_site_fract_z
  _atom_site_occupancy
  Zn  Zn1       1.0  0.10269746483957223  0.5598939089255737  0.5330194764331961  1.0000
  Zn  Zn2       1.0  0.8973016345720454  0.9401053137164581  0.033019627076527086  1.0000
  Zn  Zn3       1.0  0.897302014645824  0.4401059521995449  0.46698070665333785  1.0000
  Zn  Zn4       1.0  0.10269767596454932  0.059894017454929796  0.9669805560100071  1.0000
  H   H1        1.0  0.46287783612960004  0.9168917339972182  0.10443043856291466  1.0000
  H   H2        1.0  0.537121694377575  0.5831085527782774  0.6044307081467364  1.0000
  H   H3        1.0  0.5371218123040933  0.08310865708160259  0.8955689590815222  1.0000
  H   H4        1.0  0.46287778510782834  0.41689130834684107  0.39556947493979766  1.0000
  H   H5        1.0  0.3726250052781521  0.848242080696394  0.1876849420549646  1.0000
  H   H6        1.0  0.6273760749672733  0.6517571510014617  0.6876852181153051  1.0000
  H   H7        1.0  0.6273744742069951  0.15175778042870997  0.8123148483105209  1.0000
  H   H8        1.0  0.3726271314288496  0.3482432398832387  0.312314572250301  1.0000
  H   H9        1.0  0.010228177505702343  0.7425681626537042  0.16010727234260702  1.0000
  H   H10       1.0  0.9897749836267877  0.7574321272225291  0.6601071796579914  1.0000
  H   H11       1.0  0.989773080960781  0.2574316983743401  0.8398929107439836  1.0000
  H   H12       1.0  0.010226443788504002  0.242568263759253  0.3398930034286065  1.0000
  H   H13       1.0  0.07498412576885019  0.8156539371454768  0.07799754994502447  1.0000
  H   H14       1.0  0.9250152012919345  0.6843458181120212  0.5779974523289437  1.0000
  H   H15       1.0  0.9250153537165533  0.18434592397964167  0.9220026331415097  1.0000
  H   H16       1.0  0.07498605717455578  0.3156540429160302  0.4220027307576472  1.0000
  H   H17       1.0  0.11285461690674481  0.599121203914919  0.25188068649615036  1.0000
  H   H18       1.0  0.8871467160688412  0.9008785615356912  0.7518809818126538  1.0000
  H   H19       1.0  0.8871468105082911  0.40087918706684883  0.748119103869399  1.0000
  H   H20       1.0  0.11285437344884741  0.09912076953862942  0.24811920127392978  1.0000
  H   H21       1.0  0.05267134085047332  0.5289335473383616  0.3354878544262048  1.0000
  H   H22       1.0  0.9473281533102451  0.9710656932033429  0.8354881543527735  1.0000
  H   H23       1.0  0.9473279696858656  0.471065783833012  0.6645119359392735  1.0000
  H   H24       1.0  0.052671326175151  0.02893416792177559  0.16451202873376042  1.0000
  H   H25       1.0  0.04686090596168675  0.7080677038659146  0.43624947382767215  1.0000
  H   H26       1.0  0.9531388886507486  0.791932072592445  0.9362493792587611  1.0000
  H   H27       1.0  0.9531385735237096  0.291932157259204  0.5637507092588618  1.0000
  H   H28       1.0  0.0468607597834563  0.2080683184864043  0.06375080382778008  1.0000
  H   H29       1.0  0.08678841980527342  0.7823292309817018  0.35432315139036047  1.0000
  H   H30       1.0  0.9132110989369837  0.717670010674638  0.8543230534322601  1.0000
  H   H31       1.0  0.9132130076100183  0.21767116000007997  0.6456770316962445  1.0000
  H   H32       1.0  0.08678821159935524  0.2823293204967429  0.14567673693321123  1.0000
  C   C1        1.0  0.5792074852001434  0.8777735914301842  0.11819295852675536  1.0000
  C   C2        1.0  0.4207938422494664  0.6222266960626968  0.6181932212863115  1.0000
  C   C3        1.0  0.4207921632338056  0.12222679964865081  0.8818068318387373  1.0000
  C   C4        1.0  0.5792091951981108  0.37777316486828744  0.38180696180033624  1.0000
  C   C5        1.0  0.5295213495018486  0.8396258609866222  0.16425481622798083  1.0000
  C   C6        1.0  0.47047809013256636  0.6603738993754645  0.6642546898360987  1.0000
  C   C7        1.0  0.4704781299832916  0.1603740001384821  0.8357449741375045  1.0000
  C   C8        1.0  0.5295215583013828  0.33962649170337755  0.33574510052939377  1.0000
  C   C9        1.0  0.687167054158529  0.7911335993324756  0.17987215895998782  1.0000
  C   C10       1.0  0.31283596382037626  0.7088661617596941  0.6798724159872476  1.0000
  C   C11       1.0  0.3128322563778099  0.20886573183889823  0.8201276314054834  1.0000
  C   C12       1.0  0.6871670736272009  0.29113369917128296  0.3201277670994001  1.0000
  C   C13       1.0  0.8845522277901949  0.7802750168020296  0.14877847577677974  1.0000
  C   C14       1.0  0.1154471916461616  0.7197247426441887  0.6487783278407445  1.0000
  C   C15       1.0  0.11544547271385851  0.21972484442014917  0.8512213145886488  1.0000
  C   C16       1.0  0.8845540668200729  0.28027511838385527  0.3512214625247977  1.0000
  C   C17       1.0  0.9216574497517982  0.8206333792255689  0.10351384143034888  1.0000
  C   C18       1.0  0.0783436895911436  0.6793663774448787  0.6035136906868457  1.0000
  C   C19       1.0  0.07834380871443611  0.17936648180247516  0.8964859489351935  1.0000
  C   C20       1.0  0.9216557898942598  0.3206334836802397  0.3964864923996883  1.0000
  C   C21       1.0  0.45001811074730813  0.7021450927147156  0.23148198078658302  1.0000
  C   C22       1.0  0.5499815855732777  0.7978552015794946  0.7314814682981277  1.0000
  C   C23       1.0  0.5499833166682393  0.2978552982670735  0.7685185950210706  1.0000
  C   C24       1.0  0.45001806286092716  0.20214518949934757  0.2685187147884206  1.0000
  C   C25       1.0  0.423039016488005  0.6611337934999354  0.28062984121015677  1.0000
  C   C26       1.0  0.5769605750265043  0.8388659737490584  0.78062972362337  1.0000
  C   C27       1.0  0.5769606319461998  0.33886659757890664  0.7193703418763914  1.0000
  C   C28       1.0  0.4230387355100903  0.16113335742232954  0.21937045946315678  1.0000
  C   C29       1.0  0.5874211545811506  0.6740622810302881  0.32264314459833787  1.0000
  C   C30       1.0  0.4125768817322922  0.8259380187557994  0.822643016553968  1.0000
  C   C31       1.0  0.4125786628018631  0.32593864000229184  0.6773570384882175  1.0000
  C   C32       1.0  0.5874225977531111  0.17406184236931915  0.17735716653256614  1.0000
  C   C33       1.0  0.781839211452713  0.7272223255472312  0.31757390766735927  1.0000
  C   C34       1.0  0.2181570392638079  0.7727779740359323  0.817573766802482  1.0000
  C   C35       1.0  0.2181606059302936  0.27277859548534167  0.6824262754191961  1.0000
  C   C36       1.0  0.7818406612405014  0.22722188718625344  0.18242641628399522  1.0000
  C   C37       1.0  0.8222120109574361  0.7676573541923161  0.2683871682759288  1.0000
  C   C38       1.0  0.17778773352804936  0.7323429422859106  0.7683870243979241  1.0000
  C   C39       1.0  0.17778585849567463  0.2323430369836004  0.7316130148105626  1.0000
  C   C40       1.0  0.8222099669762599  0.2676569189362751  0.23161315868856033  1.0000
  C   C41       1.0  0.23564448257211976  0.6083252611281507  0.2848060306907455  1.0000
  C   C42       1.0  0.7643549454441612  0.8916739764142677  0.7848063182010347  1.0000
  C   C43       1.0  0.7643567758943703  0.39167459989990044  0.7151941523958524  1.0000
  C   C44       1.0  0.2356445340414908  0.10832588471085809  0.21519425760655503  1.0000
  C   C45       1.0  0.2038296248539169  0.568891925387767  0.33119070564923436  1.0000
  C   C46       1.0  0.7961718116282624  0.9311078447562904  0.831190602903426  1.0000
  C   C47       1.0  0.7961716336123176  0.43110793564027006  0.668809084716308  1.0000
  C   C48       1.0  0.20382944683797186  0.06889201627174658  0.1688091874621164  1.0000
  C   C49       1.0  0.35722269180578803  0.5815019748368115  0.37367252490633956  1.0000
  C   C50       1.0  0.6427770211379737  0.9184977979183275  0.8736724123955208  1.0000
  C   C51       1.0  0.6427767876793595  0.41849788628829276  0.6263272654591387  1.0000
  C   C52       1.0  0.3572205104172781  0.08150153335011369  0.12632737796990054  1.0000
  C   C53       1.0  0.5588716177584203  0.6328904886747677  0.36991340562138914  1.0000
  C   C54       1.0  0.44112809027959093  0.8671092838579282  0.8699136725790945  1.0000
  C   C55       1.0  0.4411298096566155  0.3671099023070069  0.6300863847441602  1.0000
  C   C56       1.0  0.5588729992380906  0.1328900472163923  0.13008651050748904  1.0000
  C   C57       1.0  0.7351756470484787  0.6451516322611326  0.41006324798673416  1.0000
  C   C58       1.0  0.2648239444396907  0.8548476126938311  0.9100631110265665  1.0000
  C   C59       1.0  0.2648256114180114  0.3548482287669186  0.5899369350998567  1.0000
  C   C60       1.0  0.7351753660971597  0.14515171847757097  0.08993746478100917  1.0000
  C   C61       1.0  0.9156734986804409  0.7001159002234304  0.40482788962522404  1.0000
  C   C62       1.0  0.08432608597535562  0.7998833444217226  0.9048281334166073  1.0000
  C   C63       1.0  0.0843259808046994  0.2998839609016812  0.5951719007402615  1.0000
  C   C64       1.0  0.915673224561239  0.20011598674966538  0.09517204966991948  1.0000
  C   C65       1.0  0.9397492787095063  0.7410547530257786  0.35895885717466297  1.0000
  C   C66       1.0  0.06025024608273805  0.7589444889048947  0.8589587062472075  1.0000
  C   C67       1.0  0.060251979756983993  0.25894510800227266  0.6410413259119349  1.0000
  C   C68       1.0  0.9397492334026651  0.24105537222022377  0.14104147683932663  1.0000
  C   C69       1.0  0.27615022870003975  0.545069857238019  0.42388544315545557  1.0000
  C   C70       1.0  0.7238497187252547  0.9549304484423969  0.9238857288821262  1.0000
  C   C71       1.0  0.7238511987150034  0.45493053374374864  0.5761143472100938  1.0000
  C   C72       1.0  0.27614992970895  0.0450699426364523  0.07611445420441497  1.0000
  C   C73       1.0  0.76907534971658  0.5940486364389556  0.4541819244640734  1.0000
  C   C74       1.0  0.23092446829957688  0.9059511410806353  0.9541821787103043  1.0000
  C   C75       1.0  0.23092396081950275  0.40595069473241097  0.5458174731803493  1.0000
  C   C76       1.0  0.7690751801346282  0.09404924999821417  0.045818004376243886  1.0000
  N   N1        1.0  0.7737521748600997  0.8690318359579903  0.08883510231768098  1.0000
  N   N2        1.0  0.2262491142745446  0.6309684497975211  0.5888349602668226  1.0000
  N   N3        1.0  0.2262492525549362  0.13096855502377738  0.9111646880478684  1.0000
  N   N4        1.0  0.7737505341594044  0.36903194128132094  0.41116483009867  1.0000
  N   N5        1.0  0.650155923562977  0.7527779618541927  0.22826992187540895  1.0000
  N   N6        1.0  0.3498453785981113  0.7472218021991494  0.7282697889592665  1.0000
  N   N7        1.0  0.3498455038520589  0.24722242912757514  0.7717298684901405  1.0000
  N   N8        1.0  0.6501541008870292  0.252778058925955  0.2717300014062188  1.0000
  O   O1        1.0  0.2874800987248777  0.5831815257847595  0.4652326869929764  1.0000
  O   O2        1.0  0.7125197337133004  0.9168182523887864  0.9652325788334577  1.0000
  O   O3        1.0  0.7125193807605257  0.4168183353403591  0.5347674960935576  1.0000
  O   O4        1.0  0.28747957682303854  0.08318107878258728  0.03476721153202079  1.0000
  O   O5        1.0  0.181838253547987  0.4819187884344983  0.419887932232953  1.0000
  O   O6        1.0  0.8181613756020172  0.0180811784330928  0.9198878259344592  1.0000
  O   O7        1.0  0.8181631738670492  0.5180816025472764  0.5801118581325964  1.0000
  O   O8        1.0  0.18183632490203644  0.9819186827890787  0.08011196443096937  1.0000
  O   O9        1.0  0.7404083884725665  0.5285186916260612  0.44147268448470794  1.0000
  O   O10       1.0  0.25959124400780814  0.971480555187668  0.9414725485890113  1.0000
  O   O11       1.0  0.25959270104485904  0.4714806394482449  0.5585271058808272  1.0000
  O   O12       1.0  0.7404082354773392  0.0285193059374365  0.05852724177647418  1.0000
  O   O13       1.0  0.8499792174566638  0.6193881115033051  0.49725596487206736  1.0000
  O   O14       1.0  0.15002243575615642  0.8806116684682763  0.9972562137449182  1.0000
  O   O15       1.0  0.1500218720607691  0.38061121957100136  0.5027438254934607  1.0000
  O   O16       1.0  0.8499772126780486  0.11938872261057298  0.0027439693416297997  1.0000
  O   O17       1.0  0.3123993733021067  0.6927097207039735  0.19388443376841014  1.0000
  O   O18       1.0  0.6876001050019481  0.8072900414115621  0.6938847154604061  1.0000
  O   O19       1.0  0.6876001061832966  0.30729014042114494  0.8061157493181238  1.0000
  O   O20       1.0  0.31239937448345506  0.19270981971355639  0.30611546762612807  1.0000
  O   O21       1.0  0.992757556802303  0.812391230388819  0.2612730320279509  1.0000
  O   O22       1.0  0.007240399417234785  0.6876090657654572  0.761272484205264  1.0000
  O   O23       1.0  0.007240988445524004  0.18761128060199886  0.7387263656164716  1.0000
  O   O24       1.0  0.9927574700353716  0.31239132541043796  0.238726913439116  1.0000
