data_image0
_chemical_formula_structural       Sm2H42C40O28
_chemical_formula_sum              "Sm2 H42 C40 O28"
_cell_length_a       9.352199339694847
_cell_length_b       10.347476513425075
_cell_length_c       13.15206053162923
_cell_angle_alpha    100.45341034961666
_cell_angle_beta     96.931524139341
_cell_angle_gamma    113.21622722669093

_space_group_name_H-M_alt    "P 1"
_space_group_IT_number       1

loop_
  _space_group_symop_operation_xyz
  'x, y, z'

loop_
  _atom_site_type_symbol
  _atom_site_label
  _atom_site_symmetry_multiplicity
  _atom_site_fract_x
  _atom_site_fract_y
  _atom_site_fract_z
  _atom_site_occupancy
  Sm  Sm1       1.0  0.7105685221344231  0.9502985023536257  0.9795021743292908  1.0000
  Sm  Sm2       1.0  0.2894304017827167  0.0497013445557712  0.020498290279540796  1.0000
  H   H1        1.0  0.561850211910574  0.7840880753100875  0.5729969138810913  1.0000
  H   H2        1.0  0.4381512318538938  0.2159172011742072  0.4270075852705375  1.0000
  H   H3        1.0  0.4925465789752437  0.6292935859113697  0.6739847888824926  1.0000
  H   H4        1.0  0.5074550421601671  0.37070515594882636  0.3260165340849639  1.0000
  H   H5        1.0  0.500459722308605  0.4188171234316797  0.1638171724967563  1.0000
  H   H6        1.0  0.49953977425587925  0.5811816316079116  0.8361824329391183  1.0000
  H   H7        1.0  0.893435779870579  0.8581729226854266  0.8296319318567241  1.0000
  H   H8        1.0  0.10656315598934901  0.14182692475304046  0.1703677735602867  1.0000
  H   H9        1.0  0.7251744148725549  0.7198455096151902  0.8064003175583707  1.0000
  H   H10       1.0  0.27482508169192943  0.28015324542440107  0.19359928787750388  1.0000
  H   H11       1.0  0.4903194093687731  0.009009186886864  0.8166809233670806  1.0000
  H   H12       1.0  0.5096790010246719  0.9909895736843024  0.18331934168665498  1.0000
  H   H13       1.0  0.6236720428864543  0.9862452026237206  0.7574364867034262  1.0000
  H   H14       1.0  0.37632849266820767  0.013755725621393797  0.2425627586508341  1.0000
  H   H15       1.0  0.6650205040469929  0.9044378016119055  0.3585349543208665  1.0000
  H   H16       1.0  0.3349804500793497  0.09556638959228539  0.6414678268920184  1.0000
  H   H17       1.0  0.9639758089776935  0.24606098733174525  0.6333309751235704  1.0000
  H   H18       1.0  0.03602896436633069  0.7539420948788589  0.3666697272546173  1.0000
  H   H19       1.0  0.05971191376960407  0.2783615733673059  0.3233497401302401  1.0000
  H   H20       1.0  0.9402912718224671  0.721640428565699  0.6766506631188776  1.0000
  H   H21       1.0  0.2182369839012139  0.4519599718725473  0.6783285402724744  1.0000
  H   H22       1.0  0.7817634919395147  0.5480409537272594  0.3216745010408886  1.0000
  H   H23       1.0  0.06353257927821687  0.5020195710146638  0.6345238039974532  1.0000
  H   H24       1.0  0.9364669172862675  0.4979791840249277  0.3654758014384285  1.0000
  H   H25       1.0  0.25540701470826116  0.6937853148046287  0.5636727392095224  1.0000
  H   H26       1.0  0.7445929714943488  0.3062145255150668  0.4363285841651035  1.0000
  H   H27       1.0  0.30648500683975755  0.7229258048199512  0.703424745318749  1.0000
  H   H28       1.0  0.6935160535910967  0.2770740294391061  0.2965766776298437  1.0000
  H   H29       1.0  0.9404096584499229  0.3010419016093806  0.15340904133944377  1.0000
  H   H30       1.0  0.05958766636277338  0.6989590453467115  0.8465891461010955  1.0000
  H   H31       1.0  0.19318423084556707  0.7512822405004584  0.15039160249450123  1.0000
  H   H32       1.0  0.8068137012622572  0.2487132544663169  0.8496089226597121  1.0000
  H   H33       1.0  0.6858452381940481  0.5386979901405837  0.048072900937675876  1.0000
  H   H34       1.0  0.314158089530899  0.4612996564344839  0.9519238664716809  1.0000
  H   H35       1.0  0.3787112555546486  0.631099484652168  0.127135912469079  1.0000
  H   H36       1.0  0.6212871900768704  0.3688970966528444  0.8728648122402377  1.0000
  H   H37       1.0  0.38030550277783687  0.7353505780909158  0.25209158938956466  1.0000
  H   H38       1.0  0.6196929547964629  0.26464600374315234  0.7479083761279313  1.0000
  H   H39       1.0  0.4965071157223234  0.6133099320733563  0.350910175737944  1.0000
  H   H40       1.0  0.5034918434328902  0.38668773556987895  0.6490907485264756  1.0000
  H   H41       1.0  0.6108689087834875  0.6668124549554051  0.25423940635034364  1.0000
  H   H42       1.0  0.38912948966716954  0.3331863050866986  0.7457616178952123  1.0000
  C   C1        1.0  0.8051027758419593  0.0317092506597092  0.2107422579696845  1.0000
  C   C2        1.0  0.19489824935082098  0.9682927628655164  0.7892587053233199  1.0000
  C   C3        1.0  0.8572206311454169  0.08435447655826069  0.32818101345696254  1.0000
  C   C4        1.0  0.14277831665729918  0.9156453714092693  0.6718179327682279  1.0000
  C   C5        1.0  0.7679381948909807  0.007400943886281698  0.3932181522376794  1.0000
  C   C6        1.0  0.23206709197673792  0.9926032246625525  0.6067827496956113  1.0000
  C   C7        1.0  0.8101265432725172  0.0652027048774713  0.5025948332200159  1.0000
  C   C8        1.0  0.18987665426234202  0.9347992975845969  0.4974048108372813  1.0000
  C   C9        1.0  0.9380770080441253  0.20227094079469052  0.5480099867357922  1.0000
  C   C10       1.0  0.061929352461554205  0.7977310408401549  0.45199375200252223  1.0000
  C   C11       1.0  0.027305743904015908  0.27830630639009263  0.48221474946574017  1.0000
  C   C12       1.0  0.972698026278188  0.7216946042021776  0.5177840354186003  1.0000
  C   C13       1.0  0.9890735409668352  0.2168546626685881  0.3727678604527753  1.0000
  C   C14       1.0  0.010928582339772638  0.7831473458541254  0.6272316840305551  1.0000
  C   C15       1.0  0.714982805425372  0.9837902719861946  0.5724075878834967  1.0000
  C   C16       1.0  0.2850247277861371  0.016223675675789195  0.4276093355423924  1.0000
  C   C17       1.0  0.1758992585492648  0.49923791511157123  0.6192970737264432  1.0000
  C   C18       1.0  0.824102303462503  0.50076300495666  0.3807053079690732  1.0000
  C   C19       1.0  0.2966832569143492  0.6523511914069786  0.6267978422510296  1.0000
  C   C20       1.0  0.7033167173454659  0.3476486483836609  0.3732042403154168  1.0000
  C   C21       1.0  0.6424242984968132  0.2735442517546999  0.06945910036649386  1.0000
  C   C22       1.0  0.35757151022065864  0.7264556180981784  0.9305342327940453  1.0000
  C   C23       1.0  0.7962062619915358  0.40577421967598326  0.10008332416950337  1.0000
  C   C24       1.0  0.20379005965934036  0.594224555661775  0.8999129457771886  1.0000
  C   C25       1.0  0.9388778977694372  0.4017438532996565  0.1408956563308195  1.0000
  C   C26       1.0  0.06112206513788002  0.5982581668152703  0.8591044481963976  1.0000
  C   C27       1.0  0.08203718447079199  0.5276047028741002  0.16363440518104255  1.0000
  C   C28       1.0  0.9179580981899067  0.47239189925813463  0.8363622248472637  1.0000
  C   C29       1.0  0.08351283240556741  0.6540789868434944  0.139007473339241  1.0000
  C   C30       1.0  0.9164850650544737  0.34592086824279983  0.8609898549283416  1.0000
  C   C31       1.0  0.9395407021755348  0.6560971076050777  0.09751982764415601  1.0000
  C   C32       1.0  0.06045881827452595  0.34390164849264687  0.9024782594080777  1.0000
  C   C33       1.0  0.7957159582990984  0.534417273993789  0.08125294312359438  1.0000
  C   C34       1.0  0.20428569925496726  0.46558365030694654  0.9187433650373436  1.0000
  C   C35       1.0  0.9381397259364023  0.7859653386945737  0.06337902012428737  1.0000
  C   C36       1.0  0.061859913351241885  0.21403124184043068  0.9366142122407768  1.0000
  C   C37       1.0  0.36724317979648186  0.6279987090620907  0.2091508974947018  1.0000
  C   C38       1.0  0.6327542507304358  0.37199570009552463  0.790848668912588  1.0000
  C   C39       1.0  0.4941579384449142  0.593730310701808  0.2656576284433925  1.0000
  C   C40       1.0  0.5058420829957697  0.40626735035173317  0.7343441545868217  1.0000
  O   O1        1.0  0.9033882463696088  0.08404188263925501  0.1531163130340119  1.0000
  O   O2        1.0  0.09661283794682154  0.9159579526779354  0.8468835915309328  1.0000
  O   O3        1.0  0.6617420833150903  0.9395813706725706  0.1680901849063687  1.0000
  O   O4        1.0  0.3382584164112075  0.0604195559853622  0.8319113380233603  1.0000
  O   O5        1.0  0.626791987468387  0.8442692969626507  0.5260039447264973  1.0000
  O   O6        1.0  0.3732089666579554  0.15573489424154022  0.47399883648638763  1.0000
  O   O7        1.0  0.720757548457378  0.04491087229327209  0.6640529616355622  1.0000
  O   O8        1.0  0.27924748585710546  0.9550856789966673  0.335939250215695  1.0000
  O   O9        1.0  0.1499449789542098  0.4135562133013834  0.5142056905929309  1.0000
  O   O10       1.0  0.8500593161041863  0.5864436033048293  0.48579527188574195  1.0000
  O   O11       1.0  0.44949798052508066  0.6603315610394845  0.6142781702606044  1.0000
  O   O12       1.0  0.5505014688585418  0.33966937273720527  0.3857217347115096  1.0000
  O   O13       1.0  0.6363930838427551  0.14714928052585208  0.04059961444078649  1.0000
  O   O14       1.0  0.36359839154305706  0.8528484311290326  0.9593983352303894  1.0000
  O   O15       1.0  0.5143008887773989  0.2917000802843788  0.07003901400237567  1.0000
  O   O16       1.0  0.48569856119651417  0.7083030343456683  0.9299581537386885  1.0000
  O   O17       1.0  0.8041286866771173  0.7873476061055271  0.03730280279836507  1.0000
  O   O18       1.0  0.1958659636223032  0.2126500852511981  0.962698482362008  1.0000
  O   O19       1.0  0.07081191501105608  0.8851773395656791  0.06054194705373557  1.0000
  O   O20       1.0  0.9291795723175442  0.11482037261826859  0.9394552434256269  1.0000
  O   O21       1.0  0.21473489284070976  0.5159663207318842  0.20855126975267516  1.0000
  O   O22       1.0  0.7852614162770878  0.4840302732234606  0.7914484966168872  1.0000
  O   O23       1.0  0.46564826502663687  0.4446237851337571  0.2306175094848371  1.0000
  O   O24       1.0  0.5343517683568278  0.55537387644884  0.7693835143535566  1.0000
  O   O25       1.0  0.7773634750069008  0.8268121995344302  0.8251179226892092  1.0000
  O   O26       1.0  0.2226365470240665  0.1731876423724543  0.1748811231099481  1.0000
  O   O27       1.0  0.5716026732545031  0.9700454710734404  0.8187289912543817  1.0000
  O   O28       1.0  0.42839097388309716  0.02995004866495071  0.18127037641214375  1.0000
