data_image0
_chemical_formula_structural       Cd4H128C192N12O16
_chemical_formula_sum              "Cd4 H128 C192 N12 O16"
_cell_length_a       8.814373962375777
_cell_length_b       19.670631702009285
_cell_length_c       26.02864446633755
_cell_angle_alpha    89.99992276138032
_cell_angle_beta     96.79002841167747
_cell_angle_gamma    90.00008860580397

_space_group_name_H-M_alt    "P 1"
_space_group_IT_number       1

loop_
  _space_group_symop_operation_xyz
  'x, y, z'

loop_
  _atom_site_type_symbol
  _atom_site_label
  _atom_site_symmetry_multiplicity
  _atom_site_fract_x
  _atom_site_fract_y
  _atom_site_fract_z
  _atom_site_occupancy
  Cd  Cd1       1.0  0.27472935160662365  0.11950930211279598  0.47893494147800914  1.0000
  Cd  Cd2       1.0  0.7252726560073485  0.6195070270152242  0.021063478966880204  1.0000
  Cd  Cd3       1.0  0.7252696039329934  0.8804915904880201  0.5210634022728016  1.0000
  Cd  Cd4       1.0  0.2747411511536271  0.3804897986131903  0.9789358487528688  1.0000
  H   H1        1.0  0.386097493414603  0.978487298060564  0.5336167821363347  1.0000
  H   H2        1.0  0.6138895769065016  0.47848677995187205  0.966381412448918  1.0000
  H   H3        1.0  0.6138923207624103  0.021515119653322794  0.46638157663712587  1.0000
  H   H4        1.0  0.3860956659937713  0.5215120791556841  0.03361714591018479  1.0000
  H   H5        1.0  0.4722328306738461  0.93075467182841  0.6189363668574828  1.0000
  H   H6        1.0  0.5277563745580239  0.43075221283523024  0.8810619626273565  1.0000
  H   H7        1.0  0.527753557105264  0.06924469565226589  0.3810614693520193  1.0000
  H   H8        1.0  0.47223801323750786  0.5692456295323679  0.1189354282745398  1.0000
  H   H9        1.0  0.39986533018552717  0.12915704734543706  0.6846006511769788  1.0000
  H   H10       1.0  0.6001297862818404  0.6291536522797755  0.8153966878535072  1.0000
  H   H11       1.0  0.6001359103994234  0.8708428285119248  0.3153977848546461  1.0000
  H   H12       1.0  0.39987716338697515  0.3708452068341686  0.184603131313807  1.0000
  H   H13       1.0  0.3211845377321936  0.16957217200520344  0.5952415130389284  1.0000
  H   H14       1.0  0.6788084243389606  0.6695696887182119  0.9047545451915723  1.0000
  H   H15       1.0  0.6788121327636959  0.8304307540832382  0.40475673843061344  1.0000
  H   H16       1.0  0.32119166901018303  0.33042815364909456  0.0952453812798879  1.0000
  H   H17       1.0  0.4094156102758291  0.896630106808217  0.6943521671868353  1.0000
  H   H18       1.0  0.5905780565403306  0.3966273174253486  0.8056467614719763  1.0000
  H   H19       1.0  0.5905810555061138  0.10336976904635259  0.3056476208631764  1.0000
  H   H20       1.0  0.4094277541376742  0.6033720500613454  0.1943518591206015  1.0000
  H   H21       1.0  0.4720519030502787  0.8530417186274587  0.7830756528170184  1.0000
  H   H22       1.0  0.527946197939741  0.3530395525498378  0.7169231151756179  1.0000
  H   H23       1.0  0.5279561903232803  0.14695968234758539  0.2169238283445623  1.0000
  H   H24       1.0  0.47206075172507417  0.646956764703688  0.2830767039928332  1.0000
  H   H25       1.0  0.6413339649309151  0.050641471828590995  0.8334729184474554  1.0000
  H   H26       1.0  0.3586631860987596  0.5506391920151472  0.6665257354003273  1.0000
  H   H27       1.0  0.3586581354719129  0.9493619626305116  0.1665251484611403  1.0000
  H   H28       1.0  0.6413414844039594  0.44935610849522317  0.3334720707643299  1.0000
  H   H29       1.0  0.581192131090802  0.09384400646808898  0.7447422123218743  1.0000
  H   H30       1.0  0.41880401212018376  0.5938400848677643  0.7552567409575985  1.0000
  H   H31       1.0  0.4188011118330905  0.9061579028751223  0.2552559007275832  1.0000
  H   H32       1.0  0.581204089488793  0.40615775750510597  0.24474005119213874  1.0000
  H   H33       1.0  0.28372688928197226  0.9460177603693153  0.8540071817615028  1.0000
  H   H34       1.0  0.7162692167470653  0.44601788458663794  0.6459921792250825  1.0000
  H   H35       1.0  0.7162743465954264  0.053983132230833106  0.1459927908487728  1.0000
  H   H36       1.0  0.28373431124337856  0.553984533132528  0.354005580796219  1.0000
  H   H37       1.0  0.0869925914675562  0.8724887594225091  0.8858391807030513  1.0000
  H   H38       1.0  0.9130089911988932  0.37248856814851905  0.6141620132144894  1.0000
  H   H39       1.0  0.9130154877777628  0.12751213317633864  0.11416491019607379  1.0000
  H   H40       1.0  0.08699224467370932  0.6275092742191433  0.3858379593971506  1.0000
  H   H41       1.0  0.43733708300283786  0.7304176402112857  0.9454173117144933  1.0000
  H   H42       1.0  0.5626663413828581  0.23041477098661994  0.5545829488993306  1.0000
  H   H43       1.0  0.562673287175052  0.26958274401790305  0.0545849507413365  1.0000
  H   H44       1.0  0.43733489213597215  0.7695835797524352  0.4454177920016349  1.0000
  H   H45       1.0  0.6331254367741863  0.8039547751698561  0.913152930019244  1.0000
  H   H46       1.0  0.36687479251235544  0.30395069620305987  0.5868467423717263  1.0000
  H   H47       1.0  0.36687922667601214  0.19604764254760448  0.0868471810108957  1.0000
  H   H48       1.0  0.6331241594985997  0.6960522298850618  0.4131527538125042  1.0000
  H   H49       1.0  0.9925101714357965  0.8421717310352504  0.9577068467555634  1.0000
  H   H50       1.0  0.007495894211992001  0.34217307501869226  0.5422918697773298  1.0000
  H   H51       1.0  0.007497921939368303  0.15783068668395825  0.04229263440556961  1.0000
  H   H52       1.0  0.9925076267139374  0.6578288343263379  0.4577081951128577  1.0000
  H   H53       1.0  0.7998680656249492  0.7698414679754888  0.99503131671716  1.0000
  H   H54       1.0  0.2001320646126885  0.26984148668904595  0.5049656971168233  1.0000
  H   H55       1.0  0.2001320277361813  0.23016399997305106  0.004968609750896698  1.0000
  H   H56       1.0  0.7998680287436458  0.7301609310270009  0.4950342293525907  1.0000
  H   H57       1.0  0.037108648432429406  0.5932734355833843  0.9691373815725514  1.0000
  H   H58       1.0  0.9628886331605884  0.09327444414802238  0.5308623866438822  1.0000
  H   H59       1.0  0.9628857346627555  0.40672999887573963  0.030861545905949594  1.0000
  H   H60       1.0  0.0371114566638866  0.9067279735669943  0.469138692259861  1.0000
  H   H61       1.0  0.2386207529996653  0.65691053895857  0.9319744195891033  1.0000
  H   H62       1.0  0.7613812964920613  0.15691286694529782  0.5680262446582489  1.0000
  H   H63       1.0  0.7613827643912006  0.34308933689709414  0.0680267977363158  1.0000
  H   H64       1.0  0.238619935855084  0.8430890423979919  0.43197488038590137  1.0000
  H   H65       1.0  0.5682149754023911  0.9331315424626038  0.9669877839922236  1.0000
  H   H66       1.0  0.4317685282136523  0.4331250625659421  0.5330091602369791  1.0000
  H   H67       1.0  0.43178854317056203  0.06687138362590159  0.033013049187054805  1.0000
  H   H68       1.0  0.5682075839179959  0.566874304913604  0.46698595584224734  1.0000
  H   H69       1.0  0.7711147593262667  0.9684205854248585  0.0329535544561352  1.0000
  H   H70       1.0  0.2288677732234703  0.4684142076852567  0.4670460288084612  1.0000
  H   H71       1.0  0.2288899041287209  0.031584882525095295  0.9670465565726473  1.0000
  H   H72       1.0  0.7711014672829679  0.531583634671122  0.5329541884572251  1.0000
  H   H73       1.0  0.0653959447678432  0.0050076890160183985  0.9141952693368013  1.0000
  H   H74       1.0  0.9346033371911987  0.5050115437133368  0.5858069748359824  1.0000
  H   H75       1.0  0.93460986709065  0.9949937119593525  0.08580296711009078  1.0000
  H   H76       1.0  0.06538873613722981  0.49499392422620747  0.41419992740155454  1.0000
  H   H77       1.0  0.8647561913784472  0.9665007856243686  0.8487283711453912  1.0000
  H   H78       1.0  0.1352445421091986  0.46650304033343537  0.6512734609812298  1.0000
  H   H79       1.0  0.1352507571058794  0.03349349814048708  0.1512718321687387  1.0000
  H   H80       1.0  0.8647543992997769  0.5334958187749376  0.3487294925078004  1.0000
  H   H81       1.0  0.5441062001421102  0.33684662475425836  0.44496669673641526  1.0000
  H   H82       1.0  0.45590447577359333  0.8368430859669541  0.0550360782319075  1.0000
  H   H83       1.0  0.455903019270508  0.6631532511000912  0.5550382085928902  1.0000
  H   H84       1.0  0.5441001888474942  0.1631552647741897  0.9449636486552677  1.0000
  H   H85       1.0  0.7563215726983188  0.3993363346906235  0.4093186348774438  1.0000
  H   H86       1.0  0.24368815842013447  0.8993330938782972  0.0906836540114782  1.0000
  H   H87       1.0  0.24368079981691446  0.6006650662802497  0.5906833045966664  1.0000
  H   H88       1.0  0.7563187853598451  0.10066424011768048  0.9093180858803933  1.0000
  H   H89       1.0  0.9799998376916931  0.20798873803843068  0.38781356100077613  1.0000
  H   H90       1.0  0.0199967344204239  0.7079858124977888  0.11218493388888362  1.0000
  H   H91       1.0  0.020001395833531905  0.7920136796772821  0.6121871798983776  1.0000
  H   H92       1.0  0.9800033577490339  0.2920105047529232  0.8878153767280281  1.0000
  H   H93       1.0  0.7669249620191892  0.14731645926481457  0.4220426664434953  1.0000
  H   H94       1.0  0.23307369842164147  0.6473137421837618  0.0779578956219211  1.0000
  H   H95       1.0  0.2330774140279033  0.852684941707089  0.5779581205962856  1.0000
  H   H96       1.0  0.7669241075259947  0.3526841001821523  0.9220427068587327  1.0000
  H   H97       1.0  0.1915536972961647  0.31444663029827064  0.424578150513959  1.0000
  H   H98       1.0  0.8084443463000284  0.8144473660100642  0.0754222161865599  1.0000
  H   H99       1.0  0.8084441074789838  0.6855542622997887  0.575422836110107  1.0000
  H   H100      1.0  0.19155116871343844  0.18554996798134474  0.92458021473783  1.0000
  H   H101      1.0  0.38030672256660136  0.37922248868557057  0.3807317118610243  1.0000
  H   H102      1.0  0.6197006614257888  0.8792240323532639  0.11927011855939901  1.0000
  H   H103      1.0  0.6196956534788924  0.6207778955421686  0.6192690751792185  1.0000
  H   H104      1.0  0.3803028512559337  0.12077584350103618  0.880732635345133  1.0000
  H   H105      1.0  0.3003213949628503  0.44105786370487704  0.2990867118115546  1.0000
  H   H106      1.0  0.6996896134431553  0.9410583003271425  0.20091443353026514  1.0000
  H   H107      1.0  0.6996809834364157  0.5589420121514692  0.7009133069393626  1.0000
  H   H108      1.0  0.3003127626047402  0.058943609016843375  0.7990863535092886  1.0000
  H   H109      1.0  0.8357255380077788  0.37841592573323607  0.3067149240359939  1.0000
  H   H110      1.0  0.16428185521430547  0.8784134637149845  0.19328306565859074  1.0000
  H   H111      1.0  0.1642768403938817  0.6215854752393496  0.6932850947142343  1.0000
  H   H112      1.0  0.8357170932591984  0.12158590376752436  0.8067175829615536  1.0000
  H   H113      1.0  0.1600461432905362  0.5340950243555368  0.2605440836176172  1.0000
  H   H114      1.0  0.8399578724728585  0.03409049206936029  0.2394571943847268  1.0000
  H   H115      1.0  0.8399482339134182  0.46590535986937426  0.7394567645861302  1.0000
  H   H116      1.0  0.1600490771975558  0.9659093837887411  0.7605426247821329  1.0000
  H   H117      1.0  0.07118695491369921  0.5891105871729321  0.1762613080316271  1.0000
  H   H118      1.0  0.9288115189153318  0.08910444089870137  0.3237404584391115  1.0000
  H   H119      1.0  0.9288017132039883  0.4108892886791649  0.8237381570371127  1.0000
  H   H120      1.0  0.071201146904265  0.9108954349621993  0.6762584389943241  1.0000
  H   H121      1.0  0.775043584280887  0.4201996682981884  0.1343479422008542  1.0000
  H   H122      1.0  0.2249650781748258  0.9201954156780017  0.36565159290695703  1.0000
  H   H123      1.0  0.2249576504128328  0.579797157324961  0.8656524145560169  1.0000
  H   H124      1.0  0.7750338702930792  0.07980039319993179  0.6343490557147788  1.0000
  H   H125      1.0  0.8609743679691847  0.3645150865466461  0.2189231577082609  1.0000
  H   H126      1.0  0.13903640439405512  0.8645139755765068  0.2810765193968194  1.0000
  H   H127      1.0  0.139030291940351  0.6354817390768799  0.7810781057587022  1.0000
  H   H128      1.0  0.8609579716286149  0.1354838667876591  0.7189247129528339  1.0000
  C   C1        1.0  0.39170311382299877  0.010663241793302799  0.5678911631664647  1.0000
  C   C2        1.0  0.6082847712784273  0.5106626944197357  0.9321071572539026  1.0000
  C   C3        1.0  0.6082889877515215  0.9893366340615726  0.43210651959893914  1.0000
  C   C4        1.0  0.39170504171650583  0.48933667306131656  0.0678915856656985  1.0000
  C   C5        1.0  0.4384344492301295  0.9839802025354983  0.6165625216685555  1.0000
  C   C6        1.0  0.5615560671124343  0.48397776269017345  0.8834354222889473  1.0000
  C   C7        1.0  0.5615553661249706  0.016022723550818796  0.3834354529599011  1.0000
  C   C8        1.0  0.4384406033778562  0.5160216047936855  0.1165628291821861  1.0000
  C   C9        1.0  0.4443464460602726  0.0256987901235206  0.660489424373715  1.0000
  C   C10       1.0  0.5556471989458843  0.5256958296476169  0.8395091133240484  1.0000
  C   C11       1.0  0.5556479417360621  0.9742995606161526  0.3395079665279539  1.0000
  C   C12       1.0  0.4443540404585776  0.47430201272106826  0.1604897068532622  1.0000
  C   C13       1.0  0.40211725249839253  0.0941953121434054  0.6522331234761153  1.0000
  C   C14       1.0  0.597875468957838  0.5941923661547647  0.8477641544896103  1.0000
  C   C15       1.0  0.5978805581663879  0.9058076139447023  0.34776594242315895  1.0000
  C   C16       1.0  0.4021269141489796  0.40580649295878146  0.1522343276826561  1.0000
  C   C17       1.0  0.35696217948607517  0.11698108606619675  0.6024089448179453  1.0000
  C   C18       1.0  0.6430283285942763  0.6169801159280012  0.8975882205221238  1.0000
  C   C19       1.0  0.6430344921823021  0.8830187897900925  0.3975889225081843  1.0000
  C   C20       1.0  0.3569706222321969  0.38301823481103253  0.1024116598089293  1.0000
  C   C21       1.0  0.4891768951503155  0.9989730437757627  0.7127234705000588  1.0000
  C   C22       1.0  0.5108205258407069  0.4989681984992059  0.7872739686236017  1.0000
  C   C23       1.0  0.5108174879448697  0.0010303906833612998  0.287275456978449  1.0000
  C   C24       1.0  0.4891807182721024  0.5010291354987686  0.2127233149748307  1.0000
  C   C25       1.0  0.4619235302726424  0.93058020247814  0.7245102404384909  1.0000
  C   C26       1.0  0.5380793776286339  0.43057793893918  0.7754909477528713  1.0000
  C   C27       1.0  0.5380719906304634  0.0694191650033105  0.2754902697611215  1.0000
  C   C28       1.0  0.461927570859693  0.5694188866860798  0.22450925556012893  1.0000
  C   C29       1.0  0.49651673357515574  0.9058275332526831  0.7744046454801817  1.0000
  C   C30       1.0  0.5034826865567368  0.40582279292647155  0.7255906642206612  1.0000
  C   C31       1.0  0.5034810770912231  0.09417640957958887  0.2255944204186378  1.0000
  C   C32       1.0  0.4965208449567839  0.5941740327008204  0.2744059433688051  1.0000
  C   C33       1.0  0.5602138111632726  0.9487575083266504  0.8145744396208983  1.0000
  C   C34       1.0  0.4397857334068362  0.4487568625628241  0.6854242890508148  1.0000
  C   C35       1.0  0.43977942704827916  0.05124236752686067  0.18542521000856743  1.0000
  C   C36       1.0  0.5602177910437547  0.5512404714344894  0.3145746234070828  1.0000
  C   C37       1.0  0.592078102825937  0.016623255766873495  0.8029309758954996  1.0000
  C   C38       1.0  0.4079200907896238  0.5166184136902315  0.6970654495983196  1.0000
  C   C39       1.0  0.4079117137120392  0.9833832289243596  0.1970666145865962  1.0000
  C   C40       1.0  0.5920822982004239  0.48337841193670505  0.3029311118509668  1.0000
  C   C41       1.0  0.5564982553078721  0.040894496469178386  0.7528345968570989  1.0000
  C   C42       1.0  0.4435000052342631  0.5408926398754941  0.7471648801228739  1.0000
  C   C43       1.0  0.4434892761727909  0.9591053793842759  0.24716290134758623  1.0000
  C   C44       1.0  0.5565058054405441  0.4591046941228708  0.2528337404706136  1.0000
  C   C45       1.0  0.47052654061920407  0.87924770279983  0.8814898298507003  1.0000
  C   C46       1.0  0.529471639263143  0.3792446965811464  0.6185100671784626  1.0000
  C   C47       1.0  0.529482684683039  0.12075420654456784  0.11851315475382052  1.0000
  C   C48       1.0  0.4705284658636587  0.6207561960220856  0.38148601784386926  1.0000
  C   C49       1.0  0.31627506045401793  0.8982714481951102  0.8735788493182071  1.0000
  C   C50       1.0  0.6837208953948917  0.3982690429468148  0.6264205543000899  1.0000
  C   C51       1.0  0.6837318786232133  0.10172995277615367  0.1264244271509583  1.0000
  C   C52       1.0  0.3162803487235166  0.601731849655742  0.3735767292967509  1.0000
  C   C53       1.0  0.20650971055500383  0.8570571609142659  0.8917684535410116  1.0000
  C   C54       1.0  0.7934906798728819  0.35705638916289206  0.6082330921595798  1.0000
  C   C55       1.0  0.7934983675162287  0.14294576517256974  0.1082360215019733  1.0000
  C   C56       1.0  0.20650826978189943  0.6429455201803761  0.3917671723146583  1.0000
  C   C57       1.0  0.2478286159139813  0.7962451747997931  0.9181625909312673  1.0000
  C   C58       1.0  0.7521750178749117  0.2962434048043717  0.58183684261801  1.0000
  C   C59       1.0  0.7521806070368838  0.20375876803224457  0.08184116196190419  1.0000
  C   C60       1.0  0.24782393413284604  0.7037574877954212  0.41816265356713705  1.0000
  C   C61       1.0  0.40222414889924357  0.776820325234105  0.9245568349971692  1.0000
  C   C62       1.0  0.5977771340357733  0.2768179514606714  0.5754440601947124  1.0000
  C   C63       1.0  0.5977827854712316  0.22318260085202715  0.0754479780504198  1.0000
  C   C64       1.0  0.40221839393264963  0.7231824327669967  0.42455414513578665  1.0000
  C   C65       1.0  0.5127177223158483  0.8179832669546979  0.9066271550982209  1.0000
  C   C66       1.0  0.48728369008772904  0.3179802763880771  0.5933737033413564  1.0000
  C   C67       1.0  0.4872892132295235  0.18201813401553574  0.09337727380527382  1.0000
  C   C68       1.0  0.5127175552071677  0.6820201078427387  0.40662319611094233  1.0000
  C   C69       1.0  0.1318192762646078  0.7555611139790128  0.9402339441628058  1.0000
  C   C70       1.0  0.8681808043477589  0.25556098872414873  0.5597646190006458  1.0000
  C   C71       1.0  0.8681853871831889  0.2444397786222012  0.0597661668680161  1.0000
  C   C72       1.0  0.1318181464811161  0.7444388871311317  0.44023526132972535  1.0000
  C   C73       1.0  0.005525052433746701  0.7870562295914706  0.9585347596736825  1.0000
  C   C74       1.0  0.9944797020447852  0.2870572410975995  0.541462423350275  1.0000
  C   C75       1.0  0.9944750479855102  0.2129456797545472  0.0414628619273074  1.0000
  C   C76       1.0  0.0055238200592314  0.7129451766198541  0.4585372573949088  1.0000
  C   C77       1.0  0.8985794355674913  0.7475555004105696  0.9797397301321453  1.0000
  C   C78       1.0  0.10141833717499081  0.24755694867436517  0.5202579796085517  1.0000
  C   C79       1.0  0.10142294754572131  0.25244742567964085  0.020258752038302002  1.0000
  C   C80       1.0  0.898582898702415  0.7524439439257901  0.4797419930017242  1.0000
  C   C81       1.0  0.03028740791001641  0.6485736427441751  0.9660299997402079  1.0000
  C   C82       1.0  0.9697043361799303  0.14857566722766788  0.5339691042549788  1.0000
  C   C83       1.0  0.9697092649356521  0.35142623311245547  0.03396748344114541  1.0000
  C   C84       1.0  0.0302934721270773  0.8514252253714286  0.46603072993475786  1.0000
  C   C85       1.0  0.14317557854453614  0.6846101640848941  0.9448818314139161  1.0000
  C   C86       1.0  0.8568311375821267  0.18461207275596078  0.5551159195043667  1.0000
  C   C87       1.0  0.8568222332975282  0.3153927620035545  0.055116850340588996  1.0000
  C   C88       1.0  0.14317352586886764  0.8153908533335821  0.4448841915255457  1.0000
  C   C89       1.0  0.7010181331658246  0.9462334110014579  0.902746837024651  1.0000
  C   C90       1.0  0.29897683218941046  0.44622977487576765  0.5972520934861123  1.0000
  C   C91       1.0  0.29897967396229325  0.0537664648531262  0.09725338131031691  1.0000
  C   C92       1.0  0.7010186993052799  0.5537670507483552  0.4027449594116419  1.0000
  C   C93       1.0  0.6781178467448684  0.9482190575046014  0.9553649832643812  1.0000
  C   C94       1.0  0.3218702661801274  0.4482134975886679  0.5446348210675893  1.0000
  C   C95       1.0  0.3218902454530053  0.051783360214265876  0.044634882041521  1.0000
  C   C96       1.0  0.6781081180458911  0.551784344771569  0.45536461288521213  1.0000
  C   C97       1.0  0.7944556077786659  0.9685620816207955  0.9927833324183482  1.0000
  C   C98       1.0  0.20553142425464443  0.46855752471236645  0.5072171758991573  1.0000
  C   C99       1.0  0.2055444879314408  0.031439827723850976  0.007215825761740299  1.0000
  C   C100      1.0  0.7944481013175492  0.5314403176478847  0.49278268833860756  1.0000
  C   C101      1.0  0.9384603654473694  0.9892264512542678  0.9799809148476301  1.0000
  C   C102      1.0  0.06153244067390771  0.4892263472372632  0.5200209581528057  1.0000
  C   C103      1.0  0.06154887045045139  0.010775458093213796  0.020018612453903  1.0000
  C   C104      1.0  0.9384447869083987  0.5107760704672372  0.4799830393950871  1.0000
  C   C105      1.0  0.9580549949767345  0.9884669974235006  0.9269668674955156  1.0000
  C   C106      1.0  0.041940097337665315  0.48846881877595644  0.5730339460281826  1.0000
  C   C107      1.0  0.04194395467325051  0.011531861687274197  0.0730333969800867  1.0000
  C   C108      1.0  0.9580542763352257  0.5115320738200139  0.4269680546096666  1.0000
  C   C109      1.0  0.8436209757566645  0.966895747365967  0.889154764939974  1.0000
  C   C110      1.0  0.15637747509894948  0.4668950385749894  0.6108465904101905  1.0000
  C   C111      1.0  0.1563871164348143  0.0331026033762427  0.11084510036774732  1.0000
  C   C112      1.0  0.8436134686457777  0.533103820530904  0.3891560400975749  1.0000
  C   C113      1.0  0.5089457861737899  0.20143255065340768  0.4529280399161379  1.0000
  C   C114      1.0  0.4910587570933132  0.7014285420186751  0.04707270453288001  1.0000
  C   C115      1.0  0.4910554485263248  0.7985683419464065  0.5470723168389142  1.0000
  C   C116      1.0  0.5089470582906443  0.2985687919810615  0.9529243794815017  1.0000
  C   C117      1.0  0.6400577836306951  0.23838821287121448  0.434192061420461  1.0000
  C   C118      1.0  0.3599480207538406  0.7383861136028143  0.065807927882247  1.0000
  C   C119      1.0  0.35994687863741603  0.7616111546134119  0.5658084337558122  1.0000
  C   C120      1.0  0.6400566497520829  0.26161122039588475  0.9341898782815008  1.0000
  C   C121      1.0  0.6391115590488639  0.30951963690922907  0.4312777486804364  1.0000
  C   C122      1.0  0.36089217694940595  0.8095144828618072  0.0687243897018135  1.0000
  C   C123      1.0  0.3608930949830338  0.6904827808054889  0.5687254355079148  1.0000
  C   C124      1.0  0.6391067703396089  0.19048030927162068  0.9312766430651535  1.0000
  C   C125      1.0  0.7570046478911651  0.3439171674040934  0.4112322488529614  1.0000
  C   C126      1.0  0.2430026274042945  0.8439149462770669  0.08876884480215348  1.0000
  C   C127      1.0  0.2429977234467843  0.6560842335664389  0.5887700747659323  1.0000
  C   C128      1.0  0.7570020325052412  0.15608187934646617  0.9112324186648095  1.0000
  C   C129      1.0  0.8798558714727563  0.30790160467219596  0.39446977564892904  1.0000
  C   C130      1.0  0.12014558145435221  0.8078972351679494  0.10552996702862322  1.0000
  C   C131      1.0  0.12014421953140443  0.692102338159408  0.6055309191093556  1.0000
  C   C132      1.0  0.8798567922301644  0.19209908208244283  0.8944715883029843  1.0000
  C   C133      1.0  0.8843259597675656  0.23686524540381265  0.39965866501221115  1.0000
  C   C134      1.0  0.11567527208953979  0.7368644406681283  0.1003403727994439  1.0000
  C   C135      1.0  0.1156786989718839  0.7631361555681122  0.6003429825974891  1.0000
  C   C136      1.0  0.8843305315239505  0.26313441844442303  0.8996605526620199  1.0000
  C   C137      1.0  0.7647910814233826  0.20257447320738453  0.41888676603473846  1.0000
  C   C138      1.0  0.23520775634955984  0.7025702268579932  0.0811125942595865  1.0000
  C   C139      1.0  0.23521129344641886  0.7974269277641779  0.581114405149819  1.0000
  C   C140      1.0  0.7647946232197996  0.29742507364994697  0.9188870403485936  1.0000
  C   C141      1.0  0.9989392128619557  0.34408454286914747  0.3693372280527285  1.0000
  C   C142      1.0  0.0010612137076079998  0.8440836047580542  0.1306616678874022  1.0000
  C   C143      1.0  0.0010563103981198006  0.6559163497292316  0.6306625138566417  1.0000
  C   C144      1.0  0.9989377335910066  0.15591728784036718  0.8693393648768364  1.0000
  C   C145      1.0  0.15368190601036252  0.34339589654403097  0.3896919745091267  1.0000
  C   C146      1.0  0.846321940078944  0.8433960878555238  0.1103089811897959  1.0000
  C   C147      1.0  0.8463181861662862  0.656604996055428  0.6103083361057529  1.0000
  C   C148      1.0  0.153681572604377  0.1566048047429334  0.8896937727142813  1.0000
  C   C149      1.0  0.2601036871204768  0.3797049063951973  0.36483146485314677  1.0000
  C   C150      1.0  0.7398991341811225  0.8797059964842048  0.1351682598521435  1.0000
  C   C151      1.0  0.7398929810176399  0.6202959862042261  0.6351675549068574  1.0000
  C   C152      1.0  0.2601009591736129  0.12029540448767756  0.8648316666177321  1.0000
  C   C153      1.0  0.21527909389775604  0.4148980058838276  0.31903351489661697  1.0000
  C   C154      1.0  0.7847284058348692  0.9148985369175973  0.1809671312368266  1.0000
  C   C155      1.0  0.784720998276498  0.585101361599385  0.6809667957189376  1.0000
  C   C156      1.0  0.2152716875222609  0.08510438917053159  0.8190327952323601  1.0000
  C   C157      1.0  0.062086326136046914  0.41356603791664526  0.2967465624847279  1.0000
  C   C158      1.0  0.9379200292359613  0.913565110057213  0.2032532704088865  1.0000
  C   C159      1.0  0.937910337290525  0.5864333295651601  0.703253993855057  1.0000
  C   C160      1.0  0.06208120546335042  0.08643527417051897  0.796747086346393  1.0000
  C   C161      1.0  0.9554862954136285  0.37895126842713006  0.323010316114086  1.0000
  C   C162      1.0  0.044522238484589104  0.8789492609979915  0.17698887167683353  1.0000
  C   C163      1.0  0.044510369192629205  0.6210496241712703  0.6769898560802473  1.0000
  C   C164      1.0  0.955482424961609  0.12105061485905817  0.823011239354443  1.0000
  C   C165      1.0  0.014523634535329701  0.44588277146085886  0.2461893103261588  1.0000
  C   C166      1.0  0.985487387866101  0.9458812779501569  0.2538122148533475  1.0000
  C   C167      1.0  0.9854775954532329  0.5541165960213376  0.7538125830086813  1.0000
  C   C168      1.0  0.014512701952774895  0.05411758116028408  0.7461888640519803  1.0000
  C   C169      1.0  0.07573784863428301  0.5086677733120624  0.233004006804876  1.0000
  C   C170      1.0  0.9242706572460193  0.008662741853704897  0.2669974784612918  1.0000
  C   C171      1.0  0.9242576722704213  0.4913326109135524  0.7669965033942817  1.0000
  C   C172      1.0  0.07573171644409632  0.9913371340012629  0.733004076868724  1.0000
  C   C173      1.0  0.0271569640648153  0.5394868393343798  0.1858272530515279  1.0000
  C   C174      1.0  0.9728470651254922  0.039482265700861795  0.3141751725710549  1.0000
  C   C175      1.0  0.9728362694351843  0.4605115114015133  0.8141739331577256  1.0000
  C   C176      1.0  0.02715759361155531  0.9605176101548167  0.6858264750393274  1.0000
  C   C177      1.0  0.918294897597747  0.5077073154941729  0.1500559421913223  1.0000
  C   C178      1.0  0.0817136040832054  0.007701553199872498  0.3499459280774886  1.0000
  C   C179      1.0  0.0817006197710981  0.49229052687000047  0.8499457204432943  1.0000
  C   C180      1.0  0.9182910570036215  0.9922952724240014  0.650054951244698  1.0000
  C   C181      1.0  0.859748127104183  0.4443519218895132  0.1623439221343119  1.0000
  C   C182      1.0  0.14026174560308394  0.9443496940962245  0.3376583265617228  1.0000
  C   C183      1.0  0.1402496788410517  0.5556443953601542  0.8376566803470169  1.0000
  C   C184      1.0  0.8597349142884241  0.055647639896221776  0.6623433822133009  1.0000
  C   C185      1.0  0.9065591641858434  0.41407935495163867  0.2098479929215884  1.0000
  C   C186      1.0  0.0934551869295319  0.9140761627696603  0.2901533149303148  1.0000
  C   C187      1.0  0.09344206815410422  0.5859179790429108  0.7901531321246082  1.0000
  C   C188      1.0  0.9065437532981663  0.08592015447796089  0.7098500227046287  1.0000
  C   C189      1.0  0.8585293469872327  0.5425587869222213  0.10072975394258071  1.0000
  C   C190      1.0  0.141472402113628  0.04255704495896139  0.399274113234668  1.0000
  C   C191      1.0  0.14146959912210377  0.4574344800946192  0.8992716629698451  1.0000
  C   C192      1.0  0.8585311164553245  0.9574433392691328  0.6007267199457473  1.0000
  N   N1        1.0  0.5837648640745385  0.9232377009760098  0.8654033169000358  1.0000
  N   N2        1.0  0.4162323163547726  0.4232345877262417  0.6345949581331638  1.0000
  N   N3        1.0  0.4162398029075192  0.07676471674248117  0.1345956416957748  1.0000
  N   N4        1.0  0.5837632127901387  0.5767652881296923  0.36540286305278613  1.0000
  N   N5        1.0  0.35116899188943057  0.07623865756329447  0.5605888815903414  1.0000
  N   N6        1.0  0.6488213880431247  0.5762371084630044  0.9394083201271002  1.0000
  N   N7        1.0  0.6488276774307664  0.9237652852689631  0.4394097540235222  1.0000
  N   N8        1.0  0.3511718525206006  0.4237612422749492  0.0605905612134947  1.0000
  N   N9        1.0  0.9095954922672719  0.6793980560659134  0.9831828791358461  1.0000
  N   N10       1.0  0.09040206963031491  0.17939848610742357  0.516813739025757  1.0000
  N   N11       1.0  0.09040003688483722  0.32060639513876044  0.0168149420480574  1.0000
  N   N12       1.0  0.9095968823806403  0.820604439980698  0.4831857571584735  1.0000
  O   O1        1.0  0.39496542967988557  0.23456158353389606  0.465470339792617  1.0000
  O   O2        1.0  0.605032376783342  0.7345632682175631  0.034525488496008415  1.0000
  O   O3        1.0  0.6050278226527085  0.7654342253470714  0.5345247001013504  1.0000
  O   O4        1.0  0.39497000750955646  0.26544118298923536  0.9654726095289802  1.0000
  O   O5        1.0  0.5163811555437902  0.13625569137638388  0.4554885498677095  1.0000
  O   O6        1.0  0.48362888945865734  0.6362547323977237  0.044514404198288615  1.0000
  O   O7        1.0  0.48362350672351784  0.8637431677361601  0.5445119453087983  1.0000
  O   O8        1.0  0.5163792180423527  0.36374666858143445  0.9554804672259819  1.0000
  O   O9        1.0  0.7867358281296364  0.5086600362344313  0.0637629439142273  1.0000
  O   O10       1.0  0.213254382049719  0.0086572612470732  0.43624279699703555  1.0000
  O   O11       1.0  0.2132608282268151  0.491335264268656  0.9362399172960352  1.0000
  O   O12       1.0  0.7867457030624081  0.991343122978243  0.5637598184867159  1.0000
  O   O13       1.0  0.878411989298023  0.60704223588975  0.0984364647075395  1.0000
  O   O14       1.0  0.12158997085917635  0.10703793422322146  0.4015646558829857  1.0000
  O   O15       1.0  0.12159038909644689  0.39295458973410285  0.9015635540447348  1.0000
  O   O16       1.0  0.8784112626620554  0.8929619416320875  0.5984360850173047  1.0000
