data_image0
_chemical_formula_structural       Zn2H38C38S2N12O14
_chemical_formula_sum              "Zn2 H38 C38 S2 N12 O14"
_cell_length_a       10.702692325627218
_cell_length_b       17.001598304188843
_cell_length_c       17.499013938107222
_cell_angle_alpha    88.77641256290556
_cell_angle_beta     93.7988311788267
_cell_angle_gamma    89.78691878484081

_space_group_name_H-M_alt    "P 1"
_space_group_IT_number       1

loop_
  _space_group_symop_operation_xyz
  'x, y, z'

loop_
  _atom_site_type_symbol
  _atom_site_label
  _atom_site_symmetry_multiplicity
  _atom_site_fract_x
  _atom_site_fract_y
  _atom_site_fract_z
  _atom_site_occupancy
  Zn  Zn1       1.0  0.5424220628610003  0.4101577957448725  0.5032183751527552  1.0000
  Zn  Zn2       1.0  0.5369254670407743  0.5954048133911557  0.5137416305522393  1.0000
  H   H1        1.0  0.11803228776668111  0.3940044222732625  0.4876369317113359  1.0000
  H   H2        1.0  0.1414334515237883  0.6459394885146424  0.4942818972751439  1.0000
  H   H3        1.0  0.148317878531337  0.4455629485329026  0.4018033345629702  1.0000
  H   H4        1.0  0.11775376347688395  0.5996117018272002  0.4056275646584736  1.0000
  H   H5        1.0  0.9363672156463994  0.4809552040465591  0.37691210947946974  1.0000
  H   H6        1.0  0.903367342072599  0.621175698731456  0.41776044423290404  1.0000
  H   H7        1.0  0.9085098953596286  0.40145810553385525  0.4409318852697408  1.0000
  H   H8        1.0  0.9249794670871624  0.6404790944321592  0.5161955772839872  1.0000
  H   H9        1.0  0.14479739492305302  0.4615148155350822  0.61585247260561  1.0000
  H   H10       1.0  0.11627592088657221  0.5644488962363639  0.6145334151781653  1.0000
  H   H11       1.0  0.9322538424606323  0.4326822111708353  0.5858505549179822  1.0000
  H   H12       1.0  0.9042965267548412  0.5297311694452702  0.6151613234800734  1.0000
  H   H13       1.0  0.46570373056457026  0.376016781499068  0.8973627806967599  1.0000
  H   H14       1.0  0.35202943622213934  0.6157516581309183  0.8440716107913103  1.0000
  H   H15       1.0  0.6566330182672787  0.10638477767487592  0.5476928540942012  1.0000
  H   H16       1.0  0.6115958570764166  0.8853313787346053  0.5868145781033858  1.0000
  H   H17       1.0  0.649148344909101  0.40502641126067834  0.3116030656458832  1.0000
  H   H18       1.0  0.7252773501208551  0.4259425592569884  0.23127741600508497  1.0000
  H   H19       1.0  0.2730712103654867  0.5615113065209698  0.3364729197878731  1.0000
  H   H20       1.0  0.1717786071739695  0.5604609763784866  0.2589121708768899  1.0000
  H   H21       1.0  0.27166093561954346  0.09265437538095969  0.4041894448667803  1.0000
  H   H22       1.0  0.2500065341188815  0.18496264696526055  0.36689506607604727  1.0000
  H   H23       1.0  0.2856240991017955  0.9165789495566655  0.3927387596363089  1.0000
  H   H24       1.0  0.23268589486487198  0.8241409916103777  0.380128228469644  1.0000
  H   H25       1.0  0.23375084411894423  0.2846175885946494  0.4323229959522478  1.0000
  H   H26       1.0  0.3246994972826443  0.3649205662101309  0.45316329554474066  1.0000
  H   H27       1.0  0.3386483119514736  0.7293987612864969  0.3433524649397838  1.0000
  H   H28       1.0  0.4006152948579356  0.6460005268532428  0.38811104784231526  1.0000
  H   H29       1.0  0.8082580215140781  0.17961224150760563  0.6528160675046379  1.0000
  H   H30       1.0  0.481591456260432  0.6532146295959012  0.6930895800304311  1.0000
  H   H31       1.0  0.5441546196429954  0.2995335716128551  0.797558894632864  1.0000
  H   H32       1.0  0.5411648719876753  0.3348680760628397  0.7021998325424972  1.0000
  H   H33       1.0  0.32655833722206046  0.649914726975112  0.7153328636887222  1.0000
  H   H34       1.0  0.3718998284510492  0.597706495584319  0.641653580383199  1.0000
  H   H35       1.0  0.5826158290661354  0.4269958208481057  0.042695941753450484  1.0000
  H   H36       1.0  0.6448947487681309  0.3767848437720716  0.12150835789492477  1.0000
  H   H37       1.0  0.2036644683911392  0.6307681475780456  0.15303193193816605  1.0000
  H   H38       1.0  0.22724493460922454  0.5916906795071384  0.06728221968592857  1.0000
  C   C1        1.0  0.4796786274882052  0.49147335094797034  0.3557574231436647  1.0000
  C   C2        1.0  0.28978038163317177  0.5181954223975821  0.5121955302893326  1.0000
  C   C3        1.0  0.5132076611420687  0.4720489330089634  0.6481191905459623  1.0000
  C   C4        1.0  0.7615415220212826  0.5112442176027941  0.4889019949288026  1.0000
  C   C5        1.0  0.09811044336927922  0.4489023171435562  0.4545751287432367  1.0000
  C   C6        1.0  0.09443310035970852  0.5961225923485074  0.46593637685081984  1.0000
  C   C7        1.0  0.9560324765146647  0.4581864762297343  0.4359526227339002  1.0000
  C   C8        1.0  0.9507511073799294  0.5997152817491485  0.47187303947723075  1.0000
  C   C9        1.0  0.09616115174613782  0.5099515092183539  0.5832342038317079  1.0000
  C   C10       1.0  0.14742028335354013  0.5184841572053853  0.5026242551708434  1.0000
  C   C11       1.0  0.9033267686324539  0.5171627589772781  0.49170530605078255  1.0000
  C   C12       1.0  0.9538101785913683  0.49471664861111003  0.5744409731400139  1.0000
  C   C13       1.0  0.45295911517576576  0.42461885866791965  0.8558473733539242  1.0000
  C   C14       1.0  0.3881629317046063  0.559510734809912  0.8261454852977506  1.0000
  C   C15       1.0  0.47921516242212914  0.41256032964286493  0.7791788704032283  1.0000
  C   C16       1.0  0.41770790416604353  0.5484900298634159  0.751233708159745  1.0000
  C   C17       1.0  0.46755215037280357  0.4775409395927426  0.7260610822695526  1.0000
  C   C18       1.0  0.41123233172832846  0.4974045562927145  0.8804154788276006  1.0000
  C   C19       1.0  0.39930648207061387  0.507089170353396  0.9597992832788333  1.0000
  C   C20       1.0  0.4020372292804881  0.5096571828178468  0.0297932911711172  1.0000
  C   C21       1.0  0.5218756918458498  0.4626995551147033  0.14414445184168298  1.0000
  C   C22       1.0  0.333225439408274  0.5429133074053212  0.15693919092806397  1.0000
  C   C23       1.0  0.5405952038082233  0.456127356795804  0.22448797655964364  1.0000
  C   C24       1.0  0.35124578933551487  0.5362187012592514  0.23693925478365668  1.0000
  C   C25       1.0  0.45615169857944693  0.4941285347418968  0.270941683022876  1.0000
  C   C26       1.0  0.418526066309994  0.5062091155361941  0.11040131140156008  1.0000
  C   C27       1.0  0.38939339083236046  0.17356847065275363  0.4520010419711652  1.0000
  C   C28       1.0  0.3987166274998018  0.8321151047434016  0.44313297786854366  1.0000
  C   C29       1.0  0.4131685214272168  0.2560238553239955  0.46236194844740197  1.0000
  C   C30       1.0  0.42764201187631556  0.7496668211009594  0.44698374160537196  1.0000
  C   C31       1.0  0.6069452152331963  0.2274422888637702  0.5242744408459143  1.0000
  C   C32       1.0  0.5685441126826164  0.7684391346320253  0.5525527290329534  1.0000
  C   C33       1.0  0.5868898235528236  0.14765786552723625  0.5231948702609941  1.0000
  C   C34       1.0  0.5561817670463469  0.8488774306788259  0.5473036146019652  1.0000
  C   C35       1.0  0.4751655754149696  0.11902979239255271  0.4858799849508202  1.0000
  C   C36       1.0  0.46863243168222374  0.8824052180946751  0.4915068953224804  1.0000
  C   C37       1.0  0.4567474291058319  0.03697337689429501  0.4828251059392841  1.0000
  C   C38       1.0  0.45558466381346835  0.9650127286506202  0.4854224954264976  1.0000
  S   S1        1.0  0.757453623294474  0.2610277756697955  0.5619183522707516  1.0000
  S   S2        1.0  0.6668400427187607  0.7276483771292491  0.6314419488546503  1.0000
  N   N1        1.0  0.5224430704977792  0.2824220407251161  0.4955324528077084  1.0000
  N   N2        1.0  0.5078835340450355  0.7185479192854274  0.5028436002471608  1.0000
  N   N3        1.0  0.6429804294100662  0.4102671277523555  0.25333910745975163  1.0000
  N   N4        1.0  0.2607929100602392  0.5733786590681547  0.2792541201997452  1.0000
  N   N5        1.0  0.2788227435016282  0.1513168123231381  0.4135445508907764  1.0000
  N   N6        1.0  0.3094159961385047  0.8590919612076817  0.3874822537896775  1.0000
  N   N7        1.0  0.3216202541321779  0.30706877708797725  0.43616507071215677  1.0000
  N   N8        1.0  0.3700272113538149  0.7031828585647091  0.3936244615369516  1.0000
  N   N9        1.0  0.5165213951233482  0.34033332772843755  0.7571264496748282  1.0000
  N   N10       1.0  0.3966058790051649  0.6149610845158264  0.6974159348839349  1.0000
  N   N11       1.0  0.6097198573197249  0.4288056265739755  0.09944186626655949  1.0000
  N   N12       1.0  0.22594108425465012  0.5814561409413203  0.12470817970225306  1.0000
  O   O1        1.0  0.5254287440023405  0.4276543944504639  0.3869217726404485  1.0000
  O   O2        1.0  0.453593743423717  0.5519139636281737  0.39365141263768777  1.0000
  O   O3        1.0  0.34732200408608804  0.4548397535646699  0.4993850552791486  1.0000
  O   O4        1.0  0.3437735578876017  0.5818014499465463  0.534637516102286  1.0000
  O   O5        1.0  0.5132028813548289  0.404467073996841  0.6170192102800272  1.0000
  O   O6        1.0  0.550958433754815  0.5351309343028492  0.6174178318977042  1.0000
  O   O7        1.0  0.7189720057002732  0.44498696874282473  0.5100401663851244  1.0000
  O   O8        1.0  0.6958756997641089  0.5712830991296798  0.4673711618041806  1.0000
  O   O9        1.0  0.8303455274582846  0.2814950808581997  0.49871754980421185  1.0000
  O   O10       1.0  0.7431983669448955  0.3123705541612978  0.6251289716800625  1.0000
  O   O11       1.0  0.8197094337625047  0.1799500008056327  0.5977763042708588  1.0000
  O   O12       1.0  0.7173123585117978  0.6553099136311432  0.6023017088997376  1.0000
  O   O13       1.0  0.7556078739791446  0.7886201308455225  0.653086571774864  1.0000
  O   O14       1.0  0.5762565327119519  0.7133032845729234  0.69205790394156  1.0000
