data_image0
_chemical_formula_structural       Cd8H48C32O48
_chemical_formula_sum              "Cd8 H48 C32 O48"
_cell_length_a       8.699969396
_cell_length_b       11.626489674035131
_cell_length_c       14.285
_cell_angle_alpha    90.0
_cell_angle_beta     90.0
_cell_angle_gamma    102.61224911394652

_space_group_name_H-M_alt    "P 1"
_space_group_IT_number       1

loop_
  _space_group_symop_operation_xyz
  'x, y, z'

loop_
  _atom_site_type_symbol
  _atom_site_label
  _atom_site_symmetry_multiplicity
  _atom_site_fract_x
  _atom_site_fract_y
  _atom_site_fract_z
  _atom_site_occupancy
  Cd  Cd1       1.0  0.2610410761870057  0.627041716463026  0.2884011200560011  1.0000
  Cd  Cd2       1.0  0.7389587054667857  0.8729577970194881  0.788401120056001  1.0000
  Cd  Cd3       1.0  0.7389595676769218  0.37295795919198577  0.7115988799439992  1.0000
  Cd  Cd4       1.0  0.2610416812112177  0.1270409972632649  0.211598879943999  1.0000
  Cd  Cd5       1.0  0.6506605098652258  0.840963984055314  0.1185908295414748  1.0000
  Cd  Cd6       1.0  0.3493395289744896  0.6590364107994588  0.6185908295414748  1.0000
  Cd  Cd7       1.0  0.3493392417552883  0.1590365729719565  0.8814084704235229  1.0000
  Cd  Cd8       1.0  0.6506604798319486  0.3409650276000633  0.3814091704585252  1.0000
  H   H1        1.0  0.9635811605026275  0.8475028848371622  0.0456779838991963  1.0000
  H   H2        1.0  0.03642258381099589  0.6524983913898623  0.5456786839341987  1.0000
  H   H3        1.0  0.0364208899765472  0.1524976721901012  0.9543227161358061  1.0000
  H   H4        1.0  0.9635769106236013  0.3475012842651423  0.4543220161008038  1.0000
  H   H5        1.0  0.5512632484068973  0.6010729642543069  0.3819390969548452  1.0000
  H   H6        1.0  0.448736533246894  0.8989265492282073  0.8819390969548453  1.0000
  H   H7        1.0  0.44873713827110606  0.39892583002844617  0.6180609030451549  1.0000
  H   H8        1.0  0.5512632183736201  0.1010740077990562  0.1180602030101525  1.0000
  H   H9        1.0  0.0590107351989957  0.4282649497516288  0.2177864893244674  1.0000
  H   H10       1.0  0.9409884720164002  0.0717348880758735  0.7177864893244674  1.0000
  H   H11       1.0  0.940987609806271  0.5717347259033829  0.7822135106755326  1.0000
  H   H12       1.0  0.0590121718475274  0.9282647875791312  0.2822135106755326  1.0000
  H   H13       1.0  0.23254359231702892  0.4107441506355158  0.185302065103258  1.0000
  H   H14       1.0  0.7674570215136214  0.08925656856424519  0.685302065103258  1.0000
  H   H15       1.0  0.7674570515468986  0.589255525019496  0.8146979348967422  1.0000
  H   H16       1.0  0.23254273010689985  0.9107439884630181  0.314697934896742  1.0000
  H   H17       1.0  0.0795421066386055  0.6952052841496226  0.11547427371368713  1.0000
  H   H18       1.0  0.9204588244445161  0.8047942293328915  0.6154742737136873  1.0000
  H   H19       1.0  0.9204573877959916  0.3047943915053892  0.8845257262863129  1.0000
  H   H20       1.0  0.0795418194194113  0.1952054463221202  0.3845250262513105  1.0000
  H   H21       1.0  0.8469261142668926  0.8434159616769746  0.4389233461673073  1.0000
  H   H22       1.0  0.153075074002146  0.6565844331777981  0.9389233461673072  1.0000
  H   H23       1.0  0.1530747867829518  0.1565845953502887  0.5610766538326929  1.0000
  H   H24       1.0  0.846924420432444  0.3434152424772137  0.061076653832692805  1.0000
  H   H25       1.0  0.8194043469418871  0.0175181549993368  0.5256716835841786  1.0000
  H   H26       1.0  0.18059600970283898  0.4824816828281655  0.0256716835841786  1.0000
  H   H27       1.0  0.1805951474927099  0.9824815206556677  0.4743283164158215  1.0000
  H   H28       1.0  0.819405783590419  0.5175179928268392  0.9743283164158214  1.0000
  H   H29       1.0  0.9415243905782661  0.6130516946123237  0.3495470773538685  1.0000
  H   H30       1.0  0.05847513388960827  0.8869469374979316  0.8495470773538685  1.0000
  H   H31       1.0  0.05847625328566152  0.386947981042681  0.6504529226461315  1.0000
  H   H32       1.0  0.9415241033590647  0.1130518567848213  0.1504536226811339  1.0000
  H   H33       1.0  0.9347036657457082  0.6636530386866895  0.2504928246412348  1.0000
  H   H34       1.0  0.0652972653374135  0.8363464747958246  0.7504935246762372  1.0000
  H   H35       1.0  0.0652967209322952  0.33634575559606356  0.7495071753587653  1.0000
  H   H36       1.0  0.934703378526514  0.16365320085918  0.2495071753587652  1.0000
  H   H37       1.0  0.3329389305329116  0.8176966378172635  0.4222163108155428  1.0000
  H   H38       1.0  0.6670608511208798  0.6823028756652505  0.9222163108155429  1.0000
  H   H39       1.0  0.6670608210876026  0.1823039192100069  0.5777836891844572  1.0000
  H   H40       1.0  0.3329386433137103  0.3176967999897542  0.0777836891844572  1.0000
  H   H41       1.0  0.45761071197686226  0.8436160331795364  0.3342947147357336  1.0000
  H   H42       1.0  0.5423893268628461  0.6563843616752365  0.8342947147357337  1.0000
  H   H43       1.0  0.5423899318870653  0.1563836424754754  0.6657052852642664  1.0000
  H   H44       1.0  0.4576118313729154  0.3436170767242857  0.1657052852642664  1.0000
  H   H45       1.0  0.5941649642608766  0.6035875193062807  0.2736583829191446  1.0000
  H   H46       1.0  0.4058350745788388  0.8964128755484921  0.7736583829191446  1.0000
  H   H47       1.0  0.40583478735964457  0.3964130377209827  0.7263409170458531  1.0000
  H   H48       1.0  0.5941644198557584  0.10358680010651969  0.226340917045853  1.0000
  C   C1        1.0  0.3265206053280849  0.7837893656810379  0.0927637381869104  1.0000
  C   C2        1.0  0.6734800685691197  0.7162092664292175  0.5927623381169058  1.0000
  C   C3        1.0  0.6734788891065122  0.21621030997396667  0.9072362618130896  1.0000
  C   C4        1.0  0.3265194258654773  0.2837904092257943  0.4072362618130896  1.0000
  C   C5        1.0  0.15463439233046467  0.7741603737627614  0.08573468673433383  1.0000
  C   C6        1.0  0.8453679453679115  0.7258400210920115  0.5857346867343338  1.0000
  C   C7        1.0  0.8453662515334627  0.22583930189225038  0.9142646132306639  1.0000
  C   C8        1.0  0.1546320634385268  0.2741614173075106  0.4142646132306638  1.0000
  C   C9        1.0  0.09133457053356149  0.8588558408920264  0.0485201260063022  1.0000
  C   C10       1.0  0.9086675099788906  0.6411436725904878  0.5485208260413046  1.0000
  C   C11       1.0  0.9086660733303661  0.1411438347629783  0.9514798739936978  1.0000
  C   C12       1.0  0.0913319844557066  0.358856003064524  0.4514791739586955  1.0000
  C   C13       1.0  0.18193570586667815  0.9714335194020619  0.007301365068251201  1.0000
  C   C14       1.0  0.818066631831698  0.5285668754527109  0.5073013650682512  1.0000
  C   C15       1.0  0.8180651951831663  0.0285670376252014  0.9926993349667513  1.0000
  C   C16       1.0  0.1819342692181536  0.4714336815745597  0.4926993349667512  1.0000
  C   C17       1.0  0.7700374274001048  0.8916975339683686  0.3020665033251646  1.0000
  C   C18       1.0  0.22996261143961047  0.6083028608864041  0.8020665033251646  1.0000
  C   C19       1.0  0.2299623242204092  0.1083030230589017  0.6979334966748355  1.0000
  C   C20       1.0  0.770038032424317  0.3916968147686077  0.1979334966748354  1.0000
  C   C21       1.0  0.8061990917643271  0.9144281245013204  0.4032075603780214  1.0000
  C   C22       1.0  0.1937997976460579  0.5855722703534524  0.9032075603780215  1.0000
  C   C23       1.0  0.1937995104268566  0.08557243252595009  0.5967917395869762  1.0000
  C   C24       1.0  0.8061996967885392  0.41442740530155925  0.09679243962197863  1.0000
  C   C25       1.0  0.793507776906182  0.011404957018086699  0.4507826391319583  1.0000
  C   C26       1.0  0.2064925797385442  0.4885948808094227  0.9507826391319584  1.0000
  C   C27       1.0  0.2064917175284151  0.988594718636925  0.5492166608330393  1.0000
  C   C28       1.0  0.7935083213113003  0.5114056762178478  0.0492166608330393  1.0000
  C   C29       1.0  0.7456056510081694  0.1140072643124554  0.4069142457122865  1.0000
  C   C30       1.0  0.25439240677789604  0.3859925735150469  0.9069142457122865  1.0000
  C   C31       1.0  0.25439154456776686  0.8859924113425564  0.5930857542877135  1.0000
  C   C32       1.0  0.7456084942719485  0.6140079835122165  0.09308575428771353  1.0000
  O   O1        1.0  0.378698932680372  0.7220915448788857  0.15475183759188135  1.0000
  O   O2        1.0  0.6213019984027497  0.7779079686036283  0.6547518375918813  1.0000
  O   O3        1.0  0.621300818940142  0.2779090121483847  0.8452488624431211  1.0000
  O   O4        1.0  0.3786974960318473  0.2220917070513764  0.3452488624431211  1.0000
  O   O5        1.0  0.34386135562211  0.8166901106986656  0.352325516275812  1.0000
  O   O6        1.0  0.6561384260316885  0.6833094027838484  0.8523255162758119  1.0000
  O   O7        1.0  0.6561392882418176  0.18330956495634607  0.6476737836891857  1.0000
  O   O8        1.0  0.34386247501815603  0.316691154243415  0.1476744837241881  1.0000
  O   O9        1.0  0.5075310240544155  0.5815276530616416  0.3193174658732971  1.0000
  O   O10       1.0  0.4924676081700455  0.9184718604208726  0.8193174658732971  1.0000
  O   O11       1.0  0.4924684703801816  0.4184720225933631  0.680682534126703  1.0000
  O   O12       1.0  0.5075307368352142  0.0815278152341392  0.1806825341267029  1.0000
  O   O13       1.0  0.1671905906978068  0.4701142673043819  0.1964872243612206  1.0000
  O   O14       1.0  0.832808616517589  0.029885570523120495  0.6964879243962232  1.0000
  O   O15       1.0  0.8328089037367903  0.5298854083506228  0.803512075603777  1.0000
  O   O16       1.0  0.16719113510292516  0.970114986504143  0.3035127756387794  1.0000
  O   O17       1.0  0.4198813941284172  0.8540884983486876  0.0390451522576143  1.0000
  O   O18       1.0  0.5801206863840419  0.6459110151338265  0.5390451522576143  1.0000
  O   O19       1.0  0.5801181003061798  0.1459111773063171  0.9609541477073833  1.0000
  O   O20       1.0  0.4198802146658096  0.354089541893444  0.4609548477423857  1.0000
  O   O21       1.0  0.2262134099859097  0.0623791215575622  0.057021351067554314  1.0000
  O   O22       1.0  0.7737872038447406  0.43762159764219877  0.5570213510675543  1.0000
  O   O23       1.0  0.7737869766921008  0.9376196727251838  0.9429793489674481  1.0000
  O   O24       1.0  0.2262136972051039  0.5623789593850717  0.4429793489674482  1.0000
  O   O25       1.0  0.2005179806795852  0.9734642010844183  0.9182660133006665  1.0000
  O   O26       1.0  0.7994820581601303  0.5265361937703545  0.4182660133006664  1.0000
  O   O27       1.0  0.7994803643256815  0.0265354745705935  0.0817339866993336  1.0000
  O   O28       1.0  0.2005176934603838  0.473464363256916  0.5817339866993336  1.0000
  O   O29       1.0  0.8801714799837654  0.8882125880603695  0.2452859642982119  1.0000
  O   O30       1.0  0.11982740942661252  0.6117878067944034  0.7452859642982119  1.0000
  O   O31       1.0  0.1198282716367487  0.11178796896689389  0.7547133356667857  1.0000
  O   O32       1.0  0.8801709355786542  0.3882118688606083  0.2547133356667857  1.0000
  O   O33       1.0  0.625490830364626  0.8692207786457117  0.2764242212110588  1.0000
  O   O34       1.0  0.374508059045759  0.6307796162090611  0.7764249212460614  1.0000
  O   O35       1.0  0.37450777182655764  0.13077977838155158  0.7235750787539388  1.0000
  O   O36       1.0  0.6254914353888381  0.3692200594459507  0.2235750787539388  1.0000
  O   O37       1.0  0.7487926475980514  0.1286829937798544  0.3190962548127416  1.0000
  O   O38       1.0  0.2512045179446005  0.3713177254199067  0.8190962548127416  1.0000
  O   O39       1.0  0.25120365573447156  0.8713175632474162  0.6809037451872586  1.0000
  O   O40       1.0  0.748796383105244  0.6286828316073567  0.1809037451872584  1.0000
  O   O41       1.0  0.7056231693769135  0.1891662836105326  0.463727686384317  1.0000
  O   O42       1.0  0.29437718726781975  0.3108335542169698  0.9637276863843172  1.0000
  O   O43       1.0  0.29437658224360763  0.8108342734167379  0.5362730136506855  1.0000
  O   O44       1.0  0.7056234565961077  0.6891661214380349  0.0362723136156831  1.0000
  O   O45       1.0  0.008431268895449812  0.6654880557277707  0.30327196359817793  1.0000
  O   O46       1.0  0.9915687699442656  0.8345123391270022  0.8032719635981778  1.0000
  O   O47       1.0  0.9915696321544015  0.3345125012994927  0.6967287364368246  1.0000
  O   O48       1.0  0.008431873919661798  0.1654873365280096  0.1967280364018222  1.0000
