data_image0
_chemical_formula_structural       Zn2H22C26I2N2O10
_chemical_formula_sum              "Zn2 H22 C26 I2 N2 O10"
_cell_length_a       9.679219943998152
_cell_length_b       11.081420254109796
_cell_length_c       11.219989842042395
_cell_angle_alpha    93.1849143758318
_cell_angle_beta     74.77135557412115
_cell_angle_gamma    89.44331133817273

_space_group_name_H-M_alt    "P 1"
_space_group_IT_number       1

loop_
  _space_group_symop_operation_xyz
  'x, y, z'

loop_
  _atom_site_type_symbol
  _atom_site_label
  _atom_site_symmetry_multiplicity
  _atom_site_fract_x
  _atom_site_fract_y
  _atom_site_fract_z
  _atom_site_occupancy
  Zn  Zn1       1.0  0.36812844825564633  0.5078473166466324  0.5036431878895727  1.0000
  Zn  Zn2       1.0  0.6577951829735795  0.5025035638871457  0.48603359409248276  1.0000
  H   H1        1.0  0.6221305218256816  0.5068940192371445  0.8734492012552338  1.0000
  H   H2        1.0  0.7059538425013158  0.12479520582836302  0.5561373489486102  1.0000
  H   H3        1.0  0.16789685854653408  0.8940301539444419  0.5316006802383484  1.0000
  H   H4        1.0  0.2618848538958929  0.0976048175220825  0.3564446464607087  1.0000
  H   H5        1.0  0.6736012623027889  0.741591957588355  0.6676624894573423  1.0000
  H   H6        1.0  0.6090350441240774  0.8761903757263027  0.7612037750579361  1.0000
  H   H7        1.0  0.8591730577810353  0.9262801081834624  0.7677659346262472  1.0000
  H   H8        1.0  0.8160706510131774  0.7792458236606306  0.8215829252707395  1.0000
  H   H9        1.0  0.9271522956777217  0.7962485181504912  0.6693582721465391  1.0000
  H   H10       1.0  0.14056603528251796  0.7284292283916257  0.4409556456450403  1.0000
  H   H11       1.0  0.2315465953949811  0.6892810317325483  0.2843648792565077  1.0000
  H   H12       1.0  0.821493151578437  0.5781955140039229  0.673922946992292  1.0000
  H   H13       1.0  0.06884224423268388  0.8340407261256999  0.21498678845342312  1.0000
  H   H14       1.0  0.969568350934111  0.7209074103610574  0.305218004770559  1.0000
  H   H15       1.0  0.9729039804626255  0.8686849733803329  0.37303821439221  1.0000
  H   H16       1.0  0.0799883488665998  0.5809969655995244  0.680898560779795  1.0000
  H   H17       1.0  0.2374300448985593  0.43598876121112073  0.2137638325138127  1.0000
  H   H18       1.0  0.22047732471127554  0.2943723987873739  0.28471500646791986  1.0000
  H   H19       1.0  0.9788770915823904  0.4304931376249711  0.2079693001048  1.0000
  H   H20       1.0  0.9594464603177498  0.289824826295856  0.2808869212722628  1.0000
  H   H21       1.0  0.397224058274567  0.5637526629841004  0.12716628532423613  1.0000
  H   H22       1.0  0.7144997419244702  0.4798624694179665  0.06276271132731641  1.0000
  C   C1        1.0  0.5102256762245005  0.2713691689558999  0.49755990000311107  1.0000
  C   C2        1.0  0.9068148790923372  0.5407876264760104  0.5966058392490227  1.0000
  C   C3        1.0  0.04947439689800599  0.5423275235800135  0.6002935156676373  1.0000
  C   C4        1.0  0.5799632430535624  0.5059001264479902  0.25443118055737557  1.0000
  C   C5        1.0  0.11522188001951861  0.44724102425226414  0.4102593243424907  1.0000
  C   C6        1.0  0.1684858302633856  0.3826127294070218  0.2841413026546107  1.0000
  C   C7        1.0  0.005411095452963401  0.37998153370462956  0.2806832704077564  1.0000
  C   C8        1.0  0.5096476163452904  0.741037169126706  0.510713248612106  1.0000
  C   C9        1.0  0.4430710935490155  0.5251753273043747  0.738705640749238  1.0000
  C   C10       1.0  0.6069861498459233  0.5067351622126708  0.11814183825792668  1.0000
  C   C11       1.0  0.5014787828894214  0.5362003308356691  0.06556849108411456  1.0000
  C   C12       1.0  0.5050565258469389  0.1377872343052644  0.5082325140908353  1.0000
  C   C13       1.0  0.41164278706835933  0.544459686698609  0.8767965737031815  1.0000
  C   C14       1.0  0.5163142474822846  0.5301918988501197  0.9351551857283198  1.0000
  C   C15       1.0  0.39296320566572973  0.06701681816353758  0.4890711172682529  1.0000
  C   C16       1.0  0.7018671128722717  0.8338184455099764  0.6919142962590428  1.0000
  C   C17       1.0  0.8338072934521534  0.8342368039245045  0.7404934955576294  1.0000
  C   C18       1.0  0.17002897255601815  0.7620584136276778  0.3473183312593093  1.0000
  C   C19       1.0  0.03795038498852679  0.7993362786795402  0.3079104866112274  1.0000
  C   C20       1.0  0.6163660523365379  0.0748281611368142  0.5382095467327659  1.0000
  C   C21       1.0  0.6185771835340786  0.9486888432007773  0.5473704159006942  1.0000
  C   C22       1.0  0.509108927705526  0.8763025043337223  0.5198822355178834  1.0000
  C   C23       1.0  0.39697894811226325  0.9417883695310248  0.4947882545600208  1.0000
  C   C24       1.0  0.2571192516112077  0.9248212618850644  0.45756938476591813  1.0000
  C   C25       1.0  0.25722519802577176  0.06690248535414159  0.448383089439183  1.0000
  C   C26       1.0  0.9722342000224203  0.4458768678431965  0.4066405898583199  1.0000
  I   I1        1.0  0.06581700677244129  0.1615669442432619  0.5691199524343135  1.0000
  I   I2        1.0  0.1974018694520652  0.5879283388510926  0.97186227558705  1.0000
  N   N1        1.0  0.8657082585916102  0.4944329629874105  0.4968101494862367  1.0000
  N   N2        1.0  0.1578123585437652  0.49747562276401397  0.5041920064670151  1.0000
  O   O1        1.0  0.40246542786482553  0.3230962119069006  0.4751073408422286  1.0000
  O   O2        1.0  0.2688895055450756  0.8586856006928513  0.34460804286883473  1.0000
  O   O3        1.0  0.6219369580855768  0.32388173995877884  0.5116606922197349  1.0000
  O   O4        1.0  0.4520501169488327  0.5293504870501947  0.31909243216951216  1.0000
  O   O5        1.0  0.6864325909512773  0.4802642583559518  0.29676539870511215  1.0000
  O   O6        1.0  0.3875474437071205  0.6922328641729436  0.5355562680200023  1.0000
  O   O7        1.0  0.6306153360514274  0.6852741187540801  0.47625930894317753  1.0000
  O   O8        1.0  0.3399452682121122  0.4993485646158716  0.6924216063196199  1.0000
  O   O9        1.0  0.5736505408052323  0.5356125720147701  0.6796957172224865  1.0000
  O   O10       1.0  0.7329585235281613  0.9043879744363534  0.5834521303061635  1.0000
