data_image0
_chemical_formula_structural       Al4H40C56O24
_chemical_formula_sum              "Al4 H40 C56 O24"
_cell_length_a       6.673124606212375
_cell_length_b       19.256082681059084
_cell_length_c       20.138802847726453
_cell_angle_alpha    98.7222679068447
_cell_angle_beta     90.00185748754049
_cell_angle_gamma    90.00197991695272

_space_group_name_H-M_alt    "P 1"
_space_group_IT_number       1

loop_
  _space_group_symop_operation_xyz
  'x, y, z'

loop_
  _atom_site_type_symbol
  _atom_site_label
  _atom_site_symmetry_multiplicity
  _atom_site_fract_x
  _atom_site_fract_y
  _atom_site_fract_z
  _atom_site_occupancy
  Al  Al1       1.0  0.20334471811718663  0.2503308594883719  0.24984008685903084  1.0000
  Al  Al2       1.0  0.7870967137652299  0.7508009705930829  0.7513156436513808  1.0000
  Al  Al3       1.0  0.7033413585940738  0.24966295083878973  0.25016348043146047  1.0000
  Al  Al4       1.0  0.2870968505132226  0.7491970858633008  0.748688622329979  1.0000
  H   H1        1.0  0.17553803141762359  0.10115576432416863  0.532291868206485  1.0000
  H   H2        1.0  0.7100609703874383  0.9353772222763366  0.5045548330410696  1.0000
  H   H3        1.0  0.6754778766075376  0.39884104838594664  0.9677105771189217  1.0000
  H   H4        1.0  0.21004585653653857  0.5646252626983495  0.9954504701980649  1.0000
  H   H5        1.0  0.15807587383461197  0.18725160423772985  0.4532685282777464  1.0000
  H   H6        1.0  0.7200474762938215  0.8549828960715118  0.5901733543286126  1.0000
  H   H7        1.0  0.6580154614227354  0.31274427576670394  0.04673848385344569  1.0000
  H   H8        1.0  0.220066469546822  0.6450168678413063  0.9098270479880454  1.0000
  H   H9        1.0  0.7706017239443242  0.046359755475371855  0.32487560860067777  1.0000
  H   H10       1.0  0.337534085596765  0.9077859269058163  0.6298458674742733  1.0000
  H   H11       1.0  0.270598550736061  0.4536453880972784  0.17512884498376738  1.0000
  H   H12       1.0  0.8375507457067998  0.5922048584988813  0.870154504057943  1.0000
  H   H13       1.0  0.24381917592415897  0.06577423273023439  0.10393152337366729  1.0000
  H   H14       1.0  0.7542902393372373  0.9331992637012331  0.8976100060271007  1.0000
  H   H15       1.0  0.7438214814704905  0.43423157449078065  0.3960725903520552  1.0000
  H   H16       1.0  0.2542728995184973  0.5668086996887353  0.6023637365241326  1.0000
  H   H17       1.0  0.6402107792585382  0.13017003183329479  0.07068823507763257  1.0000
  H   H18       1.0  0.35685709174173047  0.8675157916306087  0.9310780271267517  1.0000
  H   H19       1.0  0.14023158793044388  0.36982008197021077  0.42930648325667414  1.0000
  H   H20       1.0  0.8568738052428487  0.6325055822885444  0.5689271873645295  1.0000
  H   H21       1.0  0.3888087743523414  0.9613955610336827  0.030423693807655597  1.0000
  H   H22       1.0  0.6103106013432013  0.037300177764954895  0.9701489688975968  1.0000
  H   H23       1.0  0.8888088319242442  0.5386225548110345  0.4695806857398068  1.0000
  H   H24       1.0  0.11030312548295738  0.4627038114041964  0.5298345850469699  1.0000
  H   H25       1.0  0.0434883036599985  0.8805532454887909  0.39951983081093084  1.0000
  H   H26       1.0  0.9896492405446581  0.9007839454150569  0.31702496154451143  1.0000
  H   H27       1.0  0.8313354125017014  0.8411027470434502  0.35362154027043846  1.0000
  H   H28       1.0  0.5515726377257408  0.9909169094260971  0.6246417765969311  1.0000
  H   H29       1.0  0.3815451752432679  0.06421961976680277  0.6353944917380544  1.0000
  H   H30       1.0  0.5916223029787205  0.06204528729742975  0.5788727225384064  1.0000
  H   H31       1.0  0.5435038045463827  0.6194469216656627  0.10049265377688946  1.0000
  H   H32       1.0  0.48965199573521556  0.5992092737451528  0.18298516084017535  1.0000
  H   H33       1.0  0.33135402292122507  0.6588958395958143  0.14638858537353625  1.0000
  H   H34       1.0  0.05155824123345809  0.5090855181298081  0.8753720507153345  1.0000
  H   H35       1.0  0.8815370678038051  0.43578059277583475  0.8646005464545963  1.0000
  H   H36       1.0  0.0915981470953682  0.437952456152601  0.9211321703132851  1.0000
  H   H37       1.0  0.45223561610636415  0.16723319747803336  0.2731176101748857  1.0000
  H   H38       1.0  0.5335012985922774  0.8424207990515954  0.768950826726595  1.0000
  H   H39       1.0  0.9522382577296541  0.33275505585704207  0.22688108269635873  1.0000
  H   H40       1.0  0.0334875892210036  0.657580753834253  0.7310321358717571  1.0000
  C   C1        1.0  0.45326394489999444  0.3426743342876647  0.3463191562631067  1.0000
  C   C2        1.0  0.5404457305416486  0.6598064578004281  0.6516105716274366  1.0000
  C   C3        1.0  0.953256946547448  0.1573212354245683  0.15368308324222107  1.0000
  C   C4        1.0  0.0404631735734071  0.8401969652949359  0.8483805190795405  1.0000
  C   C5        1.0  0.4543781976564176  0.32654215467038467  0.16507139562042988  1.0000
  C   C6        1.0  0.5357166949132974  0.6704190959536261  0.8326671427353389  1.0000
  C   C7        1.0  0.9544489600790913  0.17345886138878083  0.3349323788032023  1.0000
  C   C8        1.0  0.0356824214275591  0.8295762692507436  0.6673359189880513  1.0000
  C   C9        1.0  0.09076673923014772  0.08822615373583888  0.4859797649876967  1.0000
  C   C10       1.0  0.8478880200361091  0.9296572494951572  0.5320890556139304  1.0000
  C   C11       1.0  0.5907069986647144  0.4117717145160426  0.0140218742614522  1.0000
  C   C12       1.0  0.3478962605397626  0.57034659072535  0.9679109786283036  1.0000
  C   C13       1.0  0.07877716381747041  0.13734185654444528  0.4422649229480412  1.0000
  C   C14       1.0  0.8526010436315303  0.8846216187080241  0.579813367573962  1.0000
  C   C15       1.0  0.5787153047245043  0.3626555877815746  0.05774158396042139  1.0000
  C   C16       1.0  0.3526106049111419  0.6153840811154225  0.920188237961149  1.0000
  C   C17       1.0  0.9620539788654555  0.12296464754379596  0.38406207782682594  1.0000
  C   C18       1.0  0.0296940532578631  0.8771271231065181  0.6154123047871279  1.0000
  C   C19       1.0  0.46200891993738946  0.37703003479391123  0.11594378645532538  1.0000
  C   C20       1.0  0.5296822097546184  0.6228742354563862  0.8845896910372556  1.0000
  C   C21       1.0  0.8621433709026646  0.058743536070927874  0.36996812863003464  1.0000
  C   C22       1.0  0.19992294031843022  0.9153475605990803  0.602755679071059  1.0000
  C   C23       1.0  0.36211807406138513  0.4412578519844528  0.13003848713940155  1.0000
  C   C24       1.0  0.6998965382959739  0.5846441071773113  0.8972509740512674  1.0000
  C   C25       1.0  0.8853598915820909  0.007847704289872578  0.4118310946434674  1.0000
  C   C26       1.0  0.19313007127703943  0.9620928831211298  0.5561479549364989  1.0000
  C   C27       1.0  0.38534156707636674  0.49215130461050177  0.08817179394705478  1.0000
  C   C28       1.0  0.6931155558816756  0.5378920140486441  0.9438590967415194  1.0000
  C   C29       1.0  0.9987646629252749  0.021684965693424395  0.47186179309493775  1.0000
  C   C30       1.0  0.015176070505312103  0.9703310388544747  0.5194683697462281  1.0000
  C   C31       1.0  0.49873459845031926  0.47831282112922213  0.028134503989825498  1.0000
  C   C32       1.0  0.5151763072608517  0.5296627646509432  0.9805329198093485  1.0000
  C   C33       1.0  0.9445042127239204  0.10257217249942126  0.09267623893380518  1.0000
  C   C34       1.0  0.052936798151947094  0.8956111363098099  0.9086102049127546  1.0000
  C   C35       1.0  0.44452112695240226  0.39742813564669177  0.40733042042592155  1.0000
  C   C36       1.0  0.5529094502443712  0.6044082038759909  0.5913820892312102  1.0000
  C   C37       1.0  0.251283766618009  0.955857068653152  0.0007565436575802988  1.0000
  C   C38       1.0  0.747687261990535  0.04293256691342855  0.9999087529082685  1.0000
  C   C39       1.0  0.7512737868957657  0.5441545924165182  0.4992370267090179  1.0000
  C   C40       1.0  0.24767182126755927  0.45706568301719824  0.5000740277087772  1.0000
  C   C41       1.0  0.23403861099574638  0.9037682097523854  0.9461913137886382  1.0000
  C   C42       1.0  0.7639148982440676  0.09453841204169318  0.054863443831095475  1.0000
  C   C43       1.0  0.7340202654672084  0.5962490717795602  0.5538037870335798  1.0000
  C   C44       1.0  0.2639138281022113  0.40545208335228  0.4451308442988093  1.0000
  C   C45       1.0  0.8929931463733497  0.9402651566152326  0.9265448373847814  1.0000
  C   C46       1.0  0.10574563066028732  0.05853071704272139  0.07459351255573667  1.0000
  C   C47       1.0  0.39297527340524857  0.5597514056772609  0.5734367217143442  1.0000
  C   C48       1.0  0.6057515241717439  0.4414722723016806  0.42540983753470835  1.0000
  C   C49       1.0  0.9082747739098097  0.9954892726098448  0.9813049867203245  1.0000
  C   C50       1.0  0.0911698147022548  0.0035598298146410977  0.019478975100994892  1.0000
  C   C51       1.0  0.4082745224570418  0.504521611755507  0.518682276892349  1.0000
  C   C52       1.0  0.5911805742558585  0.4964522204842936  0.4805136664947439  1.0000
  C   C53       1.0  0.9230689370543745  0.8887257284799969  0.36409369866262137  1.0000
  C   C54       1.0  0.4767624821032967  0.030400445030849665  0.5991751496645888  1.0000
  C   C55       1.0  0.42306679513354334  0.6112669698144939  0.13591155594435375  1.0000
  C   C56       1.0  0.9767537895738342  0.46959884664077106  0.9008266243491291  1.0000
  O   O1        1.0  0.6228432920873671  0.3045879056061834  0.18305191547439384  1.0000
  O   O2        1.0  0.36693204357735704  0.6884745254088852  0.8111671716313608  1.0000
  O   O3        1.0  0.1228867032697778  0.19542536690990883  0.31697276972444394  1.0000
  O   O4        1.0  0.866910868507084  0.8115098318819418  0.6888230129304345  1.0000
  O   O5        1.0  0.2839856813636672  0.32124222951199494  0.3223233928424562  1.0000
  O   O6        1.0  0.7074508134928479  0.682640116179648  0.6765785264147011  1.0000
  O   O7        1.0  0.7839441998964602  0.17876246700849657  0.17766716944952066  1.0000
  O   O8        1.0  0.20749201527354438  0.8173484908610501  0.8234312284226984  1.0000
  O   O9        1.0  0.2836458171473097  0.3102995638443388  0.18638394958013288  1.0000
  O   O10       1.0  0.7072344862877032  0.688439312702691  0.8130533748635214  1.0000
  O   O11       1.0  0.7836846432483782  0.18968213374010645  0.3135990184905352  1.0000
  O   O12       1.0  0.20722131509798203  0.8115641508265835  0.6869584229468513  1.0000
  O   O13       1.0  0.12471618919671099  0.17700659975498206  0.1774390972278326  1.0000
  O   O14       1.0  0.8677017505984209  0.8207001005628312  0.8256237771538008  1.0000
  O   O15       1.0  0.6247571780844083  0.322976352632537  0.3225775008371699  1.0000
  O   O16       1.0  0.36767567595772727  0.6793070194206192  0.674362457209014  1.0000
  O   O17       1.0  0.4529752228631807  0.20727876562590802  0.24913365653910796  1.0000
  O   O18       1.0  0.5364382246553346  0.7922576865215871  0.7540538247343348  1.0000
  O   O19       1.0  0.9529717244359122  0.29271287884655806  0.250870075913781  1.0000
  O   O20       1.0  0.03643846059711111  0.7077400804084346  0.7459512611191101  1.0000
  O   O21       1.0  0.7901848021490281  0.9441354032763271  0.392302416613127  1.0000
  O   O22       1.0  0.36000961545146043  0.9995007456851539  0.5425331396086646  1.0000
  O   O23       1.0  0.2901818787842387  0.5558732526543934  0.10770218780351827  1.0000
  O   O24       1.0  0.8599687280464964  0.5004901481338776  0.9574695271250773  1.0000
