data_image0
_chemical_formula_structural       Zn8H104C160N16O40
_chemical_formula_sum              "Zn8 H104 C160 N16 O40"
_cell_length_a       12.26195170717383
_cell_length_b       15.59997614890082
_cell_length_c       26.528890365133933
_cell_angle_alpha    90.00026101380938
_cell_angle_beta     90.00022283038096
_cell_angle_gamma    96.6112968424602

_space_group_name_H-M_alt    "P 1"
_space_group_IT_number       1

loop_
  _space_group_symop_operation_xyz
  'x, y, z'

loop_
  _atom_site_type_symbol
  _atom_site_label
  _atom_site_symmetry_multiplicity
  _atom_site_fract_x
  _atom_site_fract_y
  _atom_site_fract_z
  _atom_site_occupancy
  Zn  Zn1       1.0  0.7752687183113522  0.7793670260476517  0.757400930192723  1.0000
  Zn  Zn2       1.0  0.6181501060072633  0.5905448113380559  0.7369420846801942  1.0000
  Zn  Zn3       1.0  0.2247340913533122  0.7206312572524427  0.2574035669461451  1.0000
  Zn  Zn4       1.0  0.38185362404513506  0.9094552264465251  0.2369440029443551  1.0000
  Zn  Zn5       1.0  0.22473013977615616  0.2206332348823494  0.24259828160928976  1.0000
  Zn  Zn6       1.0  0.38184987022792427  0.4094573802568534  0.2630590118631274  1.0000
  Zn  Zn7       1.0  0.7752673121003825  0.27936963329211306  0.7425997912819607  1.0000
  Zn  Zn8       1.0  0.618149616807912  0.09054177660802051  0.7630570935949377  1.0000
  H   H1        1.0  0.42068858999755315  0.6723176490913121  0.6305572429002309  1.0000
  H   H2        1.0  0.31194752451826696  0.7358450967671146  0.5626448534040447  1.0000
  H   H3        1.0  0.459547911325977  0.9899542577028981  0.6027604613635373  1.0000
  H   H4        1.0  0.5754077935512  0.9258584985132644  0.6673628801420006  1.0000
  H   H5        1.0  0.18620179086160246  0.9424593224083537  0.47528591686496907  1.0000
  H   H6        1.0  0.2209531668142333  0.9350753849908244  0.38247391458061475  1.0000
  H   H7        1.0  0.5261848083446026  0.8344298071208132  0.41124344450505373  1.0000
  H   H8        1.0  0.49231516288203636  0.8406176009492228  0.5038583024142864  1.0000
  H   H9        1.0  0.8409953074804336  0.49823666055656457  0.6240795441198654  1.0000
  H   H10       1.0  0.9930422164034243  0.4801970763037176  0.5634284203788764  1.0000
  H   H11       1.0  0.17276732247091078  0.7144483838093764  0.6196075041346131  1.0000
  H   H12       1.0  0.020031621659413218  0.7318709903737357  0.6798741399359824  1.0000
  H   H13       1.0  0.3316255813878328  0.577737360571355  0.491966618076617  1.0000
  H   H14       1.0  0.33957421271985316  0.636304259512407  0.40399054014221736  1.0000
  H   H15       1.0  0.029848707956283232  0.7334662675874811  0.4261179663357736  1.0000
  H   H16       1.0  0.022014224551377012  0.6774229953620435  0.5144823037254864  1.0000
  H   H17       1.0  0.39092898275380616  0.5278891216802961  0.7674278055366839  1.0000
  H   H18       1.0  0.2658284951737855  0.38846159677811437  0.763702510347599  1.0000
  H   H19       1.0  0.5178066492537496  0.28125177652785993  0.6782146603689011  1.0000
  H   H20       1.0  0.6315362468613585  0.4238354554257313  0.6849574146283854  1.0000
  H   H21       1.0  0.3524820783344751  0.18803857561189827  0.6974647205689376  1.0000
  H   H22       1.0  0.0403305672942267  0.1790199203218066  0.6996194366773733  1.0000
  H   H23       1.0  0.8716400679009196  0.08593603416288431  0.6891710740293387  1.0000
  H   H24       1.0  0.7595543589066905  0.9435774926551306  0.701674342623775  1.0000
  H   H25       1.0  0.010095121713952396  0.845806544374959  0.7800507315838129  1.0000
  H   H26       1.0  0.1349498339403823  0.984550883617139  0.769651047362849  1.0000
  H   H27       1.0  0.5793001600929911  0.8276809162793198  0.13055590462965225  1.0000
  H   H28       1.0  0.688045154190192  0.7641509165343549  0.06264542515462777  1.0000
  H   H29       1.0  0.5404484140754207  0.5100420800977687  0.10276121665489765  1.0000
  H   H30       1.0  0.42458762792733745  0.5741390513327714  0.16736284496857215  1.0000
  H   H31       1.0  0.8137968204876171  0.5575318343147231  0.9752861468999823  1.0000
  H   H32       1.0  0.7790439349830577  0.5649162683665879  0.8824748557760668  1.0000
  H   H33       1.0  0.4738171452255173  0.6655704619007566  0.9112463680671038  1.0000
  H   H34       1.0  0.5076877414717343  0.6593791287058082  0.003858645454101899  1.0000
  H   H35       1.0  0.15900649974552286  0.0017638598472800007  0.12408336018869186  1.0000
  H   H36       1.0  0.006962971467615398  0.0198074179735102  0.06343012647251098  1.0000
  H   H37       1.0  0.8272373074659852  0.7855532143256739  0.11960649904661115  1.0000
  H   H38       1.0  0.9799706409136917  0.7681279159307549  0.17987373993035044  1.0000
  H   H39       1.0  0.6683736855194836  0.9222675014818548  0.9919660570191051  1.0000
  H   H40       1.0  0.6604249174528009  0.8636991944611055  0.9039909385095013  1.0000
  H   H41       1.0  0.9701492088818141  0.7665386779813516  0.9261179075760279  1.0000
  H   H42       1.0  0.9779827702574266  0.8225770941245545  0.014482423157524195  1.0000
  H   H43       1.0  0.6090677036575655  0.9721163933218905  0.2674299238629984  1.0000
  H   H44       1.0  0.7341679357527794  0.11154404478070032  0.2637050173933558  1.0000
  H   H45       1.0  0.48218896103617936  0.2187479612855938  0.17821473983552483  1.0000
  H   H46       1.0  0.36845698439343977  0.0761643561529226  0.18495841471134605  1.0000
  H   H47       1.0  0.6475130044234874  0.31196197849929763  0.1974664784654862  1.0000
  H   H48       1.0  0.9596696326461682  0.32097674392586845  0.19962027275500557  1.0000
  H   H49       1.0  0.1283598287798284  0.4140592495193758  0.18917141759902012  1.0000
  H   H50       1.0  0.24044373728842325  0.5564196916437326  0.20167355156374356  1.0000
  H   H51       1.0  0.9899063785103905  0.6541925897030366  0.2800485360285449  1.0000
  H   H52       1.0  0.8650493238202798  0.5154494672042488  0.269649008807903  1.0000
  H   H53       1.0  0.5793085374831007  0.3276819770102719  0.3694423458469131  1.0000
  H   H54       1.0  0.6880480746247599  0.2641551851011029  0.4373554892376885  1.0000
  H   H55       1.0  0.5404474855441919  0.0100447335670282  0.39723875043365797  1.0000
  H   H56       1.0  0.4245916770027519  0.07414046658673358  0.33263557776373875  1.0000
  H   H57       1.0  0.8138008431838059  0.0575338088610664  0.524714048825963  1.0000
  H   H58       1.0  0.7790446856078785  0.06491325536831032  0.6175260510999931  1.0000
  H   H59       1.0  0.47381690416170835  0.1655678516922521  0.5887565211911221  1.0000
  H   H60       1.0  0.5076922527994298  0.15938002124184444  0.49614430191975584  1.0000
  H   H61       1.0  0.1590041630753376  0.5017623045450605  0.3759192907334209  1.0000
  H   H62       1.0  0.006960507436197413  0.5198070354731996  0.4365707914317766  1.0000
  H   H63       1.0  0.8272323503631894  0.2855518718954002  0.3803935924058378  1.0000
  H   H64       1.0  0.9799691749757071  0.2681260283759528  0.3201258257585095  1.0000
  H   H65       1.0  0.6683728608363351  0.42227065439233513  0.508034101525588  1.0000
  H   H66       1.0  0.6604260669073128  0.36369986796452036  0.5960086716662614  1.0000
  H   H67       1.0  0.970151875075615  0.2665397957828262  0.5738819993706554  1.0000
  H   H68       1.0  0.977982290457362  0.3225779265646763  0.4855169080753041  1.0000
  H   H69       1.0  0.6090688526609043  0.4721150214966414  0.2325714062696135  1.0000
  H   H70       1.0  0.7341678118960003  0.6115432021589556  0.23629594756312133  1.0000
  H   H71       1.0  0.48218935441676797  0.7187510865207046  0.3217841744864953  1.0000
  H   H72       1.0  0.36845782393492493  0.5761654822009991  0.3150417971702239  1.0000
  H   H73       1.0  0.6475127060637789  0.8119617114831571  0.3025341142818973  1.0000
  H   H74       1.0  0.959667071537403  0.8209777646692942  0.3003831676479577  1.0000
  H   H75       1.0  0.12836093101070387  0.9140622751883355  0.3108307764047708  1.0000
  H   H76       1.0  0.24044664000129493  0.05642081669284239  0.29832675391525487  1.0000
  H   H77       1.0  0.9899109678936284  0.15419302417291897  0.21995187275165046  1.0000
  H   H78       1.0  0.8650477992269712  0.015451968984223196  0.2303523108644895  1.0000
  H   H79       1.0  0.4206943209096323  0.17231743493047702  0.8694440610609458  1.0000
  H   H80       1.0  0.3119506528917881  0.23584548832350546  0.937355671377176  1.0000
  H   H81       1.0  0.4595459657953355  0.4899556258169397  0.8972391259822811  1.0000
  H   H82       1.0  0.5754045100019879  0.42585996087861133  0.8326382515634234  1.0000
  H   H83       1.0  0.186202447809876  0.44246584020159924  0.024714572689092093  1.0000
  H   H84       1.0  0.2209577775305362  0.4350813904529716  0.11752661771027556  1.0000
  H   H85       1.0  0.5261853763649285  0.33443235929897247  0.08875661321705758  1.0000
  H   H86       1.0  0.49231580278604525  0.3406198102421172  0.9961432049831411  1.0000
  H   H87       1.0  0.8409979603870781  0.998235719167262  0.875919244145322  1.0000
  H   H88       1.0  0.9930436237993302  0.9801953770498032  0.9365705931300279  1.0000
  H   H89       1.0  0.1727652140989591  0.21444960685133194  0.8803912049719639  1.0000
  H   H90       1.0  0.0200247559582962  0.2318710753407913  0.8201258488143848  1.0000
  H   H91       1.0  0.3316291394556572  0.0777372555933908  0.008033531740053897  1.0000
  H   H92       1.0  0.33957434517312624  0.13630364765898412  0.09600902719142106  1.0000
  H   H93       1.0  0.0298481208662338  0.23346223871365618  0.07388168117302737  1.0000
  H   H94       1.0  0.022016290092004495  0.17742445739399668  0.9855156578037805  1.0000
  H   H95       1.0  0.39092962609776555  0.0278845233796119  0.7325711726762234  1.0000
  H   H96       1.0  0.2658292928725032  0.8884562266273334  0.7362968330399936  1.0000
  H   H97       1.0  0.5178108129316145  0.7812529397158984  0.8217863567058783  1.0000
  H   H98       1.0  0.6315396317544568  0.9238372110753802  0.8150419279330305  1.0000
  H   H99       1.0  0.3524857525467198  0.6880376371486036  0.8025361258634401  1.0000
  H   H100      1.0  0.04033727167885814  0.6790228193708218  0.8003781851582301  1.0000
  H   H101      1.0  0.8716440188717485  0.5859416253121879  0.810828925050927  1.0000
  H   H102      1.0  0.759556750281341  0.4435805588260918  0.7983271680298853  1.0000
  H   H103      1.0  0.0100904455618931  0.3458051005019271  0.719949544925569  1.0000
  H   H104      1.0  0.13495065806461073  0.4845475567674172  0.7303483182530709  1.0000
  C   C1        1.0  0.5724840738606217  0.7560955584370247  0.6913813702018384  1.0000
  C   C2        1.0  0.5047854142559841  0.7953432200743011  0.6529187656407697  1.0000
  C   C3        1.0  0.42937392787258927  0.741655845057693  0.6238744407564808  1.0000
  C   C4        1.0  0.36781877769199406  0.7767086780426169  0.5867760092495968  1.0000
  C   C5        1.0  0.3793735260248851  0.86607797063143  0.5800476259029279  1.0000
  C   C6        1.0  0.45229457092602143  0.9206100915055232  0.6090384231283676  1.0000
  C   C7        1.0  0.5161570941765419  0.8846684671655467  0.6449992278393635  1.0000
  C   C8        1.0  0.3371703667963573  0.8925850871353375  0.4945683603523815  1.0000
  C   C9        1.0  0.2601756647068072  0.9188107749793347  0.460616661188318  1.0000
  C   C10       1.0  0.2800175713172449  0.9146556254749214  0.4092289229365419  1.0000
  C   C11       1.0  0.376139075160978  0.8846191459081965  0.39102089510237176  1.0000
  C   C12       1.0  0.4513772499591938  0.8573434536642282  0.4255817385044195  1.0000
  C   C13       1.0  0.4327853149934882  0.8608775721841795  0.4772167546351794  1.0000
  C   C14       1.0  0.4021211764578823  0.8856773769220967  0.33630170699733936  1.0000
  C   C15       1.0  0.8310546477789982  0.6293762332426455  0.6913983955480487  1.0000
  C   C16       1.0  0.9210407090779282  0.6166271449377589  0.6553012089590806  1.0000
  C   C17       1.0  0.9135917231833233  0.5454476415788038  0.6227335930989708  1.0000
  C   C18       1.0  0.9980671779569689  0.5353687743987052  0.5888407943551284  1.0000
  C   C19       1.0  0.08992001990893073  0.5972050090021882  0.5878860058727751  1.0000
  C   C20       1.0  0.09947156708118852  0.6678800877864149  0.620476616748327  1.0000
  C   C21       1.0  0.014685156660355917  0.6773382586974179  0.6540501398122199  1.0000
  C   C22       1.0  0.1757094840662319  0.622716895068912  0.5077911728432054  1.0000
  C   C23       1.0  0.2661168210342312  0.6120728467988245  0.47703684390905454  1.0000
  C   C24       1.0  0.2699121208015002  0.6446582109948339  0.4282334928415778  1.0000
  C   C25       1.0  0.184061389852836  0.6874738446486147  0.40911017034523656  1.0000
  C   C26       1.0  0.0958458963566713  0.6995048760587323  0.4409056322215007  1.0000
  C   C27       1.0  0.09109618811585563  0.6679901636723076  0.49011797194866336  1.0000
  C   C28       1.0  0.1820170729643493  0.715790819143514  0.35538688898706267  1.0000
  C   C29       1.0  0.41380103678526575  0.471728883726179  0.7472987520783217  1.0000
  C   C30       1.0  0.3456329741437186  0.3947151931240995  0.7452317840698013  1.0000
  C   C31       1.0  0.38177826421227934  0.32364649937222384  0.7202619622316815  1.0000
  C   C32       1.0  0.4853624602265896  0.33485741177375417  0.697152170608852  1.0000
  C   C33       1.0  0.5492429022791682  0.41400831184795805  0.7010465793066484  1.0000
  C   C34       1.0  0.3177283627926499  0.23902230189115417  0.7184920223836141  1.0000
  C   C35       1.0  0.07716146614311009  0.13034004865807702  0.7218525244144158  1.0000
  C   C36       1.0  0.0136474654652829  0.04601797449192449  0.7276867482071123  1.0000
  C   C37       1.0  0.9069590410584495  0.03351549502071551  0.7080093658304062  1.0000
  C   C38       1.0  0.843588084984354  0.9549180204175299  0.715544218239401  1.0000
  C   C39       1.0  0.9844701658141373  0.9004294452474683  0.759339545080621  1.0000
  C   C40       1.0  0.052672033650544806  0.9770301750458686  0.7535764122809565  1.0000
  C   C41       1.0  0.4275182044897576  0.7438976340679558  0.19138481127437496  1.0000
  C   C42       1.0  0.4952079347338766  0.7046522799701691  0.15291845378493457  1.0000
  C   C43       1.0  0.5706132292859535  0.7583433185337184  0.12387365474376816  1.0000
  C   C44       1.0  0.6321718923074258  0.723288849337635  0.08677523998635187  1.0000
  C   C45       1.0  0.6206226809752947  0.6339188168866486  0.08004810389806485  1.0000
  C   C46       1.0  0.5477018151567066  0.5793863003549404  0.10903937749529287  1.0000
  C   C47       1.0  0.48383556579292997  0.6153282605085337  0.14499827894886144  1.0000
  C   C48       1.0  0.6628316898843278  0.6074062146979814  0.9945695833272904  1.0000
  C   C49       1.0  0.7398242320677183  0.5811789543726248  0.9606179523737806  1.0000
  C   C50       1.0  0.719977552811784  0.585332396958421  0.9092309434475961  1.0000
  C   C51       1.0  0.6238598398543046  0.6153732158742572  0.8910213154181856  1.0000
  C   C52       1.0  0.54862484785491  0.6426517712049814  0.9255820965902755  1.0000
  C   C53       1.0  0.5672204397249131  0.6391174310826315  0.9772178905984104  1.0000
  C   C54       1.0  0.5978809742735791  0.6143177192220436  0.8363005699308272  1.0000
  C   C55       1.0  0.16895077720663212  0.8706266283842723  0.19139982648498932  1.0000
  C   C56       1.0  0.07896640101525074  0.8833779765792685  0.15530251215331958  1.0000
  C   C57       1.0  0.08641181883725584  0.954552052823864  0.12273396979107784  1.0000
  C   C58       1.0  0.001941329431531428  0.9646331779457711  0.08884179995689577  1.0000
  C   C59       1.0  0.9100834886848614  0.9027963212173447  0.08788546439886598  1.0000
  C   C60       1.0  0.9005332735303142  0.8321228084318834  0.12047699933853548  1.0000
  C   C61       1.0  0.9853205198024426  0.8226629855012959  0.15405178046120932  1.0000
  C   C62       1.0  0.8242924299587315  0.8772889183041317  0.007791162435999897  1.0000
  C   C63       1.0  0.7338813857020129  0.887931246637102  0.9770374394803265  1.0000
  C   C64       1.0  0.730088058428592  0.8553454464963367  0.9282332402755668  1.0000
  C   C65       1.0  0.8159354467188464  0.8125303144003907  0.9091092035306542  1.0000
  C   C66       1.0  0.9041525736068009  0.8004976104168977  0.9409036610505336  1.0000
  C   C67       1.0  0.9089023473184666  0.8320153329916311  0.9901172247133442  1.0000
  C   C68       1.0  0.8179828066875244  0.7842147922541896  0.8553854729460891  1.0000
  C   C69       1.0  0.5861905494453552  0.028277938587336803  0.24730416197166952  1.0000
  C   C70       1.0  0.6543623623817395  0.10528964932257878  0.2452345076612444  1.0000
  C   C71       1.0  0.6182125550084123  0.1763568636338206  0.2202644344667205  1.0000
  C   C72       1.0  0.5146287480945729  0.1651444564099691  0.1971548032952412  1.0000
  C   C73       1.0  0.4507499731590627  0.0859935794036986  0.2010492616475829  1.0000
  C   C74       1.0  0.6822653948618793  0.2609790890439924  0.21849295216303935  1.0000
  C   C75       1.0  0.9228374203546466  0.36965746280192496  0.22185380174292385  1.0000
  C   C76       1.0  0.9863521910183549  0.45397893666770983  0.2276861043574242  1.0000
  C   C77       1.0  0.09303981275527212  0.46648254252042426  0.20800752477664725  1.0000
  C   C78       1.0  0.1564095327952231  0.5450805791346413  0.21554211468092885  1.0000
  C   C79       1.0  0.015529914953276621  0.5995669345364832  0.2593377110939058  1.0000
  C   C80       1.0  0.9473280925552671  0.5229668004169596  0.25357642671021796  1.0000
  C   C81       1.0  0.42752099871657373  0.24390272472804497  0.3086159568654096  1.0000
  C   C82       1.0  0.4952132415641231  0.2046557502622761  0.3470804461593246  1.0000
  C   C83       1.0  0.5706223848724079  0.2583437862788572  0.37612552493747825  1.0000
  C   C84       1.0  0.6321758044461488  0.22329031846551572  0.4132243333895003  1.0000
  C   C85       1.0  0.6206216685815348  0.13391973004831934  0.41995233978744284  1.0000
  C   C86       1.0  0.547701539544292  0.07938824923110842  0.3909600347735135  1.0000
  C   C87       1.0  0.4838393196966848  0.11533180946283751  0.3549996070129281  1.0000
  C   C88       1.0  0.6628304355103294  0.1074067640105838  0.5054323592302693  1.0000
  C   C89       1.0  0.7398241205895388  0.08117979080162739  0.5393829275490629  1.0000
  C   C90       1.0  0.7199786516262493  0.0853330253476372  0.5907702888475226  1.0000
  C   C91       1.0  0.623857350055367  0.11537079551265352  0.6089794475262306  1.0000
  C   C92       1.0  0.5486243614188879  0.14265355985698847  0.5744193580334238  1.0000
  C   C93       1.0  0.5672185383314742  0.1391181350452371  0.5227847188504737  1.0000
  C   C94       1.0  0.5978740351541204  0.11430482093823  0.6636986356197877  1.0000
  C   C95       1.0  0.16894685679017127  0.37062530258238985  0.3086011932055967  1.0000
  C   C96       1.0  0.07896578505532402  0.38337500478883874  0.34469951064249915  1.0000
  C   C97       1.0  0.08641100633332849  0.4545513025992136  0.37726750344246784  1.0000
  C   C98       1.0  0.0019384003014551083  0.46463273526127574  0.41115917134968766  1.0000
  C   C99       1.0  0.9100809733347789  0.4027984679560532  0.4121158445682622  1.0000
  C   C100      1.0  0.9005290216204499  0.3321208079784981  0.3795237258987213  1.0000
  C   C101      1.0  0.9853195057250659  0.32266261089755943  0.3459494489433722  1.0000
  C   C102      1.0  0.8242899808289151  0.3772872376462217  0.49220916980717505  1.0000
  C   C103      1.0  0.7338820313853559  0.3879325817381911  0.522962367899886  1.0000
  C   C104      1.0  0.7300911087138928  0.3553491272721275  0.5717672267640237  1.0000
  C   C105      1.0  0.8159365467010318  0.31253094382989843  0.5908901723046396  1.0000
  C   C106      1.0  0.904151736797928  0.3004979765312755  0.5590950873730518  1.0000
  C   C107      1.0  0.9089034790448592  0.33201525963462325  0.5098819937560888  1.0000
  C   C108      1.0  0.817987988291577  0.2842177992485731  0.6446134536743668  1.0000
  C   C109      1.0  0.5861929271948226  0.5282765761978752  0.25269744414592304  1.0000
  C   C110      1.0  0.6543623159120812  0.6052883204447781  0.2547647891005765  1.0000
  C   C111      1.0  0.6182145816274199  0.6763570298934098  0.27973385704142817  1.0000
  C   C112      1.0  0.5146303856204  0.6651461174983736  0.30284515645443105  1.0000
  C   C113      1.0  0.45075300025947485  0.5859939059055179  0.2989526324953288  1.0000
  C   C114      1.0  0.6822660113974308  0.7609805716192142  0.2815056816276992  1.0000
  C   C115      1.0  0.9228350488783832  0.8696608732800045  0.278149326019168  1.0000
  C   C116      1.0  0.9863551629213133  0.9539803243926245  0.27231510222845395  1.0000
  C   C117      1.0  0.09304226125244243  0.9664847502190171  0.2919921076590341  1.0000
  C   C118      1.0  0.1564129139290955  0.045080288935317014  0.2844580091422556  1.0000
  C   C119      1.0  0.015532159167726399  0.09956691774370799  0.24066155145699492  1.0000
  C   C120      1.0  0.9473288641201024  0.0229674890021556  0.2464239303620345  1.0000
  C   C121      1.0  0.5724818785488636  0.2561000352182674  0.8086166622105109  1.0000
  C   C122      1.0  0.504785731531264  0.29534607647296696  0.8470815119049316  1.0000
  C   C123      1.0  0.4293772791665873  0.24165570414271537  0.8761270648392379  1.0000
  C   C124      1.0  0.3678233023026323  0.2767088513453614  0.9132254795990914  1.0000
  C   C125      1.0  0.37937750319520086  0.36607949769467046  0.9199529926402403  1.0000
  C   C126      1.0  0.4522951100601985  0.42061203515646634  0.8909609651450264  1.0000
  C   C127      1.0  0.5161571845992085  0.3846694558696058  0.8550013097917809  1.0000
  C   C128      1.0  0.3371717532361131  0.3925920789499884  0.005431513213913798  1.0000
  C   C129      1.0  0.26017910991720333  0.41881869397701627  0.039382767218931684  1.0000
  C   C130      1.0  0.28002314269875933  0.41466397650267345  0.09077090698364287  1.0000
  C   C131      1.0  0.3761414624547683  0.38462702936384835  0.10897978112370764  1.0000
  C   C132      1.0  0.4513804270115358  0.3573478025729814  0.07441975384937648  1.0000
  C   C133      1.0  0.4327883974962106  0.3608840576553619  0.022784713742097996  1.0000
  C   C134      1.0  0.4021230699683684  0.3856896138018441  0.16369788799025284  1.0000
  C   C135      1.0  0.8310550089816429  0.1293710042572442  0.8085990083721908  1.0000
  C   C136      1.0  0.9210389749721414  0.11662224248404841  0.8446966996545054  1.0000
  C   C137      1.0  0.9135910118058063  0.0454475366443674  0.8772656189611535  1.0000
  C   C138      1.0  0.9980650635716728  0.03536832648736521  0.9111596735388116  1.0000
  C   C139      1.0  0.08992310657662017  0.0972064738011014  0.9121141243610535  1.0000
  C   C140      1.0  0.0994711809143354  0.16788193817182423  0.8795214585794464  1.0000
  C   C141      1.0  0.014680681367465807  0.17733661443523374  0.8459481852371052  1.0000
  C   C142      1.0  0.1757123222227222  0.12272293179997013  0.9922080493868674  1.0000
  C   C143      1.0  0.26612082679939414  0.1120748062616599  0.02296139538493239  1.0000
  C   C144      1.0  0.2699107996607282  0.14465481443528455  0.07176634847399298  1.0000
  C   C145      1.0  0.1840618830273826  0.18747060229299709  0.09089000827086116  1.0000
  C   C146      1.0  0.0958457731479427  0.1995045916398155  0.05909630464870468  1.0000
  C   C147      1.0  0.0910965051029393  0.16799009554701175  0.009882364043136197  1.0000
  C   C148      1.0  0.18201421965943615  0.21578418855069262  0.14461411580009545  1.0000
  C   C149      1.0  0.4138023975644743  0.9717262360074628  0.7526991962532248  1.0000
  C   C150      1.0  0.345634456039015  0.894713208504008  0.754766965827663  1.0000
  C   C151      1.0  0.3817833475411661  0.8236453541293898  0.7797370390205028  1.0000
  C   C152      1.0  0.48536522158440926  0.8348558359346541  0.8028478010302817  1.0000
  C   C153      1.0  0.5492441987891327  0.914008003535969  0.7989537196274056  1.0000
  C   C154      1.0  0.31773407569936307  0.7390198760624999  0.7815070135328737  1.0000
  C   C155      1.0  0.07716673635682983  0.6303401803046428  0.778144656165267  1.0000
  C   C156      1.0  0.013646565924524604  0.5460206789558414  0.772310845758383  1.0000
  C   C157      1.0  0.9069623042785365  0.5335176974729877  0.7919909331331849  1.0000
  C   C158      1.0  0.8435910559064084  0.4549203166302646  0.7844582279661194  1.0000
  C   C159      1.0  0.9844694544651632  0.400431385265179  0.7406603698633345  1.0000
  C   C160      1.0  0.052671175727653015  0.4770308740863741  0.7464212772985304  1.0000
  N   N1        1.0  0.5147521891626923  0.4812145993926721  0.7259349767840672  1.0000
  N   N2        1.0  0.2252291665639277  0.2254328686446243  0.7420993915456717  1.0000
  N   N3        1.0  0.1715956968033723  0.14631500143715934  0.7434784882175405  1.0000
  N   N4        1.0  0.8808873246439005  0.8892855222499422  0.7408693843418132  1.0000
  N   N5        1.0  0.485241432517924  0.018790732665053208  0.22594017954939002  1.0000
  N   N6        1.0  0.7747679770858015  0.27456805934056666  0.2421001473054431  1.0000
  N   N7        1.0  0.8284036009853964  0.35368398683124985  0.2434787988460271  1.0000
  N   N8        1.0  0.11911216739453317  0.6107132849086695  0.2408673897226733  1.0000
  N   N9        1.0  0.4852432020304533  0.5187895594761542  0.2740623502823495  1.0000
  N   N10       1.0  0.7747662246346821  0.7745712902290695  0.25789906636336457  1.0000
  N   N11       1.0  0.8284067236406258  0.8536871744544925  0.25652185443286857  1.0000
  N   N12       1.0  0.1191135731340296  0.1107121418045693  0.2591324660913442  1.0000
  N   N13       1.0  0.5147526383020419  0.981210204982773  0.7740639325672657  1.0000
  N   N14       1.0  0.22523455014341923  0.7254295942261777  0.7578968028111247  1.0000
  N   N15       1.0  0.17159729677067762  0.6463136772037857  0.7565185282166309  1.0000
  N   N16       1.0  0.8808882190360663  0.389286320259572  0.7591321990273767  1.0000
  O   O1        1.0  0.5424903033954465  0.6773413513546273  0.7021664606349913  1.0000
  O   O2        1.0  0.6541423164514838  0.8033278717616454  0.7103517690043827  1.0000
  O   O3        1.0  0.3143570410141834  0.9025767111001598  0.5448976350624049  1.0000
  O   O4        1.0  0.4949887442158953  0.8710656923328487  0.32081412733079856  1.0000
  O   O5        1.0  0.32459872029756554  0.904965777205618  0.3059867879331789  1.0000
  O   O6        1.0  0.7432087384531698  0.5768198027874759  0.689878393519386  1.0000
  O   O7        1.0  0.8498850182848088  0.6926634404975262  0.7218170331301149  1.0000
  O   O8        1.0  0.17669575919303784  0.5865823415294075  0.5552058487102369  1.0000
  O   O9        1.0  0.10101949609308751  0.7482130149104195  0.3377713470829206  1.0000
  O   O10       1.0  0.26637694979923043  0.7015502434502069  0.3277702611219978  1.0000
  O   O11       1.0  0.4575122814699739  0.8226532246159478  0.2021705439017864  1.0000
  O   O12       1.0  0.34587053460725065  0.6966641254936691  0.21036096758059833  1.0000
  O   O13       1.0  0.6856438158056408  0.5974203876479011  0.044899639951402975  1.0000
  O   O14       1.0  0.5050142681476045  0.6289357234092492  0.8208113545468475  1.0000
  O   O15       1.0  0.6754014068114245  0.5950284230682995  0.8059853616903749  1.0000
  O   O16       1.0  0.2567987115161827  0.9231804488620341  0.18987936964278154  1.0000
  O   O17       1.0  0.1501232460590671  0.8073403126556399  0.22181788346097153  1.0000
  O   O18       1.0  0.8233054949877354  0.913421949472223  0.05520631040694468  1.0000
  O   O19       1.0  0.8989861130558695  0.75179886636883  0.8377699898514233  1.0000
  O   O20       1.0  0.7336208368386111  0.7984486824025437  0.8277672236592293  1.0000
  O   O21       1.0  0.45751568504382323  0.3226575718657045  0.2978289816962273  1.0000
  O   O22       1.0  0.3458653014572945  0.19667104098714108  0.2896425424856658  1.0000
  O   O23       1.0  0.6856404966709987  0.09742032858287789  0.4551023306291809  1.0000
  O   O24       1.0  0.5050069730700457  0.1289197320158948  0.6791873461337372  1.0000
  O   O25       1.0  0.675397716250977  0.09501382899794919  0.6940128007864883  1.0000
  O   O26       1.0  0.25679572167215536  0.42317977622057873  0.3101227030244613  1.0000
  O   O27       1.0  0.15011892481979322  0.30734324722640594  0.27818067089493326  1.0000
  O   O28       1.0  0.8233027898309261  0.4134211511223498  0.4447944939384597  1.0000
  O   O29       1.0  0.8989914649174364  0.25180202504225946  0.6622274878022691  1.0000
  O   O30       1.0  0.7336282182710717  0.2984538526429291  0.6722327201662563  1.0000
  O   O31       1.0  0.5424910605167669  0.1773444237353061  0.7978305526384656  1.0000
  O   O32       1.0  0.6541372912787367  0.3033309102788452  0.789642013697893  1.0000
  O   O33       1.0  0.31436003185505257  0.4025804871917771  0.9551025874362505  1.0000
  O   O34       1.0  0.4949937373122353  0.3710812733652844  0.17918710339075963  1.0000
  O   O35       1.0  0.3245997943548388  0.4049711768649829  0.19401385011286001  1.0000
  O   O36       1.0  0.7432143118309394  0.07681132376436753  0.8101168265802553  1.0000
  O   O37       1.0  0.8498782585155668  0.19266122317426954  0.7781828361353005  1.0000
  O   O38       1.0  0.17670557282075086  0.0865885681669027  0.9447917705771897  1.0000
  O   O39       1.0  0.1010141665712965  0.2482052611080903  0.16222922195705533  1.0000
  O   O40       1.0  0.2663723294241436  0.20154127994840107  0.17223236507139456  1.0000
