data_image0
_chemical_formula_structural       Cd2H26C40N2O10
_chemical_formula_sum              "Cd2 H26 C40 N2 O10"
_cell_length_a       7.644988949379044
_cell_length_b       10.11967326479717
_cell_length_c       12.129307878053234
_cell_angle_alpha    84.05958949421442
_cell_angle_beta     83.82555356692322
_cell_angle_gamma    84.12530979937127

_space_group_name_H-M_alt    "P 1"
_space_group_IT_number       1

loop_
  _space_group_symop_operation_xyz
  'x, y, z'

loop_
  _atom_site_type_symbol
  _atom_site_label
  _atom_site_symmetry_multiplicity
  _atom_site_fract_x
  _atom_site_fract_y
  _atom_site_fract_z
  _atom_site_occupancy
  Cd  Cd1       1.0  0.25298461608360157  0.4875204580817608  0.47545933002345464  1.0000
  Cd  Cd2       1.0  0.7470140417186357  0.5124812924847574  0.5245431514992023  1.0000
  H   H1        1.0  0.9974310350244836  0.6999690079540171  0.3470505520339061  1.0000
  H   H2        1.0  0.0025730517342452946  0.3000328030822316  0.6529458488516158  1.0000
  H   H3        1.0  0.9483870216745488  0.9460901970822916  0.294539408921878  1.0000
  H   H4        1.0  0.0516197674221814  0.05391164144327119  0.7054543648494375  1.0000
  H   H5        1.0  0.14841397733124503  0.0970350151620849  0.3618162152053088  1.0000
  H   H6        1.0  0.8515914241757513  0.9029668013821706  0.6381801117362189  1.0000
  H   H7        1.0  0.40286712415004194  0.7496999548199665  0.5359032113543024  1.0000
  H   H8        1.0  0.5971271772698614  0.2503047669318903  0.46410009959961956  1.0000
  H   H9        1.0  0.3715448394664946  0.12729265925214858  0.48384073110054987  1.0000
  H   H10       1.0  0.6284551816449878  0.8727091078045816  0.5161600236606319  1.0000
  H   H11       1.0  0.6103717587892915  0.4816023036162987  0.7906452749119879  1.0000
  H   H12       1.0  0.389630425625981  0.5183934990208171  0.20935336429788268  1.0000
  H   H13       1.0  0.7652673325827453  0.37031377430212586  0.9506750125101746  1.0000
  H   H14       1.0  0.23473191520366046  0.6296840018037527  0.049325281532183934  1.0000
  H   H15       1.0  0.5599238696684453  0.999958987907817  0.9062163262579052  1.0000
  H   H16       1.0  0.4400741469628145  3.766617724210068e-05  0.09378540870179823  1.0000
  H   H17       1.0  0.4009390202711813  0.11385981154629828  0.7477374383163993  1.0000
  H   H18       1.0  0.5990630913026253  0.8861359746175166  0.2522636801196826  1.0000
  H   H19       1.0  0.5893827810321213  0.2588178746712515  0.17420062030553404  1.0000
  H   H20       1.0  0.410614925598388  0.7411808716956968  0.8258029803792939  1.0000
  H   H21       1.0  0.7350123498957829  0.37688679090484806  0.3027827195275351  1.0000
  H   H22       1.0  0.26498559102558517  0.6231099545040308  0.6972218534389969  1.0000
  H   H23       1.0  0.2454540568566159  0.2206697177581418  0.16162614493943295  1.0000
  H   H24       1.0  0.7545458592496744  0.779333052523171  0.8383737104765316  1.0000
  H   H25       1.0  0.0990404083859673  0.10666786175628572  0.026746400147288803  1.0000
  H   H26       1.0  0.9009569832289731  0.8933338942844243  0.9732545025018812  1.0000
  C   C1        1.0  0.07815665312144662  0.7695681058726789  0.37586306667726194  1.0000
  C   C2        1.0  0.9218472557906311  0.23043469191485852  0.624134914089254  1.0000
  C   C3        1.0  0.05228304072033305  0.9064173690151304  0.3470224470515647  1.0000
  C   C4        1.0  0.9477225386333149  0.09358346077784317  0.652972300008962  1.0000
  C   C5        1.0  0.16156521062345067  0.9898496791528257  0.3850953767619886  1.0000
  C   C6        1.0  0.838438771130086  0.0101531351080126  0.6149001247783019  1.0000
  C   C7        1.0  0.29579786757324206  0.9356054762842798  0.4514862781536524  1.0000
  C   C8        1.0  0.70420312899045  0.06439930046311558  0.5485125310366216  1.0000
  C   C9        1.0  0.30676968305380115  0.7973588314608548  0.48070080739876186  1.0000
  C   C10       1.0  0.6932312649489133  0.2026459343043356  0.5192996546089931  1.0000
  C   C11       1.0  0.41835984599886433  0.021455933499950692  0.48530720639944763  1.0000
  C   C12       1.0  0.5816389089253206  0.9785458390309714  0.5146919694882471  1.0000
  C   C13       1.0  0.49423263368976916  0.3051343793550173  0.7602155340113871  1.0000
  C   C14       1.0  0.5057683409824278  0.6948604145495096  0.2397840784876949  1.0000
  C   C15       1.0  0.5971014206849858  0.37662236106400104  0.8177909920260121  1.0000
  C   C16       1.0  0.4029007637302868  0.6233734415731149  0.1822076471838586  1.0000
  C   C17       1.0  0.6844572762579659  0.31456671012702486  0.9068621159548941  1.0000
  C   C18       1.0  0.315544883876818  0.6854290870189954  0.09313734966370653  1.0000
  C   C19       1.0  0.6700145881063477  0.17857621827712214  0.9378191900530697  1.0000
  C   C20       1.0  0.32998610371400616  0.8214205656032686  0.06218110298178204  1.0000
  C   C21       1.0  0.5678594447496152  0.1057421316746101  0.8811407233547971  1.0000
  C   C22       1.0  0.43214269110468717  0.8942536599803074  0.11885956867254788  1.0000
  C   C23       1.0  0.4795381942320062  0.16931665368306878  0.7934454267691821  1.0000
  C   C24       1.0  0.5204638366171039  0.8306801411964312  0.20655396591294567  1.0000
  C   C25       1.0  0.8372404159788972  0.17747495977764766  0.09304901804157589  1.0000
  C   C26       1.0  0.16275313639641809  0.8225257765144535  0.9069530057847789  1.0000
  C   C27       1.0  0.733181710368079  0.251724360453636  0.17073986097384625  1.0000
  C   C28       1.0  0.26681439866231926  0.748276370381184  0.8292644941907457  1.0000
  C   C29       1.0  0.8156229064773229  0.3171279888288864  0.24340877101169411  1.0000
  C   C30       1.0  0.18437835654096807  0.6828737672625421  0.7565943890317186  1.0000
  C   C31       1.0  0.0003668702819795008  0.3061054826373137  0.24072148727889706  1.0000
  C   C32       1.0  0.9996333851203689  0.6938942834613397  0.759280239763996  1.0000
  C   C33       1.0  0.10205062218165041  0.22971938515280493  0.16263582330928023  1.0000
  C   C34       1.0  0.8979494717712913  0.770282398377226  0.8373624522256906  1.0000
  C   C35       1.0  0.021367345571348992  0.16596956938850838  0.08785812110141221  1.0000
  C   C36       1.0  0.9786286262901315  0.8340331843687849  0.9121419561465205  1.0000
  C   C37       1.0  0.41174201222460743  0.3696497811201026  0.6606574215534098  1.0000
  C   C38       1.0  0.5882588331619091  0.6303460105179041  0.3393421180091921  1.0000
  C   C39       1.0  0.08864909374548087  0.3710130748106763  0.3223302703009736  1.0000
  C   C40       1.0  0.9113511373763784  0.6289866857968746  0.6776722831506561  1.0000
  N   N1        1.0  0.20281479868651792  0.7168516655278835  0.44257742629391583  1.0000
  N   N2        1.0  0.7971861735966926  0.2831531057284096  0.557422209305102  1.0000
  O   O1        1.0  0.3052275593641627  0.30910417524019346  0.6148425413311003  1.0000
  O   O2        1.0  0.6947687517933687  0.6908955743344405  0.3851594075437605  1.0000
  O   O3        1.0  0.4531472984071101  0.4869465985766012  0.6200915531372075  1.0000
  O   O4        1.0  0.5468480051344783  0.5130511610052506  0.37990896273712593  1.0000
  O   O5        1.0  0.0012475650168113216  0.4626919492007885  0.3769645669755521  1.0000
  O   O6        1.0  0.9987551663159095  0.5373088201562624  0.6230377656516239  1.0000
  O   O7        1.0  0.24978785130699072  0.33374098656096857  0.3361318120471851  1.0000
  O   O8        1.0  0.7502110893470899  0.6662587740296786  0.6638699889396946  1.0000
  O   O9        1.0  0.7577680143977333  0.10734757899593457  0.02187264313082691  1.0000
  O   O10       1.0  0.2422295065028807  0.8926531793112884  0.978128332454823  1.0000
