data_image0
_chemical_formula_structural       Cu2H24C24N8O10
_chemical_formula_sum              "Cu2 H24 C24 N8 O10"
_cell_length_a       7.308310318790754
_cell_length_b       10.172789376288947
_cell_length_c       10.17280030925879
_cell_angle_alpha    101.57305337133712
_cell_angle_beta     99.76860266819058
_cell_angle_gamma    99.76980307725496

_space_group_name_H-M_alt    "P 1"
_space_group_IT_number       1

loop_
  _space_group_symop_operation_xyz
  'x, y, z'

loop_
  _atom_site_type_symbol
  _atom_site_label
  _atom_site_symmetry_multiplicity
  _atom_site_fract_x
  _atom_site_fract_y
  _atom_site_fract_z
  _atom_site_occupancy
  Cu  Cu1       1.0  0.25002185449734776  0.8505890378712236  0.14943897419964708  1.0000
  Cu  Cu2       1.0  0.7499967195123318  0.1494519784820838  0.85056973284334  1.0000
  H   H1        1.0  0.16851865393235244  0.9514236531367005  0.9297697542736929  1.0000
  H   H2        1.0  0.6685510143582716  0.9297839563580368  0.951417845972344  1.0000
  H   H3        1.0  0.8315005001159291  0.048572174614804516  0.07021423738447653  1.0000
  H   H4        1.0  0.3314608453899125  0.0702108528278131  0.048580768750724694  1.0000
  H   H5        1.0  0.7759871963920586  0.3382034084178116  0.3256212432951244  1.0000
  H   H6        1.0  0.2760082673810729  0.3256221264471008  0.3382077213299581  1.0000
  H   H7        1.0  0.22401393367969288  0.6618068266632592  0.6743840535245909  1.0000
  H   H8        1.0  0.7239913971276124  0.6743737325641633  0.6617925465164944  1.0000
  H   H9        1.0  0.8341106398332911  0.33029553974542836  0.1624286814323028  1.0000
  H   H10       1.0  0.3341368109140674  0.1624446004896996  0.3303018196462447  1.0000
  H   H11       1.0  0.1658914287118378  0.6697085290347218  0.837580410257125  1.0000
  H   H12       1.0  0.6658758826067624  0.8375717779400632  0.6696972898993465  1.0000
  H   H13       1.0  0.09319633296686897  0.4918419172865427  0.3474929785846257  1.0000
  H   H14       1.0  0.5931489645238057  0.3474858796525808  0.4918337845285592  1.0000
  H   H15       1.0  0.9068317110359273  0.5081795622011428  0.6525218288799763  1.0000
  H   H16       1.0  0.40679212898231737  0.6525090678264718  0.5081551337200736  1.0000
  H   H17       1.0  0.9289032012258502  0.5922748198026684  0.3985713153962323  1.0000
  H   H18       1.0  0.4288766251763646  0.3985459056704954  0.5922477349550945  1.0000
  H   H19       1.0  0.07110173370092099  0.4077436237335519  0.6014390459702739  1.0000
  H   H20       1.0  0.5710866670544447  0.6014253787485586  0.40772836850803884  1.0000
  H   H21       1.0  0.9876586420481316  0.5839117463628369  0.23533017744068022  1.0000
  H   H22       1.0  0.4876442358804168  0.23534061211136506  0.5839069862600966  1.0000
  H   H23       1.0  0.012340803588124102  0.4160974655931753  0.7646727401803517  1.0000
  H   H24       1.0  0.5123319529542412  0.764669675481791  0.41608442711958554  1.0000
  C   C1        1.0  0.32188664552700164  0.5401359361744652  0.10602084854767914  1.0000
  C   C2        1.0  0.8219042749531338  0.1060146946129734  0.5401346850628032  1.0000
  C   C3        1.0  0.6781010854515513  0.45984762423845643  0.8939656496351988  1.0000
  C   C4        1.0  0.17809899047957592  0.8939698590947244  0.45986376124877654  1.0000
  C   C5        1.0  0.1504594276538853  0.310979742951389  0.009254162897057877  1.0000
  C   C6        1.0  0.6504766780788387  0.009243334860173  0.31096173288504053  1.0000
  C   C7        1.0  0.8495307238368424  0.689012028969266  0.990736246431716  1.0000
  C   C8        1.0  0.3495425240502782  0.9907432491007951  0.6890194286311981  1.0000
  C   C9        1.0  0.3171298057256421  0.3996218712683302  0.08695261997064557  1.0000
  C   C10       1.0  0.8171713736534512  0.0869644738964013  0.3996423921192688  1.0000
  C   C11       1.0  0.6828610124557527  0.6003534622966099  0.9130434235245984  1.0000
  C   C12       1.0  0.182871210124702  0.9130405398396774  0.6003807406659263  1.0000
  C   C13       1.0  0.4799669282650214  0.3451058295311427  0.13532000562834404  1.0000
  C   C14       1.0  0.9800268795997623  0.13532783598057563  0.34511005125193617  1.0000
  C   C15       1.0  0.51999839346756  0.6548818794875331  0.8646743863372066  1.0000
  C   C16       1.0  0.020023328227480885  0.86467922562872  0.6548908414114365  1.0000
  C   C17       1.0  0.8041719735988833  0.3989279827711272  0.2503960440309143  1.0000
  C   C18       1.0  0.3041859789929262  0.250399323692271  0.3989596509246596  1.0000
  C   C19       1.0  0.19583399925807743  0.6010658072308672  0.7496114693820246  1.0000
  C   C20       1.0  0.6958215643157503  0.7496047262699365  0.6010727226171825  1.0000
  C   C21       1.0  0.9615492418255797  0.5243549407940691  0.3113957828067271  1.0000
  C   C22       1.0  0.4615583309082608  0.31140642298304044  0.5243757290343964  1.0000
  C   C23       1.0  0.038434794016048095  0.4756491638441743  0.6886091226047455  1.0000
  C   C24       1.0  0.5384399876408992  0.6886038136821921  0.47564003399592986  1.0000
  N   N1        1.0  0.32006705207112407  0.6567677340987785  0.11730785048354872  1.0000
  N   N2        1.0  0.8200503607880734  0.11729789877364992  0.6567646578417694  1.0000
  N   N3        1.0  0.6799411966796783  0.34321475991208666  0.8826790022841778  1.0000
  N   N4        1.0  0.17990593199139224  0.8826826415689196  0.34321735161358896  1.0000
  N   N5        1.0  0.0101564659494926  0.24115956847001033  0.9389394284997367  1.0000
  N   N6        1.0  0.5101737263095457  0.9389278721663671  0.24113623306059398  1.0000
  N   N7        1.0  0.9898242405629104  0.7588424940913541  0.06104892804140148  1.0000
  N   N8        1.0  0.48983722772882726  0.06104948736286529  0.7588322302901673  1.0000
  O   O1        1.0  0.25003979107534485  0.9764837477600921  0.023555781097947103  1.0000
  O   O2        1.0  0.7499692786433483  0.023567552974078903  0.9764685588668558  1.0000
  O   O3        1.0  0.48382411132975983  0.2217717508247716  0.11857357111746579  1.0000
  O   O4        1.0  0.9838312581188189  0.1185581320098166  0.22177711638775577  1.0000
  O   O5        1.0  0.5161799733486276  0.7782251217286956  0.8814412081235828  1.0000
  O   O6        1.0  0.01616538123875691  0.8814418332188223  0.7782462103143502  1.0000
  O   O7        1.0  0.6319562446865277  0.44565670808414376  0.20365010292333346  1.0000
  O   O8        1.0  0.13198530130553368  0.2036466841761921  0.44563886890487237  1.0000
  O   O9        1.0  0.3680287177942673  0.5543504778691782  0.7963506195662262  1.0000
  O   O10       1.0  0.8680493937872028  0.7963501375656251  0.5543551058031753  1.0000
