data_image0
_chemical_formula_structural       Cd2H36C52N12O8
_chemical_formula_sum              "Cd2 H36 C52 N12 O8"
_cell_length_a       8.044253509239473
_cell_length_b       13.121981425699378
_cell_length_c       13.87682538201689
_cell_angle_alpha    89.99987879992354
_cell_angle_beta     90.00015601116345
_cell_angle_gamma    103.52511361631663

_space_group_name_H-M_alt    "P 1"
_space_group_IT_number       1

loop_
  _space_group_symop_operation_xyz
  'x, y, z'

loop_
  _atom_site_type_symbol
  _atom_site_label
  _atom_site_symmetry_multiplicity
  _atom_site_fract_x
  _atom_site_fract_y
  _atom_site_fract_z
  _atom_site_occupancy
  Cd  Cd1       1.0  0.00015592072346479587  0.9995165225258515  0.8206247324545258  1.0000
  Cd  Cd2       1.0  0.00015690868437446542  0.4995158437209141  0.17937626178325422  1.0000
  H   H1        1.0  0.13176870189129627  0.6836121860947556  0.9832668185220826  1.0000
  H   H2        1.0  0.13176872367075984  0.18361099198155265  0.0167342950689289  1.0000
  H   H3        1.0  0.34520739353163776  0.5786526540178016  0.0263472175494854  1.0000
  H   H4        1.0  0.3452088019308805  0.0786530242103893  0.973654442663225  1.0000
  H   H5        1.0  0.7493615849248698  0.8209683686572261  0.9083472944737565  1.0000
  H   H6        1.0  0.7493624919969692  0.32097175667586697  0.0916494733180855  1.0000
  H   H7        1.0  0.5347136213224742  0.9260053310553287  0.8655829164076678  1.0000
  H   H8        1.0  0.5347156408937508  0.4260078617214517  0.1344140233282687  1.0000
  H   H9        1.0  0.9044083938463457  0.7178022983707562  0.1882916192127553  1.0000
  H   H10       1.0  0.9044072932201814  0.21780137123568724  0.8117070408136017  1.0000
  H   H11       1.0  0.6810294400703614  0.7147625271616033  0.1789665468328536  1.0000
  H   H12       1.0  0.6810289848001504  0.21476315225622497  0.8210310465089421  1.0000
  H   H13       1.0  0.8321821275691192  0.8012200098220601  0.1047269769456634  1.0000
  H   H14       1.0  0.832183520379246  0.3012212932263195  0.8952699609502872  1.0000
  H   H15       1.0  0.4359556444987761  0.36847345994915764  0.3197020591902913  1.0000
  H   H16       1.0  0.4359538085026173  0.8684704484156854  0.6802991638070708  1.0000
  H   H17       1.0  0.23289122412253957  0.2939390079505344  0.4522906566299199  1.0000
  H   H18       1.0  0.23288945542314815  0.793937782929312  0.5477103954784894  1.0000
  H   H19       1.0  0.6546262513719797  0.24455250970183331  0.623766137045024  1.0000
  H   H20       1.0  0.6546259372502305  0.7445539162606708  0.37623495815748237  1.0000
  H   H21       1.0  0.8556257577324616  0.31327298935146786  0.4871290674028756  1.0000
  H   H22       1.0  0.8556244545021983  0.8132733894665592  0.5128736483243586  1.0000
  H   H23       1.0  0.09278879219167643  0.9876454585847585  0.5982000252969044  1.0000
  H   H24       1.0  0.0927872638685017  0.48764520521936555  0.4017996974850107  1.0000
  H   H25       1.0  0.2789236258383312  0.04820347184536188  0.529901629429034  1.0000
  H   H26       1.0  0.2789233903701386  0.5482039396330334  0.470099266628857  1.0000
  H   H27       1.0  0.08243433789571243  0.08337572233632068  0.5080628709615667  1.0000
  H   H28       1.0  0.08243294939070717  0.5833761570125517  0.4919376449202062  1.0000
  H   H29       1.0  0.4948368985145778  0.36110409237829083  0.8800197494672161  1.0000
  H   H30       1.0  0.4948368098206046  0.8611027808542817  0.1199794192297645  1.0000
  H   H31       1.0  0.7331123577046982  0.6718660535509995  0.7776950698837979  1.0000
  H   H32       1.0  0.733110098232281  0.17186609651428597  0.222301250197745  1.0000
  H   H33       1.0  0.5925694758909545  0.6289517770900162  0.6186139486385612  1.0000
  H   H34       1.0  0.5925694100889204  0.12895233829818406  0.3813829564349192  1.0000
  H   H35       1.0  0.4074154883855384  0.4529124326901978  0.589025078823397  1.0000
  H   H36       1.0  0.4074171923818781  0.9529122083908349  0.4109737682417176  1.0000
  C   C1        1.0  0.19403859950212882  0.8725524342570594  0.8937454828092868  1.0000
  C   C2        1.0  0.19404113899025788  0.3725534408457918  0.1062582331562822  1.0000
  C   C3        1.0  0.3207341102604887  0.8105458454196468  0.9217318728156626  1.0000
  C   C4        1.0  0.3207334443851693  0.31054533647308347  0.0782685638961382  1.0000
  C   C5        1.0  0.26664224074986725  0.7128319243520806  0.966653585716479  1.0000
  C   C6        1.0  0.2666413918982755  0.21283148956427309  0.0333491232417416  1.0000
  C   C7        1.0  0.38459499982906215  0.65403437986928  0.9896755736847922  1.0000
  C   C8        1.0  0.38459560287999767  0.1540347639586699  0.010326718317117  1.0000
  C   C9        1.0  0.5564465960472447  0.6944418234387796  0.966611315627425  1.0000
  C   C10       1.0  0.556447596730962  0.1944429532644563  0.0333897251329063  1.0000
  C   C11       1.0  0.6135251420535255  0.7922569346983579  0.923411900918353  1.0000
  C   C12       1.0  0.6135266223835887  0.292258777020912  0.0765861514748067  1.0000
  C   C13       1.0  0.49439958319837957  0.8503119518033767  0.9011472906065164  1.0000
  C   C14       1.0  0.494402092528766  0.35031297061479444  0.09885261963457738  1.0000
  C   C15       1.0  0.8011483016462291  0.723245987941993  0.1386159054881517  1.0000
  C   C16       1.0  0.8011483144262784  0.2232473302332849  0.8613825808540625  1.0000
  C   C17       1.0  0.7836302773676214  0.6408364718167265  0.0639966018452327  1.0000
  C   C18       1.0  0.783628110111927  0.1408376968030183  0.9360020218785081  1.0000
  C   C19       1.0  0.7034523689400276  0.5485812301866771  0.9327443213532831  1.0000
  C   C20       1.0  0.7034504162098617  0.04858074236399549  0.0672536400629156  1.0000
  C   C21       1.0  0.7834915828703259  0.39711498151930863  0.3212242663867215  1.0000
  C   C22       1.0  0.7834881405064136  0.897117468005085  0.6787774471281764  1.0000
  C   C23       1.0  0.6580886385335487  0.3472042958492522  0.3971616146413695  1.0000
  C   C24       1.0  0.6580867907099163  0.8472021960028898  0.6028414423713642  1.0000
  C   C25       1.0  0.4825144853099347  0.34005804225753866  0.3859449410240572  1.0000
  C   C26       1.0  0.48251237948647924  0.8400551400828176  0.6140571328891581  1.0000
  C   C27       1.0  0.3694943867788822  0.2985729209033678  0.4598746268027796  1.0000
  C   C28       1.0  0.3694913451939499  0.7985717113443869  0.540125910747598  1.0000
  C   C29       1.0  0.43425481038713104  0.26723671883453193  0.5456018094201482  1.0000
  C   C30       1.0  0.43425172329602907  0.7672364346123502  0.45439961358712117  1.0000
  C   C31       1.0  0.6081669013527603  0.27073491745962036  0.5564855562063116  1.0000
  C   C32       1.0  0.6081647082345896  0.7707338644517848  0.44351613396058553  1.0000
  C   C33       1.0  0.719292425822161  0.30971088967569926  0.4813661180590643  1.0000
  C   C34       1.0  0.7192902350047914  0.8097089288418359  0.5186363898803279  1.0000
  C   C35       1.0  0.16276759371143615  0.060924347549615704  0.5646969474845065  1.0000
  C   C36       1.0  0.1627656708305523  0.5609240919103939  0.4353037399900472  1.0000
  C   C37       1.0  0.2076226129480574  0.1434699584232249  0.6393393325680635  1.0000
  C   C38       1.0  0.20762223539053787  0.6434713906920493  0.3606612603455659  1.0000
  C   C39       1.0  0.3322554629203296  0.2900600962034474  0.71408332467373  1.0000
  C   C40       1.0  0.3322578995077097  0.7900600754186942  0.2859164505931489  1.0000
  C   C41       1.0  0.44101545424634037  0.3945664061104353  0.7319360922192928  1.0000
  C   C42       1.0  0.4410175144264343  0.8945656309868822  0.2680636452606038  1.0000
  C   C43       1.0  0.5173128302034159  0.41941608909433364  0.8225966327029042  1.0000
  C   C44       1.0  0.5173132790995253  0.9194154665830823  0.1774024546742652  1.0000
  C   C45       1.0  0.6210191184615326  0.5195033384938555  0.8389879713315764  1.0000
  C   C46       1.0  0.6210190933126185  0.0195034767597662  0.1610106389796258  1.0000
  C   C47       1.0  0.6490356856595343  0.5948814654819188  0.7651561897458095  1.0000
  C   C48       1.0  0.6490350229445881  0.0948822686139081  0.2348415931836811  1.0000
  C   C49       1.0  0.5716411975774848  0.5703348553021214  0.675675312718262  1.0000
  C   C50       1.0  0.5716421413398864  0.07033550776989018  0.32432239735167906  1.0000
  C   C51       1.0  0.46803974488378947  0.47108288327160597  0.6590699474390291  1.0000
  C   C52       1.0  0.46804116356301523  0.9710827746088884  0.3409282381897683  1.0000
  N   N1        1.0  0.8671660559950637  0.5647109378380363  0.0579189849243562  1.0000
  N   N2        1.0  0.8671620641280952  0.0647105881093495  0.9420792022804179  1.0000
  N   N3        1.0  0.8179076938282677  0.506639755434314  0.9756015180241207  1.0000
  N   N4        1.0  0.8179015368627206  0.006638563376682798  0.024396707796242402  1.0000
  N   N5        1.0  0.6777048413564799  0.632461456167526  0.986218983798196  1.0000
  N   N6        1.0  0.677706065856448  0.1324634021758726  0.0137809309624544  1.0000
  N   N7        1.0  0.1473472139140384  0.1411601981899366  0.7284879194198908  1.0000
  N   N8        1.0  0.14734804614727887  0.6411594203153469  0.2715118624749309  1.0000
  N   N9        1.0  0.2242733729085415  0.2323742563799343  0.7755476435495722  1.0000
  N   N10       1.0  0.2242764974354329  0.7323735503131416  0.2244513563630406  1.0000
  N   N11       1.0  0.3248744092115033  0.23679152077422566  0.6269856414893127  1.0000
  N   N12       1.0  0.32487377828760333  0.7367921488367981  0.3730149494182696  1.0000
  O   O1        1.0  0.254608933311097  0.9617490464272362  0.8525890539518741  1.0000
  O   O2        1.0  0.254614124424748  0.4617499791895625  0.147413137661303  1.0000
  O   O3        1.0  0.03614022003363  0.836968196482708  0.9095206158975627  1.0000
  O   O4        1.0  0.03614021128353071  0.33696923499584136  0.09048508427250108  1.0000
  O   O5        1.0  0.7417309843894132  0.46513548629265233  0.2663031024505642  1.0000
  O   O6        1.0  0.7417243706895392  0.9651355365585417  0.7336976884154538  1.0000
  O   O7        1.0  0.9265307455096234  0.3716892631182843  0.3167658920452965  1.0000
  O   O8        1.0  0.9265325657177854  0.8716956524781165  0.683235377243804  1.0000
