data_image0
_chemical_formula_structural       Ca2H28C32O16
_chemical_formula_sum              "Ca2 H28 C32 O16"
_cell_length_a       7.813435142389967
_cell_length_b       10.811289246813049
_cell_length_c       10.81132803184884
_cell_angle_alpha    63.49563574060196
_cell_angle_beta     85.6842988093172
_cell_angle_gamma    85.68384392618117

_space_group_name_H-M_alt    "P 1"
_space_group_IT_number       1

loop_
  _space_group_symop_operation_xyz
  'x, y, z'

loop_
  _atom_site_type_symbol
  _atom_site_label
  _atom_site_symmetry_multiplicity
  _atom_site_fract_x
  _atom_site_fract_y
  _atom_site_fract_z
  _atom_site_occupancy
  Ca  Ca1       1.0  0.7499991944388426  0.9462342568327461  0.05376905824557791  1.0000
  Ca  Ca2       1.0  0.2500017909798799  0.053766056822830414  0.9462314940100071  1.0000
  H   H1        1.0  0.4730904589431049  0.9192021772983882  0.2552495495027215  1.0000
  H   H2        1.0  0.026903750169225294  0.744753852353867  0.08079419485748214  1.0000
  H   H3        1.0  0.5269093109901776  0.0807971076612404  0.744750591682731  1.0000
  H   H4        1.0  0.97309718573176  0.2552485210015831  0.9192035830298976  1.0000
  H   H5        1.0  0.6332267764462002  0.9165354502282383  0.33892072499659065  1.0000
  H   H6        1.0  0.866770001142939  0.6610816069182165  0.08346267973413986  1.0000
  H   H7        1.0  0.36677166601352706  0.08346385508951928  0.6610813133711204  1.0000
  H   H8        1.0  0.13323100313153446  0.3389197269852318  0.916534637619101  1.0000
  H   H9        1.0  0.7373462899869169  0.34805121544255263  0.08130157316828956  1.0000
  H   H10       1.0  0.762652221179998  0.9187040296337017  0.6519597388923157  1.0000
  H   H11       1.0  0.2626661016089499  0.6519551805081323  0.9186902108065951  1.0000
  H   H12       1.0  0.2373526712363372  0.08129214195603401  0.3480480614259278  1.0000
  H   H13       1.0  0.6460224245004655  0.7094489227401723  0.8168601921834123  1.0000
  H   H14       1.0  0.8539832748193703  0.18313323497505252  0.2905582662431243  1.0000
  H   H15       1.0  0.3539798170667653  0.290553435058186  0.18313661238083503  1.0000
  H   H16       1.0  0.1460153102904513  0.8168619413408892  0.7094474731427667  1.0000
  H   H17       1.0  0.48649374915672183  0.7786318574393933  0.6025063441407209  1.0000
  H   H18       1.0  0.013513273299402303  0.3974867734683514  0.22137007194561414  1.0000
  H   H19       1.0  0.5135123657946039  0.22137046328975887  0.3974893881723743  1.0000
  H   H20       1.0  0.9864787716729991  0.6025125808286518  0.7786312898830091  1.0000
  H   H21       1.0  0.38141449846644077  0.5962282617426312  0.5490367534526684  1.0000
  H   H22       1.0  0.11858456065080962  0.450970307794627  0.40376706942850393  1.0000
  H   H23       1.0  0.6185928726333926  0.403776103129303  0.4509552311690895  1.0000
  H   H24       1.0  0.8814034494316444  0.5490321923255195  0.5962348985354353  1.0000
  H   H25       1.0  0.43896344965896367  0.3465395292903112  0.7079086723775633  1.0000
  H   H26       1.0  0.061026549182955095  0.2921035503661997  0.6534537107101741  1.0000
  H   H27       1.0  0.561040004442141  0.6534648822528979  0.2920862322135847  1.0000
  H   H28       1.0  0.9389628131319157  0.7078978995458912  0.34654774725562004  1.0000
  C   C1        1.0  0.7342899186673789  0.457325495585515  0.002396312647405699  1.0000
  C   C2        1.0  0.7657048290861111  0.9976085102482629  0.5426809870866123  1.0000
  C   C3        1.0  0.2657099632540252  0.5426727403200431  0.997601520285663  1.0000
  C   C4        1.0  0.23429487837677954  0.0023897640655689994  0.4573242367194439  1.0000
  C   C5        1.0  0.6408049133955344  0.491693139202063  0.8769534200865081  1.0000
  C   C6        1.0  0.8591942403936416  0.1230494160533055  0.5083137674151672  1.0000
  C   C7        1.0  0.3591986120306174  0.5083092078402416  0.12304333501373314  1.0000
  C   C8        1.0  0.14080684110899006  0.8769478032514255  0.4916900225336179  1.0000
  C   C9        1.0  0.6030428789121061  0.6318393612525455  0.7889786464162185  1.0000
  C   C10       1.0  0.8969552965044015  0.21101980927176106  0.3681626930434446  1.0000
  C   C11       1.0  0.39696209187882653  0.3681598662797612  0.21101852533583806  1.0000
  C   C12       1.0  0.10304475282595861  0.7889732677820477  0.6318402280919172  1.0000
  C   C13       1.0  0.5120341113962468  0.6696369924241525  0.6708647762056046  1.0000
  C   C14       1.0  0.987969937175265  0.3291347528218226  0.330365386083649  1.0000
  C   C15       1.0  0.48796932089754835  0.33036742392008733  0.3291310522446692  1.0000
  C   C16       1.0  0.012026049554727091  0.6708635249539726  0.6696344429596905  1.0000
  C   C17       1.0  0.4538261962902226  0.566893937318014  0.6411989431263051  1.0000
  C   C18       1.0  0.0461766402572295  0.358805556973735  0.4331037127685348  1.0000
  C   C19       1.0  0.5461760016623813  0.4331084300824132  0.3587997091561874  1.0000
  C   C20       1.0  0.953818043758076  0.6411917113102493  0.5668994006411622  1.0000
  C   C21       1.0  0.4856987213271892  0.42718878839833957  0.7295880220334893  1.0000
  C   C22       1.0  0.014297738218040493  0.27042405806322733  0.5728097394755309  1.0000
  C   C23       1.0  0.5143021898149343  0.572814614807044  0.27040836866978407  1.0000
  C   C24       1.0  0.9856954756736159  0.729577359580688  0.42719157009823744  1.0000
  C   C25       1.0  0.5808465746581462  0.38832178438241993  0.8470918930294927  1.0000
  C   C26       1.0  0.9191463711190124  0.1529161467489218  0.6116784780340367  1.0000
  C   C27       1.0  0.419155781848751  0.6116784993129656  0.15290491432559591  1.0000
  C   C28       1.0  0.08084957494790498  0.8470811155800392  0.3883255097707731  1.0000
  C   C29       1.0  0.6193845791562111  0.23702142794448391  0.9356252566502832  1.0000
  C   C30       1.0  0.8806318798149064  0.06438475888156601  0.7629872816327676  1.0000
  C   C31       1.0  0.3806164934917576  0.7629788665069556  0.06437160016881177  1.0000
  C   C32       1.0  0.1193666369214199  0.9356114568863846  0.23701891828726207  1.0000
  O   O1        1.0  0.8061631743301731  0.5446536365718303  0.02151400557872301  1.0000
  O   O2        1.0  0.6938376823719568  0.9784844662622803  0.4553560249169307  1.0000
  O   O3        1.0  0.19384376176983406  0.45535799486206957  0.9784793550637686  1.0000
  O   O4        1.0  0.30616072237624786  0.021512798559740507  0.5446524832554829  1.0000
  O   O5        1.0  0.5966029348235438  0.8890807154318241  0.27016746223422644  1.0000
  O   O6        1.0  0.9033900126675152  0.7298357443451806  0.11091460517498312  1.0000
  O   O7        1.0  0.4033954828773219  0.11091961973586002  0.7298331889493781  1.0000
  O   O8        1.0  0.09660977612153233  0.2701645608623124  0.8890823011081251  1.0000
  O   O9        1.0  0.7711189341853596  0.1966839669818725  0.9781877581829406  1.0000
  O   O10       1.0  0.7288769041142729  0.0218162130484032  0.8033212939820515  1.0000
  O   O11       1.0  0.22888209484798244  0.8033163370716353  0.021810946354399563  1.0000
  O   O12       1.0  0.27112039418506834  0.9781799990724952  0.19668218382461317  1.0000
  O   O13       1.0  0.5015070742341835  0.1531527508414143  0.9631412556075744  1.0000
  O   O14       1.0  0.9984897580142802  0.036869690489382406  0.8468410214430475  1.0000
  O   O15       1.0  0.49849127214162803  0.8468496488271813  0.036857545066936725  1.0000
  O   O16       1.0  0.0015063525100416026  0.9631234380367317  0.153165743520823  1.0000
