data_image0
_chemical_formula_structural       Cu4H54C54S6I4N6
_chemical_formula_sum              "Cu4 H54 C54 S6 I4 N6"
_cell_length_a       9.218361081782161
_cell_length_b       14.398131891879933
_cell_length_c       16.883437346230718
_cell_angle_alpha    113.27797412358355
_cell_angle_beta     89.68823046769326
_cell_angle_gamma    99.76615090024588

_space_group_name_H-M_alt    "P 1"
_space_group_IT_number       1

loop_
  _space_group_symop_operation_xyz
  'x, y, z'

loop_
  _atom_site_type_symbol
  _atom_site_label
  _atom_site_symmetry_multiplicity
  _atom_site_fract_x
  _atom_site_fract_y
  _atom_site_fract_z
  _atom_site_occupancy
  Cu  Cu1       1.0  0.9853858857820511  0.9451891213509496  0.6733954102658827  1.0000
  Cu  Cu2       1.0  0.014614280191835898  0.0548111642980089  0.3266053118222345  1.0000
  Cu  Cu3       1.0  0.13271865292522023  0.0023057263915404994  0.5649370527953437  1.0000
  Cu  Cu4       1.0  0.8672808224679615  0.9976960945639204  0.43506418766359184  1.0000
  H   H1        1.0  0.09215331823484962  0.755596278356087  0.054010908653140045  1.0000
  H   H2        1.0  0.9078486238027637  0.24440247460940157  0.9459892944127616  1.0000
  H   H3        1.0  0.29672104949916905  0.6871496185630831  0.6323515709432427  1.0000
  H   H4        1.0  0.7032758632190409  0.312850659601935  0.3676485609254101  1.0000
  H   H5        1.0  0.2501156931794242  0.5699576311243958  0.5415025004888747  1.0000
  H   H6        1.0  0.7498833936982124  0.43004265267186526  0.4584970379033421  1.0000
  H   H7        1.0  0.6674432339595315  0.17005785684926875  0.5878650048078526  1.0000
  H   H8        1.0  0.332556938401126  0.8299424295700318  0.412134532932967  1.0000
  H   H9        1.0  0.6741401966743014  0.8805952269949698  0.5960752986507033  1.0000
  H   H10       1.0  0.3258612458469869  0.11940582947146078  0.40392686599302147  1.0000
  H   H11       1.0  0.4645291843157367  0.7411700763064317  0.5769502997252118  1.0000
  H   H12       1.0  0.5354696004967394  0.2588332799555388  0.42305145910454905  1.0000
  H   H13       1.0  0.45796354903337294  0.0364166459245467  0.5839784028991916  1.0000
  H   H14       1.0  0.542033567522772  0.9635844019755736  0.416020803481885  1.0000
  H   H15       1.0  0.7489815707270396  0.6131740781874626  0.6951847154166303  1.0000
  H   H16       1.0  0.251017516150597  0.38682620560879855  0.3048148229755867  1.0000
  H   H17       1.0  0.9503649698277954  0.7549373454028582  0.7026135600550916  1.0000
  H   H18       1.0  0.04963609056472507  0.24506217467470742  0.297385718174624  1.0000
  H   H19       1.0  0.10166966716091254  0.33250647160043206  0.5282931398498859  1.0000
  H   H20       1.0  0.8983307026509098  0.6674945837836287  0.4717066567506477  1.0000
  H   H21       1.0  0.14236315156923499  0.4353031626053864  0.4953870947492121  1.0000
  H   H22       1.0  0.8576372182425873  0.5646978927786818  0.5046127018513218  1.0000
  H   H23       1.0  0.9576113033440168  0.3765736576315034  0.49457038839296535  1.0000
  H   H24       1.0  0.042388869016640705  0.62342662878779  0.5054291493478544  1.0000
  H   H25       1.0  0.15346103759340227  0.7113427316759555  0.9217643122693104  1.0000
  H   H26       1.0  0.8465402138634985  0.2886575565960428  0.0782364091674097  1.0000
  H   H27       1.0  0.9925415629049826  0.6282866769680879  0.9284355302641956  1.0000
  H   H28       1.0  0.0074594911007607725  0.37171284233913576  0.07156493231281046  1.0000
  H   H29       1.0  0.10782683633369325  0.8645515785640613  0.20939893301334683  1.0000
  H   H30       1.0  0.8921763886380988  0.13544794598923457  0.790601528260872  1.0000
  H   H31       1.0  0.8423374664040966  0.051711285157097095  0.1742202012247489  1.0000
  H   H32       1.0  0.15766101534651256  0.9482866902041774  0.8257809292829208  1.0000
  H   H33       1.0  0.8567141765388444  0.4413201915595764  0.845561667551557  1.0000
  H   H34       1.0  0.14328599262842803  0.5586800944745532  0.15443846236291134  1.0000
  H   H35       1.0  0.719480277673455  0.4432170093840425  0.7731086678614929  1.0000
  H   H36       1.0  0.2805198978805877  0.5567832774204219  0.2268902777056852  1.0000
  H   H37       1.0  0.789443085362045  0.5562419038048245  0.8636126010122992  1.0000
  H   H38       1.0  0.21055600470898378  0.4437583803766073  0.13638634520626877  1.0000
  H   H39       1.0  0.8093762632780895  0.3165133571112407  0.6804804648832601  1.0000
  H   H40       1.0  0.1906251888233612  0.6834877005106961  0.3195199232395254  1.0000
  H   H41       1.0  0.8732272323931769  0.2942923982638206  0.5763765700527229  1.0000
  H   H42       1.0  0.1267729367740955  0.705707887770309  0.4236235598617454  1.0000
  H   H43       1.0  0.3530831520127293  0.370178307126693  0.6103499722847302  1.0000
  H   H44       1.0  0.6469179019930138  0.6298212121805307  0.3896504902922757  1.0000
  H   H45       1.0  0.8178200474129441  0.9527059612556386  0.015032032948234006  1.0000
  H   H46       1.0  0.18217932236952816  0.0472912477639014  0.9849688380483316  1.0000
  H   H47       1.0  0.2427716494164258  0.787206961191586  0.7530093412592721  1.0000
  H   H48       1.0  0.7572272400100531  0.21279255363990757  0.24698993827323085  1.0000
  H   H49       1.0  0.37296944507080815  0.7237270479033883  0.7773642269214776  1.0000
  H   H50       1.0  0.6270322076751925  0.276274779068487  0.22263582788737316  1.0000
  H   H51       1.0  0.24870819133645483  0.7803798178564206  0.8550549954581682  1.0000
  H   H52       1.0  0.7512930665072304  0.21962047118591238  0.14494454163126136  1.0000
  H   H53       1.0  0.1546968936058946  0.22415068352047735  0.6008146603918333  1.0000
  H   H54       1.0  0.8453027728516674  0.7758519056294232  0.39918802327410663  1.0000
  C   C1        1.0  0.03507188243814598  0.820621306773667  0.0762820971051497  1.0000
  C   C2        1.0  0.9649287734718969  0.17937667421884376  0.923718439926084  1.0000
  C   C3        1.0  0.5290422042260589  0.28352122429107135  0.6007221372061692  1.0000
  C   C4        1.0  0.4709590536176265  0.7164790647512619  0.3992773998832604  1.0000
  C   C5        1.0  0.5863125974350042  0.6647241735208025  0.6362934102285747  1.0000
  C   C6        1.0  0.413687383861273  0.33527534470405834  0.3637046843052403  1.0000
  C   C7        1.0  0.05692523782655459  0.4765440172360512  0.6232316346432185  1.0000
  C   C8        1.0  0.9430747338895599  0.5234554998333038  0.37676823641153584  1.0000
  C   C9        1.0  0.1567133488287454  0.5706042515234274  0.6610953272883933  1.0000
  C   C10       1.0  0.8432835670828567  0.4293960270267546  0.33890421240661783  1.0000
  C   C11       1.0  0.27587336152019765  0.6033978883675175  0.6113681974912026  1.0000
  C   C12       1.0  0.7241246398744182  0.39660239280571113  0.3886313415524113  1.0000
  C   C13       1.0  0.5566677514362368  0.18754676773298937  0.5928332745358205  1.0000
  C   C14       1.0  0.4433331178919103  0.8124519841501436  0.4071645604868903  1.0000
  C   C15       1.0  0.6866812086731429  0.8193007853689167  0.6167190921424393  1.0000
  C   C16       1.0  0.3133180628821038  0.18070026585144214  0.3832830738040798  1.0000
  C   C17       1.0  0.15041189323032  0.6368533533756489  0.7486344163080004  1.0000
  C   C18       1.0  0.8495852169390476  0.3631476937541365  0.2513659744203665  1.0000
  C   C19       1.0  0.9473513883830267  0.45037302275736824  0.6735582330531854  1.0000
  C   C20       1.0  0.05264966562271671  0.5496264965498553  0.3264422295238205  1.0000
  C   C21       1.0  0.5684430174828989  0.741001460065277  0.6070929322319856  1.0000
  C   C22       1.0  0.43155517497609713  0.2589995893023768  0.39290805001863294  1.0000
  C   C23       1.0  0.4389759430889911  0.11145015104185059  0.5892882233544157  1.0000
  C   C24       1.0  0.5610231501754229  0.8885501335247453  0.4107101306905108  1.0000
  C   C25       1.0  0.04330582678350233  0.6078706669244269  0.7982741885623242  1.0000
  C   C26       1.0  0.9566934511585148  0.39213038506626663  0.2017267930368973  1.0000
  C   C27       1.0  0.7273916605841323  0.670141831796819  0.6715035396732532  1.0000
  C   C28       1.0  0.27260940619516566  0.3298576890510815  0.328494554209172  1.0000
  C   C29       1.0  0.9388628076776797  0.5160237648190318  0.7605884054033254  1.0000
  C   C30       1.0  0.06113864442377089  0.48397729280290486  0.23941198271946007  1.0000
  C   C31       1.0  0.839875201362922  0.749779192677799  0.6764955749694508  1.0000
  C   C32       1.0  0.16012605328737103  0.2502210959793628  0.3235045542936276  1.0000
  C   C33       1.0  0.06541495605058859  0.4027141885339488  0.5311517497124143  1.0000
  C   C34       1.0  0.9345852195034609  0.5972860982705155  0.4688471958547638  1.0000
  C   C35       1.0  0.041413419632583236  0.6739429200187955  0.892970529164323  1.0000
  C   C36       1.0  0.9585878318243178  0.3260573682531954  0.10703019227239709  1.0000
  C   C37       1.0  0.9527939639464338  0.8440867677496867  0.01913677142169946  1.0000
  C   C38       1.0  0.047204520997567605  0.15591120799675198  0.9808637669123285  1.0000
  C   C39       1.0  0.044374100592904045  0.8816803444096377  0.1640674485583346  1.0000
  C   C40       1.0  0.9556263578659812  0.11831686761810539  0.8359328296131849  1.0000
  C   C41       1.0  0.8972582726158936  0.9858989747312776  0.14445939040328423  1.0000
  C   C42       1.0  0.10274109397319361  0.014098233903091298  0.855542072766923  1.0000
  C   C43       1.0  0.8204202701800228  0.48778564127466945  0.8134921606556701  1.0000
  C   C44       1.0  0.17957990218064174  0.512214645144624  0.18650737708514947  1.0000
  C   C45       1.0  0.8365123407097246  0.35173057293225446  0.6340350793192755  1.0000
  C   C46       1.0  0.16348782845754778  0.648269713101868  0.36596505059519285  1.0000
  C   C47       1.0  0.3812452517678723  0.29728367257772  0.6040936775810907  1.0000
  C   C48       1.0  0.6187558086246555  0.702715847499846  0.39590560064861796  1.0000
  C   C49       1.0  0.8830530959300449  0.9299356660616879  0.05566002246643359  1.0000
  C   C50       1.0  0.11694538262717911  0.07006230891441588  0.9443417002148848  1.0000
  C   C51       1.0  0.25876226483545384  0.7369069149507437  0.7861708904240386  1.0000
  C   C52       1.0  0.7412375126228882  0.2630918335390077  0.21382812959735986  1.0000
  C   C53       1.0  0.27068406655282473  0.21642274013962753  0.5989590405132147  1.0000
  C   C54       1.0  0.7293164975167629  0.7835790838240368  0.40104160712068176  1.0000
  S   S1        1.0  0.9331544504795559  0.7739784981055281  0.9073635086531127  1.0000
  S   S2        1.0  0.06684680097735202  0.2260217901664703  0.09263721278360748  1.0000
  S   S3        1.0  0.6672259178074215  0.3849819136405229  0.6046529693007656  1.0000
  S   S4        1.0  0.33277405710208546  0.615017603814003  0.39534630958033995  1.0000
  S   S5        1.0  0.4457553913597536  0.565701023027202  0.6339976440706252  1.0000
  S   S6        1.0  0.5542440936135906  0.4343007990837717  0.3660018198673711  1.0000
  I   I1        1.0  0.8870813746436567  0.0715339760196869  0.6104765347982876  1.0000
  I   I2        1.0  0.11292027490895148  0.9284678505670171  0.38952411218420474  1.0000
  I   I3        1.0  0.2228019283656693  0.8694205871154281  0.6132915588762131  1.0000
  I   I4        1.0  0.7771982439949952  0.13057969930386548  0.3867079788646066  1.0000
  N   N1        1.0  0.9771072652847439  0.9635084251023824  0.19943946901894788  1.0000
  N   N2        1.0  0.022893189980749202  0.0364887865401897  0.8005614013262202  1.0000
  N   N3        1.0  0.8216032731093038  0.8252507992323005  0.6508006521330785  1.0000
  N   N4        1.0  0.1783979815409893  0.1747494894248617  0.34919947712999283  1.0000
  N   N5        1.0  0.29714373648963743  0.12398104689226126  0.5914189246667262  1.0000
  N   N6        1.0  0.7028544559693587  0.8760200024753926  0.40858205758389227  1.0000
