data_image0
_chemical_formula_structural       Cu4H32C36S4N12O12
_chemical_formula_sum              "Cu4 H32 C36 S4 N12 O12"
_cell_length_a       9.302690315374992
_cell_length_b       10.51677765593362
_cell_length_c       12.365930030321541
_cell_angle_alpha    85.00789878943317
_cell_angle_beta     78.61540312539967
_cell_angle_gamma    63.745732356157646

_space_group_name_H-M_alt    "P 1"
_space_group_IT_number       1

loop_
  _space_group_symop_operation_xyz
  'x, y, z'

loop_
  _atom_site_type_symbol
  _atom_site_label
  _atom_site_symmetry_multiplicity
  _atom_site_fract_x
  _atom_site_fract_y
  _atom_site_fract_z
  _atom_site_occupancy
  Cu  Cu1       1.0  0.36652928319146133  0.16199294777838696  0.5272469409854921  1.0000
  Cu  Cu2       1.0  0.47139546407312594  0.1620143346333549  0.9727983933011259  1.0000
  Cu  Cu3       1.0  0.6334736694296482  0.8380090671427494  0.47276022034625953  1.0000
  Cu  Cu4       1.0  0.5286052718687275  0.8379876789378713  0.027201823241121265  1.0000
  H   H1        1.0  0.2004334713613574  0.1473759027806523  0.7542577699716945  1.0000
  H   H2        1.0  0.6519802641132844  0.14732434476658088  0.7457618451485291  1.0000
  H   H3        1.0  0.7995660930597384  0.8526218699211086  0.24574213220092392  1.0000
  H   H4        1.0  0.3480193752587014  0.8526776688851566  0.25423853621499864  1.0000
  H   H5        1.0  0.3194426850311487  0.7005635033201684  0.8042173807612372  1.0000
  H   H6        1.0  0.980358485691596  0.700596844979671  0.6957779153755227  1.0000
  H   H7        1.0  0.6805606966851557  0.29943320873641  0.19578121853649585  1.0000
  H   H8        1.0  0.019637289755486672  0.29940410825468416  0.3042207003216362  1.0000
  H   H9        1.0  0.5146509539360979  0.6615771992686204  0.6289257987070729  1.0000
  H   H10       1.0  0.8240628982490108  0.6616027964146198  0.870988415283918  1.0000
  H   H11       1.0  0.48535190542561685  0.33842057352737237  0.3710752255421568  1.0000
  H   H12       1.0  0.17593397899894822  0.33839815707498383  0.12901165213241234  1.0000
  H   H13       1.0  0.1291932400677922  0.16176495582514144  0.9328575584549342  1.0000
  H   H14       1.0  0.7090406827985518  0.16179810661765254  0.5672959364846336  1.0000
  H   H15       1.0  0.8708052277834354  0.8382328169571309  0.06714250853896427  1.0000
  H   H16       1.0  0.29095786000355867  0.8382039071145897  0.43270460970017416  1.0000
  H   H17       1.0  0.07508610111234051  0.7793927677250779  0.8987994359736363  1.0000
  H   H18       1.0  0.14565780510586998  0.7794275763929405  0.6010961614718867  1.0000
  H   H19       1.0  0.9249134659242559  0.22060500514457002  0.1012012744692115  1.0000
  H   H20       1.0  0.8543407015285497  0.2205723169482567  0.39890454925258473  1.0000
  H   H21       1.0  0.7736520927269768  0.3772323683196318  0.6516415395254356  1.0000
  H   H22       1.0  0.8492022356422311  0.37712480871498844  0.8483132994310197  1.0000
  H   H23       1.0  0.22635401233015562  0.6227632833401485  0.34835672998891454  1.0000
  H   H24       1.0  0.15080068820836354  0.6228772043594546  0.1516849709282013  1.0000
  H   H25       1.0  0.7738337582615029  0.47684977886758173  0.5281017321586959  1.0000
  H   H26       1.0  0.7493052283129842  0.47671828840459796  0.971905054817974  1.0000
  H   H27       1.0  0.22616587587948095  0.5231522344483892  0.4718970326643799  1.0000
  H   H28       1.0  0.2506943748913032  0.5232816048560877  0.028095491085217392  1.0000
  H   H29       1.0  0.8216621209423423  0.5247679898829104  0.6488134049836205  1.0000
  H   H30       1.0  0.653624519703975  0.524676131679932  0.8511921056809229  1.0000
  H   H31       1.0  0.17833698299754266  0.47523508366883505  0.3511853599802635  1.0000
  H   H32       1.0  0.3463740566503263  0.47532800227547534  0.1488074676939988  1.0000
  C   C1        1.0  0.2680838600273105  0.0351260435243574  0.7333995263075224  1.0000
  C   C2        1.0  0.6966771175039242  0.0350883608651813  0.766600693341843  1.0000
  C   C3        1.0  0.7319184329656214  0.9648706691163648  0.266601662622179  1.0000
  C   C4        1.0  0.3033208589294035  0.9649125927117908  0.23340001752343653  1.0000
  C   C5        1.0  0.23932090816604282  0.9301361620394392  0.8001498378745353  1.0000
  C   C6        1.0  0.8306394130542291  0.930148690585753  0.6998725415246269  1.0000
  C   C7        1.0  0.7606792252393361  0.0698626709854722  0.19985070788784043  1.0000
  C   C8        1.0  0.16935799439481508  0.0698512026680689  0.3001275257508951  1.0000
  C   C9        1.0  0.3312889405034412  0.7911110592438249  0.7608646083855461  1.0000
  C   C10       1.0  0.877869360957547  0.7911417966132459  0.7391177961322057  1.0000
  C   C11       1.0  0.6687100963320632  0.20888777386159765  0.23913610219810982  1.0000
  C   C12       1.0  0.12212751629041217  0.20885915687635756  0.2608822712841317  1.0000
  C   C13       1.0  0.4423393848735769  0.7678397889571755  0.662964598748097  1.0000
  C   C14       1.0  0.7900360636138615  0.7678453856515972  0.8369712485584202  1.0000
  C   C15       1.0  0.5576612761173935  0.23215798366408077  0.337035138603234  1.0000
  C   C16       1.0  0.2099624404050573  0.23215450752172023  0.1630286538958217  1.0000
  C   C17       1.0  0.11717729728930938  0.9664874919557893  0.9018961259817929  1.0000
  C   C18       1.0  0.9164145188668087  0.9665295347722703  0.598135418663162  1.0000
  C   C19       1.0  0.8828206068086287  0.03350922083909319  0.09810491396280703  1.0000
  C   C20       1.0  0.08358236099664401  0.0334714188852132  0.4018654570234048  1.0000
  C   C21       1.0  0.0715898045852015  0.09120326032777369  0.9607546170320802  1.0000
  C   C22       1.0  0.8372141538079702  0.0912328709277404  0.5393452299455035  1.0000
  C   C23       1.0  0.9284086632660191  0.9087945124544987  0.03924544996181821  1.0000
  C   C24       1.0  0.16278272605548952  0.9087680827297433  0.4606556457410634  1.0000
  C   C25       1.0  0.04358343574358518  0.8761879967621767  0.9427794041804632  1.0000
  C   C26       1.0  0.08031485185200175  0.8762165635586641  0.5571654542719529  1.0000
  C   C27       1.0  0.9564139381532683  0.1238097762684873  0.05722163590494494  1.0000
  C   C28       1.0  0.9196825555970419  0.1237833296951649  0.44283461300356924  1.0000
  C   C29       1.0  0.003499856891402034  0.3479371339881041  0.5644593218029287  1.0000
  C   C30       1.0  0.6485877782642789  0.3478534350787826  0.9354052738628056  1.0000
  C   C31       1.0  0.996506340975806  0.6520648778375246  0.4355336044710683  1.0000
  C   C32       1.0  0.35141238607778996  0.6521475180014136  0.06459349081945483  1.0000
  C   C33       1.0  0.8335755760872064  0.43687423497630096  0.6004853306816715  1.0000
  C   C34       1.0  0.7295909102671062  0.43675204424504677  0.8994709264749617  1.0000
  C   C35       1.0  0.16642515200814492  0.5631277780912785  0.3995124610498878  1.0000
  C   C36       1.0  0.27040925407496275  0.5632489088351491  0.10052783820729873  1.0000
  S   S1        1.0  0.38335499397910416  0.42168936053878525  0.6801562556656436  1.0000
  S   S2        1.0  0.1949082630042512  0.4216637841187988  0.8198192028182734  1.0000
  S   S3        1.0  0.6166430212374153  0.5783137135971188  0.31984509893020885  1.0000
  S   S4        1.0  0.8050908099989514  0.5783371693776687  0.18018134322572618  1.0000
  N   N1        1.0  0.37593632858721543  0.0078300587601561  0.6392565140345781  1.0000
  N   N2        1.0  0.6161471023437813  0.0077896215241751  0.860725240470991  1.0000
  N   N3        1.0  0.6240676273443738  0.9921677139553324  0.3607443453933714  1.0000
  N   N4        1.0  0.38385250086051315  0.9922102717365104  0.13927530543219294  1.0000
  N   N5        1.0  0.4671179387972516  0.8722574963449646  0.6039487835410072  1.0000
  N   N6        1.0  0.6607106833355091  0.8722252152494859  0.8960079002314458  1.0000
  N   N7        1.0  0.5328859809666396  0.127738155979479  0.39605224042660586  1.0000
  N   N8        1.0  0.33928730094432785  0.1277757388311329  0.10399523544452192  1.0000
  N   N9        1.0  0.1416149824880861  0.2767976413906866  0.5352473960235642  1.0000
  N   N10       1.0  0.581574432969525  0.27677716015776344  0.9646850089155593  1.0000
  N   N11       1.0  0.8583787675802055  0.7232139131205102  0.4647466852667179  1.0000
  N   N12       1.0  0.4184290210821615  0.7232237926808978  0.03531326130285349  1.0000
  O   O1        1.0  0.4422756398765983  0.2855572482189145  0.6223654576732685  1.0000
  O   O2        1.0  0.2721897770028719  0.2855591461949912  0.8775402015693459  1.0000
  O   O3        1.0  0.5577272944360061  0.7144447655270554  0.3776360457668773  1.0000
  O   O4        1.0  0.7278103899546977  0.7144418070530847  0.12245937138314389  1.0000
  O   O5        1.0  0.2953344335347624  0.5471136841488614  0.6164794438390473  1.0000
  O   O6        1.0  0.157385616466364  0.5470806601038588  0.8835900857115179  1.0000
  O   O7        1.0  0.7046657360383153  0.45288726926709433  0.38352093738367193  1.0000
  O   O8        1.0  0.8426128901680485  0.45291923323733824  0.11641062501295354  1.0000
  O   O9        1.0  0.5094672941670099  0.43009551103626364  0.7299011764944298  1.0000
  O   O10       1.0  0.06047023455271734  0.4300135854971856  0.7700183183867608  1.0000
  O   O11       1.0  0.4905312874182925  0.5699086232549107  0.27010001342095785  1.0000
  O   O12       1.0  0.9395293660360765  0.5699863075956201  0.22998141924620089  1.0000
