data_image0
_chemical_formula_structural       Zn4H68C96N20O16
_chemical_formula_sum              "Zn4 H68 C96 N20 O16"
_cell_length_a       21.54978899495614
_cell_length_b       21.562005250982015
_cell_length_c       21.961455821221193
_cell_angle_alpha    60.65584671157585
_cell_angle_beta     63.3706254528602
_cell_angle_gamma    89.99141055295073

_space_group_name_H-M_alt    "P 1"
_space_group_IT_number       1

loop_
  _space_group_symop_operation_xyz
  'x, y, z'

loop_
  _atom_site_type_symbol
  _atom_site_label
  _atom_site_symmetry_multiplicity
  _atom_site_fract_x
  _atom_site_fract_y
  _atom_site_fract_z
  _atom_site_occupancy
  Zn  Zn1       1.0  0.5405801928999594  0.04394452093737299  0.9109377829912899  1.0000
  Zn  Zn2       1.0  0.45836898310813706  0.9541126811682826  0.09085485926814153  1.0000
  Zn  Zn3       1.0  0.9594547068251058  0.4565402411145669  0.08690241695829566  1.0000
  Zn  Zn4       1.0  0.04100588864501731  0.544106341102342  0.9116495475626466  1.0000
  H   H1        1.0  0.8099266518108335  0.38716666112959075  0.2171619198249671  1.0000
  H   H2        1.0  0.7355023340748232  0.317305306091761  0.36816469285374614  1.0000
  H   H3        1.0  0.5720654356860492  0.19346765616376158  0.6241469804434772  1.0000
  H   H4        1.0  0.7720499257444258  0.18813800452302587  0.6260708256014523  1.0000
  H   H5        1.0  0.8203528266811586  0.2485368551302756  0.5021860440533387  1.0000
  H   H6        1.0  0.6807746684364416  0.2601860139842884  0.49757637043067854  1.0000
  H   H7        1.0  0.1902631349362522  0.605166531001707  0.7824411654952427  1.0000
  H   H8        1.0  0.26461997112240004  0.686786018196763  0.631539351625527  1.0000
  H   H9        1.0  0.42799383319876233  0.8156825530338024  0.37649905710814824  1.0000
  H   H10       1.0  0.22789059012608698  0.8154581706722225  0.37487649035864473  1.0000
  H   H11       1.0  0.1799683104267089  0.751507020604137  0.4975434449810265  1.0000
  H   H12       1.0  0.3191292437271969  0.7572250054703034  0.5031839886579803  1.0000
  H   H13       1.0  0.5766609559943133  0.0743772581531772  0.1299432386996456  1.0000
  H   H14       1.0  0.6121167941198776  0.10499898825717925  0.20670120958357777  1.0000
  H   H15       1.0  0.6952965226551057  0.20350237238174876  0.8699541045093468  1.0000
  H   H16       1.0  0.9181789076762141  0.42677654682683647  0.8715812945411302  1.0000
  H   H17       1.0  0.8841161785821469  0.3949103256100556  0.7946680807010724  1.0000
  H   H18       1.0  0.7994988184156921  0.29746533521160495  0.13154173499849248  1.0000
  H   H19       1.0  0.303897173964998  0.7937461790399069  0.13024408176787006  1.0000
  H   H20       1.0  0.19847542550636632  0.6862314249693924  0.20561652590173196  1.0000
  H   H21       1.0  0.42347275782154264  0.9261913614691223  0.8702654945557241  1.0000
  H   H22       1.0  0.20150485272942117  0.7039962976061885  0.8669155982825956  1.0000
  H   H23       1.0  0.3052211244936487  0.8125532862259134  0.7917050864604676  1.0000
  H   H24       1.0  0.08067881597799702  0.5723602364850108  0.12672028500751506  1.0000
  H   H25       1.0  0.2989148437188333  0.07141893795876088  0.13220421329388904  1.0000
  H   H26       1.0  0.19490272839070844  0.10527652975808617  0.20675537668871866  1.0000
  H   H27       1.0  0.42068270474562997  0.19825973668442737  0.8722086642771885  1.0000
  H   H28       1.0  0.19976857999886016  0.42506406671084557  0.866136338849131  1.0000
  H   H29       1.0  0.30501550403789673  0.39260254470530487  0.7918508539493915  1.0000
  H   H30       1.0  0.07805249426859719  0.2984901361255367  0.1260039577812648  1.0000
  H   H31       1.0  0.5789320441143387  0.796168952440837  0.13173741507246442  1.0000
  H   H32       1.0  0.6131910790010764  0.6876072988378895  0.2076845735649113  1.0000
  H   H33       1.0  0.6968551131940826  0.9280554588825112  0.8716517358732574  1.0000
  H   H34       1.0  0.9220125154765596  0.7050843527610622  0.8710858450250502  1.0000
  H   H35       1.0  0.8853671327025835  0.8118846891760539  0.7947467954457391  1.0000
  H   H36       1.0  0.8031865690037348  0.572998073413764  0.1307494049372054  1.0000
  H   H37       1.0  0.041522200476436025  0.40749322837012153  0.151531806407057  1.0000
  H   H38       1.0  0.044279492740415136  0.40750891651469356  0.22844008856819895  1.0000
  H   H39       1.0  0.9214800163635741  0.2804212787131418  0.43726915034657315  1.0000
  H   H40       1.0  0.9939749777287613  0.3070826401882272  0.3459628931413901  1.0000
  H   H41       1.0  0.6795998829844194  0.09133856017678  0.8442367072759466  1.0000
  H   H42       1.0  0.7608348730745644  0.12562418765594427  0.7542179507484336  1.0000
  H   H43       1.0  0.46326353491650696  0.06293769268473429  0.8434294734891025  1.0000
  H   H44       1.0  0.46431507852352627  0.12164419557040415  0.7534084602039998  1.0000
  H   H45       1.0  0.9580938430203928  0.5602748134359815  0.8478523805134018  1.0000
  H   H46       1.0  0.9562518055791712  0.6367014039741362  0.769310259356935  1.0000
  H   H47       1.0  0.07904044934882393  0.7180669903734511  0.5622075164109858  1.0000
  H   H48       1.0  0.007319997924014462  0.6517364396217644  0.6526849670063654  1.0000
  H   H49       1.0  0.3196611754407214  0.9370261539756154  0.15732658368682453  1.0000
  H   H50       1.0  0.23883753832248544  0.8831913036546268  0.2476632659893454  1.0000
  H   H51       1.0  0.5362113306118769  0.9034922414949018  0.1576070983578648  1.0000
  H   H52       1.0  0.5348529469690531  0.869706716219781  0.2479261412413224  1.0000
  H   H53       1.0  0.7316663423122305  0.2006424551209989  0.2262853383813948  1.0000
  H   H54       1.0  0.6559951781221185  0.13233732994799396  0.27580603159682937  1.0000
  H   H55       1.0  0.7857628808820535  0.2780303569412865  0.7743873506076326  1.0000
  H   H56       1.0  0.853891753351263  0.3543119968764045  0.7251974468650461  1.0000
  H   H57       1.0  0.060321410477165174  0.5755079563816988  0.22283927982020665  1.0000
  H   H58       1.0  0.09249754858817742  0.5904623508365106  0.27301140571012167  1.0000
  H   H59       1.0  0.42053222677553487  0.9486005197370556  0.7742201174385528  1.0000
  H   H60       1.0  0.39840799984510505  0.9221193675833989  0.7239528963918785  1.0000
  H   H61       1.0  0.08129756748842712  0.225673492463315  0.2225792468093388  1.0000
  H   H62       1.0  0.10240287896904479  0.14833878879635876  0.2735326267515816  1.0000
  H   H63       1.0  0.4410963111998781  0.295423196622174  0.7761970212177971  1.0000
  H   H64       1.0  0.4117246970753071  0.363905356180929  0.7253314584303466  1.0000
  H   H65       1.0  0.7111868254130795  0.5504708963116158  0.22621779252024488  1.0000
  H   H66       1.0  0.6433838317096842  0.5774623192399986  0.2760276899968659  1.0000
  H   H67       1.0  0.7643030432952286  0.9252706284328697  0.7765578560412223  1.0000
  H   H68       1.0  0.8397096686478064  0.9064760586908628  0.7266969420248726  1.0000
  C   C1        1.0  0.41501759722608267  0.913959200027733  0.0002758533593904752  1.0000
  C   C2        1.0  0.41350014584532596  0.08319564855930389  0.0014068031827675375  1.0000
  C   C3        1.0  0.5846197194862696  0.08519101482210087  0.9997179994108976  1.0000
  C   C4        1.0  0.5852530921637963  0.9148205270786602  0.0005942390893949839  1.0000
  C   C5        1.0  0.08776491007964181  0.41616967993243037  0.9948701357752512  1.0000
  C   C6        1.0  0.08782975429623725  0.5856771386247247  0.9968722834555876  1.0000
  C   C7        1.0  0.9140047385061221  0.5847557053024415  0.0019091122559018157  1.0000
  C   C8        1.0  0.9109347036385599  0.41323239849986476  0.003985905378399834  1.0000
  C   C9        1.0  0.8347099520686212  0.37019975794832755  0.2544453498491777  1.0000
  C   C10       1.0  0.7942481801382468  0.33199629242920986  0.3380288893299835  1.0000
  C   C11       1.0  0.828605772906023  0.3107515039517779  0.384325155575212  1.0000
  C   C12       1.0  0.904894179530295  0.33145248919068127  0.3407833780866411  1.0000
  C   C13       1.0  0.9430780004334733  0.37083339016448486  0.2538804135410828  1.0000
  C   C14       1.0  0.7883816339386696  0.26652174548878077  0.472841775535379  1.0000
  C   C15       1.0  0.715737807977369  0.2438481593820469  0.5232248245579427  1.0000
  C   C16       1.0  0.602048527870238  0.17621896417595195  0.6558209715430863  1.0000
  C   C17       1.0  0.6777600448869873  0.19753091242386484  0.6121012829276467  1.0000
  C   C18       1.0  0.7132840776386331  0.17298482351757366  0.6561674277164543  1.0000
  C   C19       1.0  0.6727493656093413  0.129206052419427  0.7415561661471557  1.0000
  C   C20       1.0  0.5638984857899841  0.13049446682925486  0.7415326180072058  1.0000
  C   C21       1.0  0.1654785328929904  0.6253932913129032  0.7451748510970405  1.0000
  C   C22       1.0  0.20589004464800809  0.6709505942954691  0.6617127506977596  1.0000
  C   C23       1.0  0.17140944710538972  0.69569378881188  0.6155436306325016  1.0000
  C   C24       1.0  0.09523699139842287  0.6727069242226663  0.658848133428826  1.0000
  C   C25       1.0  0.05704349483217906  0.6254173449828074  0.7456912765501115  1.0000
  C   C26       1.0  0.21169962369753387  0.7398439059671201  0.5271759295225992  1.0000
  C   C27       1.0  0.2843672790268457  0.7669811227987677  0.4772693153547323  1.0000
  C   C28       1.0  0.39798863912830734  0.8307257100661685  0.3448440726989972  1.0000
  C   C29       1.0  0.32234645358993663  0.8093735486956674  0.3885208922460563  1.0000
  C   C30       1.0  0.28664498795718873  0.8296918916360239  0.34465990844373817  1.0000
  C   C31       1.0  0.3269481629340305  0.8712135306313298  0.2593789702143639  1.0000
  C   C32       1.0  0.4359983533879514  0.870678767955873  0.2591935927808321  1.0000
  C   C33       1.0  0.6216052370849211  0.12103647574180339  0.07341392026807363  1.0000
  C   C34       1.0  0.6669363730578295  0.1661832900866571  0.07510741294339594  1.0000
  C   C35       1.0  0.6566262876273113  0.1522372339810545  0.14998487176917033  1.0000
  C   C36       1.0  0.6899851896203586  0.19450899127992466  0.9256144493887605  1.0000
  C   C37       1.0  0.7362878500217743  0.24149495164226645  0.9241698812574626  1.0000
  C   C38       1.0  0.7955188961337426  0.3040440776361919  0.8487603888239263  1.0000
  C   C39       1.0  0.873628835063293  0.37981205953710157  0.9282374258053352  1.0000
  C   C40       1.0  0.8286639590508287  0.33447840566498843  0.9262929496821498  1.0000
  C   C41       1.0  0.8394177940311776  0.347875753386475  0.8514330738233866  1.0000
  C   C42       1.0  0.8058382100794715  0.3052978819414206  0.0759576417580589  1.0000
  C   C43       1.0  0.7595201746387373  0.25870471871871803  0.07712030609015114  1.0000
  C   C44       1.0  0.7006152108825248  0.1960141950048281  0.15258663386831717  1.0000
  C   C45       1.0  0.6332755596362745  0.134754671243499  0.9995429278918024  1.0000
  C   C46       1.0  0.7251098186783692  0.22731776864937803  0.9996909916791095  1.0000
  C   C47       1.0  0.8624173513569031  0.3652258471130523  0.0023026257808424484  1.0000
  C   C48       1.0  0.7707040032867025  0.2730563092364234  0.0015586775921362082  1.0000
  C   C49       1.0  0.3110030230295066  0.8040688007438346  0.07334569378242145  1.0000
  C   C50       1.0  0.264611627635027  0.7575801079423384  0.07410812901012774  1.0000
  C   C51       1.0  0.20629091236872196  0.6963696170268888  0.14842559027530913  1.0000
  C   C52       1.0  0.378012675846783  0.8793089132217347  0.9255471085935485  1.0000
  C   C53       1.0  0.3335405003068955  0.8341970809200631  0.9231893016469004  1.0000
  C   C54       1.0  0.3437447249148633  0.8480382314135253  0.8471956456888421  1.0000
  C   C55       1.0  0.1937909260162911  0.6939923360493552  0.923895097336498  1.0000
  C   C56       1.0  0.2401315485042232  0.7405062805995327  0.9231408790008118  1.0000
  C   C57       1.0  0.2978349774237969  0.8021134193452609  0.8488337724057474  1.0000
  C   C58       1.0  0.1255886261957073  0.6198811564985717  0.07154676308049093  1.0000
  C   C59       1.0  0.1706025121962398  0.6644340124628341  0.07394194461436142  1.0000
  C   C60       1.0  0.1601383416885369  0.6508421557296487  0.14991100860313375  1.0000
  C   C61       1.0  0.36676433097041883  0.8645748691842597  0.9998424568083948  1.0000
  C   C62       1.0  0.27572567451635877  0.7726049038393082  0.9982370629386853  1.0000
  C   C63       1.0  0.13703224541233544  0.6344744364033942  0.997223698333727  1.0000
  C   C64       1.0  0.22874664435352096  0.7257184724441927  0.9989972325801728  1.0000
  C   C65       1.0  0.30682499527425466  0.11792871255475748  0.07487976961532883  1.0000
  C   C66       1.0  0.26066058846326706  0.16394107063419477  0.07530162698809309  1.0000
  C   C67       1.0  0.20278859579555325  0.15187774030398055  0.14930204876957737  1.0000
  C   C68       1.0  0.3758298531680209  0.19121716502296235  0.9270957051144818  1.0000
  C   C69       1.0  0.33105655317064725  0.23836825806650103  0.9243869906220255  1.0000
  C   C70       1.0  0.342326512703508  0.3008664796541042  0.8480998576170435  1.0000
  C   C71       1.0  0.1920810409617815  0.3786075079085336  0.9233322686610137  1.0000
  C   C72       1.0  0.23808687497638906  0.3325240151041057  0.9232218536167808  1.0000
  C   C73       1.0  0.2966261058551467  0.3453926872128362  0.8491850649608281  1.0000
  C   C74       1.0  0.12375317820668387  0.30645260659299106  0.07105867079985025  1.0000
  C   C75       1.0  0.16804765144515704  0.2587582358977798  0.07406561793330715  1.0000
  C   C76       1.0  0.15737736802535807  0.1967796425838984  0.15037356134171626  1.0000
  C   C77       1.0  0.3639216047439432  0.13164346380124667  0.001622389565454828  1.0000
  C   C78       1.0  0.2726782167601839  0.22503793094382016  0.9991529438210022  1.0000
  C   C79       1.0  0.13577926832450518  0.36596409999695806  0.9963610272342152  1.0000
  C   C80       1.0  0.22614951196182176  0.2716443151062293  0.9994129719486864  1.0000
  C   C81       1.0  0.6236750166276437  0.8064928525993764  0.07477772734400645  1.0000
  C   C82       1.0  0.6689798922668543  0.7596182911413647  0.07614780946836679  1.0000
  C   C83       1.0  0.6582245550983287  0.6979230802326625  0.15073399244653268  1.0000
  C   C84       1.0  0.6908604984143807  0.8802090151979555  0.9269528395986767  1.0000
  C   C85       1.0  0.7376932550214548  0.8352118750119216  0.9252430300987482  1.0000
  C   C86       1.0  0.7964954987840968  0.8480879370249212  0.8495650490280299  1.0000
  C   C87       1.0  0.8767091323315126  0.6946250714947978  0.9278019722423423  1.0000
  C   C88       1.0  0.8311195931046098  0.7412584547205155  0.9263434641671893  1.0000
  C   C89       1.0  0.8409374947505697  0.8021511668771028  0.8517249614029929  1.0000
  C   C90       1.0  0.8084390380691386  0.6200634774767264  0.07544231688721238  1.0000
  C   C91       1.0  0.7618381837058763  0.6652454004257391  0.07718266594945776  1.0000
  C   C92       1.0  0.7022550119653771  0.6515585799372091  0.1528992112468755  1.0000
  C   C93       1.0  0.6343479658738644  0.865903833665122  0.0010795351281416969  1.0000
  C   C94       1.0  0.7269803596112394  0.7740280673476433  0.0005127550615285077  1.0000
  C   C95       1.0  0.8652997729384138  0.6344534723472178  0.0014949938708923249  1.0000
  C   C96       1.0  0.7728944917926269  0.7267295084571259  0.0019021264823633531  1.0000
  N   N1        1.0  0.9081813955651723  0.38998041784886067  0.2126227440080514  1.0000
  N   N2        1.0  0.5987898849820539  0.1078521467169153  0.7840437591324868  1.0000
  N   N3        1.0  0.09201345208958142  0.6032351169551688  0.7868729472644063  1.0000
  N   N4        1.0  0.4009215988436878  0.8914379917724986  0.2168366528926382  1.0000
  N   N5        1.0  0.017239525348472333  0.3849256983557083  0.21290880281767943  1.0000
  N   N6        1.0  0.9472377512303679  0.316883236434748  0.37614039273115185  1.0000
  N   N7        1.0  0.7064702469700348  0.10498429663552136  0.7853697874619241  1.0000
  N   N8        1.0  0.4903150862603525  0.10833522549899748  0.7847174073942824  1.0000
  N   N9        1.0  0.9830743892122911  0.5990400122849877  0.7864946685408895  1.0000
  N   N10       1.0  0.05277072376497936  0.6929367652960038  0.6234689475741534  1.0000
  N   N11       1.0  0.2928235943038615  0.8914416358533329  0.2159334227246957  1.0000
  N   N12       1.0  0.5095917944313298  0.8909252824713004  0.21610101994770764  1.0000
  N   N13       1.0  0.6880667203970388  0.18337555610705894  0.22606462452014853  1.0000
  N   N14       1.0  0.8049265466822957  0.3204279214499976  0.7750807840422738  1.0000
  N   N15       1.0  0.1050920756744347  0.5896954194561701  0.22304066199964712  1.0000
  N   N16       1.0  0.4016189217622141  0.9057209274273035  0.7740445771288333  1.0000
  N   N17       1.0  0.0995923971708095  0.182180991909604  0.22320729562168398  1.0000
  N   N18       1.0  0.39757023060442975  0.3127023358824346  0.7752610251661167  1.0000
  N   N19       1.0  0.6925478168433015  0.5935968487841236  0.2262809685715581  1.0000
  N   N20       1.0  0.8084551441768039  0.9086497373175317  0.7761174115202676  1.0000
  O   O1        1.0  0.4539303856263572  0.9771874047194159  0.9335838874731195  1.0000
  O   O2        1.0  0.41442065287367297  0.8904660399418415  0.06600094967885894  1.0000
  O   O3        1.0  0.3923485822942324  0.020494422540082297  0.0680355922545601  1.0000
  O   O4        1.0  0.4731309745770245  0.10720244696320687  0.9355114901954307  1.0000
  O   O5        1.0  0.5252616429115446  0.04289164746068509  0.0654528279497697  1.0000
  O   O6        1.0  0.6065860858452792  0.088858192804814  0.9328913104547566  1.0000
  O   O7        1.0  0.5857845776810108  0.9564953654567743  0.9347011212215579  1.0000
  O   O8        1.0  0.5457363250064873  0.9113505083222221  0.06708904506987046  1.0000
  O   O9        1.0  0.04429103078877721  0.4090482687218184  0.06258181005173913  1.0000
  O   O10       1.0  0.09307658415779231  0.46214031148247864  0.9271277462580799  1.0000
  O   O11       1.0  0.10624351452278803  0.5946208222034314  0.928639779251114  1.0000
  O   O12       1.0  0.03136926279725573  0.53885084669335  0.065077361595698  1.0000
  O   O13       1.0  0.9702711479468673  0.605557567400119  0.9339559955287768  1.0000
  O   O14       1.0  0.8950475027073068  0.5252580998245904  0.07033014933844571  1.0000
  O   O15       1.0  0.9056591169551352  0.3909076010347475  0.07197958429015466  1.0000
  O   O16       1.0  0.9548171864662576  0.4734464277799049  0.9365925452439111  1.0000
