data_image0
_chemical_formula_structural       Zn4H44C56N8O28
_chemical_formula_sum              "Zn4 H44 C56 N8 O28"
_cell_length_a       8.141362646594283
_cell_length_b       12.434506394323675
_cell_length_c       14.586691215015149
_cell_angle_alpha    90.00004143547163
_cell_angle_beta     90.00014206305976
_cell_angle_gamma    107.28473768924233

_space_group_name_H-M_alt    "P 1"
_space_group_IT_number       1

loop_
  _space_group_symop_operation_xyz
  'x, y, z'

loop_
  _atom_site_type_symbol
  _atom_site_label
  _atom_site_symmetry_multiplicity
  _atom_site_fract_x
  _atom_site_fract_y
  _atom_site_fract_z
  _atom_site_occupancy
  Zn  Zn1       1.0  0.8191334532512967  0.3503356756395918  0.6688281674732438  1.0000
  Zn  Zn2       1.0  0.6808695597707767  0.6496669196261633  0.16882855178862147  1.0000
  Zn  Zn3       1.0  0.18086704101227002  0.6496651579307907  0.3311713950052493  1.0000
  Zn  Zn4       1.0  0.3191334071754071  0.3503339506917342  0.8311710106916124  1.0000
  H   H1        1.0  0.1508854770113999  0.3816447067870712  0.656420512205223  1.0000
  H   H2        1.0  0.34911635608977315  0.6183566257959824  0.15642179611979407  1.0000
  H   H3        1.0  0.849113070260195  0.6183544243116826  0.34357973582780243  1.0000
  H   H4        1.0  0.6508857298467278  0.3816450681992905  0.8435798230293869  1.0000
  H   H5        1.0  0.14018404331668669  0.4975036627371877  0.688047316882731  1.0000
  H   H6        1.0  0.3598188368290778  0.5024969041845537  0.18804648462932513  1.0000
  H   H7        1.0  0.8598169766393227  0.5024955051097135  0.3119536167084577  1.0000
  H   H8        1.0  0.6401832491056253  0.49750478981008667  0.8119544489634195  1.0000
  H   H9        1.0  0.3088869036916719  0.4309605420936933  0.5332755070177343  1.0000
  H   H10       1.0  0.1911204646279287  0.5690406564617303  0.03327722493988011  1.0000
  H   H11       1.0  0.691121719274001  0.5690420858183527  0.4667247410234269  1.0000
  H   H12       1.0  0.8088830280088928  0.430958548132068  0.9667230230966128  1.0000
  H   H13       1.0  0.37286098581150634  0.2703293743586102  0.28081248791222185  1.0000
  H   H14       1.0  0.12713672532003525  0.729669605138774  0.7808127655275501  1.0000
  H   H15       1.0  0.6271294327615777  0.7296679623997377  0.7191884456710086  1.0000
  H   H16       1.0  0.8728699506464749  0.2703313202991423  0.21918542584241152  1.0000
  H   H17       1.0  0.4966981362913855  0.1404994333583076  0.5379537815522966  1.0000
  H   H18       1.0  0.003299536218477692  0.859499119014181  0.03795473904015981  1.0000
  H   H19       1.0  0.503297582967761  0.8594988189424341  0.46204509536561034  1.0000
  H   H20       1.0  0.9966951170583728  0.14049660713756396  0.9620427667633396  1.0000
  H   H21       1.0  0.8089629804426578  0.12213751326388687  0.7166531894631731  1.0000
  H   H22       1.0  0.6910369299567592  0.8778659566606918  0.21665442001139476  1.0000
  H   H23       1.0  0.19104034183155244  0.8778641991038824  0.2833470585740018  1.0000
  H   H24       1.0  0.30896303862156316  0.12213654263567965  0.783346513580135  1.0000
  H   H25       1.0  0.915553913305999  0.9715932344254483  0.6576182152247867  1.0000
  H   H26       1.0  0.5844425038334577  0.028408406358906298  0.15761875200070824  1.0000
  H   H27       1.0  0.0844453446162561  0.028407580771172992  0.3423813472528466  1.0000
  H   H28       1.0  0.41555551775108746  0.9715923904652182  0.8423821815889242  1.0000
  H   H29       1.0  0.9920922353961998  0.14528179943934558  0.395994586088925  1.0000
  H   H30       1.0  0.5079128512235158  0.8547203888641376  0.8959947780707868  1.0000
  H   H31       1.0  0.00790543085852128  0.8547181553342679  0.6040049763873229  1.0000
  H   H32       1.0  0.4920920627182355  0.14528218392663914  0.10400546996777393  1.0000
  H   H33       1.0  0.767236606284534  0.3387255709125012  0.4622603765526706  1.0000
  H   H34       1.0  0.7327638828575899  0.6612766654551406  0.9622621283624683  1.0000
  H   H35       1.0  0.23276265163772075  0.6612752442841127  0.5377391859249628  1.0000
  H   H36       1.0  0.26723979474645887  0.3387258889631326  0.03773949078809121  1.0000
  H   H37       1.0  0.9107106961788105  0.31049222828051626  0.3799374797246387  1.0000
  H   H38       1.0  0.589292188791198  0.6895107358708472  0.8799390499947963  1.0000
  H   H39       1.0  0.08929015341278297  0.6895094473397307  0.6200627683108024  1.0000
  H   H40       1.0  0.4107139614954605  0.3104918552949413  0.12006256915750411  1.0000
  H   H41       1.0  0.9904787736466927  0.39796368257808007  0.47639946678774703  1.0000
  H   H42       1.0  0.5095209087071311  0.6020394034014344  0.9764008698793706  1.0000
  H   H43       1.0  0.009521365296038115  0.6020363089449389  0.5236021523595299  1.0000
  H   H44       1.0  0.4904822432098683  0.3979648167421956  0.023601434827796208  1.0000
  C   C1        1.0  0.4184643442320279  0.29061040570689295  0.6494561013672354  1.0000
  C   C2        1.0  0.0815383333214896  0.7093900904248968  0.14945707135049702  1.0000
  C   C3        1.0  0.5815363203941503  0.7093879200895117  0.3505434611105756  1.0000
  C   C4        1.0  0.9184633972797869  0.29061076151798904  0.8505411200160041  1.0000
  C   C5        1.0  0.40164780478602313  0.28529543804977203  0.5469132989227887  1.0000
  C   C6        1.0  0.09835345341931391  0.7147056936526892  0.046913610164764905  1.0000
  C   C7        1.0  0.5983518084660702  0.7147062191973532  0.45308763466822216  1.0000
  C   C8        1.0  0.9016484475427687  0.2852926505155864  0.9530838956446106  1.0000
  C   C9        1.0  0.3447306733642533  0.3642663731806052  0.49764988494519014  1.0000
  C   C10       1.0  0.15527347681803857  0.6357339196275262  0.9976508269540221  1.0000
  C   C11       1.0  0.6552742405757  0.6357361996095391  0.5023496775369409  1.0000
  C   C12       1.0  0.8447284241458418  0.3642644245413748  0.002347364411782801  1.0000
  C   C13       1.0  0.33403780870501976  0.35906584738911806  0.40192014663067255  1.0000
  C   C14       1.0  0.16596265558003856  0.6409325489673208  0.9019217924130204  1.0000
  C   C15       1.0  0.6659591468972363  0.64093242328601  0.5980794158445377  1.0000
  C   C16       1.0  0.8340396007118757  0.35906663725145904  0.09807708450973963  1.0000
  C   C17       1.0  0.3806430672016461  0.274696713429762  0.355070596449302  1.0000
  C   C18       1.0  0.11935520413605616  0.7252998945131139  0.8550715459862916  1.0000
  C   C19       1.0  0.6193499944166587  0.72529815230213  0.644930337134973  1.0000
  C   C20       1.0  0.8806477628083228  0.2747009758041513  0.14492733093749882  1.0000
  C   C21       1.0  0.43926321615716557  0.19817771705773168  0.40501545549361145  1.0000
  C   C22       1.0  0.06073479169138805  0.8018206482279095  0.9050156870263351  1.0000
  C   C23       1.0  0.5607289644478681  0.8018179723502707  0.5949861636467446  1.0000
  C   C24       1.0  0.9392657025685764  0.1981801853412079  0.09498250433929203  1.0000
  C   C25       1.0  0.4507965539767794  0.2015239024116227  0.5004085855889855  1.0000
  C   C26       1.0  0.04920127675021031  0.7984754231360822  0.0004081966612972001  1.0000
  C   C27       1.0  0.5491998759438275  0.7984760339907452  0.49959371911212713  1.0000
  C   C28       1.0  0.9507953235240051  0.20152200548917418  0.9995906802569581  1.0000
  C   C29       1.0  0.2721949695212373  0.44167547978342003  0.3465655614857114  1.0000
  C   C30       1.0  0.22780926851239508  0.5583237122012861  0.8465672402933679  1.0000
  C   C31       1.0  0.7278026967352744  0.5583244749908258  0.6534346865469658  1.0000
  C   C32       1.0  0.7721922771306565  0.44167378992026574  0.1534330077412278  1.0000
  C   C33       1.0  0.8526616918250054  0.12472399443787904  0.6460182847298768  1.0000
  C   C34       1.0  0.6473390840949378  0.8752793642879411  0.1460194528032943  1.0000
  C   C35       1.0  0.14733880244035183  0.8752768391331285  0.3539819633050528  1.0000
  C   C36       1.0  0.3526633571660014  0.12472317175593865  0.8539814807899692  1.0000
  C   C37       1.0  0.9112349759206281  0.03919976041828479  0.6113997548283265  1.0000
  C   C38       1.0  0.5887624349212714  0.9608018139567492  0.11140021074159992  1.0000
  C   C39       1.0  0.08876269033408572  0.9608001943553358  0.3885998076479212  1.0000
  C   C40       1.0  0.41123558666327387  0.039198982867368684  0.8886007228480325  1.0000
  C   C41       1.0  0.9667791008691609  0.04426253957161919  0.5199314846872484  1.0000
  C   C42       1.0  0.5332215388043975  0.9557389221354949  0.0199318600523313  1.0000
  C   C43       1.0  0.03321856538555309  0.9557374152019945  0.4800680777889995  1.0000
  C   C44       1.0  0.46677931078900053  0.044262753485384096  0.9800690735395464  1.0000
  C   C45       1.0  0.9558227234886162  0.13672074648439994  0.4679937513755022  1.0000
  C   C46       1.0  0.5441802684313756  0.8632815371466619  0.9679939993284636  1.0000
  C   C47       1.0  0.04417494276610496  0.8632792082892137  0.5320058111007456  1.0000
  C   C48       1.0  0.45582340916907066  0.1367210172703537  0.0320062487092372  1.0000
  C   C49       1.0  0.8984657387012831  0.22158695135408377  0.5071355832576999  1.0000
  C   C50       1.0  0.6015396088004507  0.7784170681498921  0.007136625395013102  1.0000
  C   C51       1.0  0.10153192755343095  0.7784130034195299  0.49286397921854797  1.0000
  C   C52       1.0  0.398467252136875  0.2215872071137567  0.9928643082018882  1.0000
  C   C53       1.0  0.8911413498232932  0.32209613036633294  0.453106907937027  1.0000
  C   C54       1.0  0.608857499600397  0.6779052287883189  0.9531098691002102  1.0000
  C   C55       1.0  0.10885914444207145  0.6779047032046746  0.5468933400979028  1.0000
  C   C56       1.0  0.39114458633970617  0.32209646520820456  0.046893121161836915  1.0000
  N   N1        1.0  0.4947367174669353  0.1129387624489553  0.3546229555576375  1.0000
  N   N2        1.0  0.005256250825524805  0.887056929127176  0.8546224790594863  1.0000
  N   N3        1.0  0.5052529904536839  0.8870568902108997  0.6453779780245557  1.0000
  N   N4        1.0  0.994738402453123  0.11293879702520121  0.14537571230043517  1.0000
  N   N5        1.0  0.8494531358640883  0.2154623132151342  0.5963072435518982  1.0000
  N   N6        1.0  0.6505498517642536  0.7845409910683758  0.09630835782976281  1.0000
  N   N7        1.0  0.1505473583994712  0.7845385203552478  0.4036923189265949  1.0000
  N   N8        1.0  0.3494554175037336  0.21546242377164757  0.9036918902093166  1.0000
  O   O1        1.0  0.5313301629003675  0.2559176355864494  0.6874435362799647  1.0000
  O   O2        1.0  0.9686702902022403  0.7440816072563405  0.18744369619108175  1.0000
  O   O3        1.0  0.4686706866912331  0.7440840400338048  0.3125567117554838  1.0000
  O   O4        1.0  0.031332321414112074  0.2559184210110529  0.8125544951757606  1.0000
  O   O5        1.0  0.31152801309726635  0.330616988116759  0.6933563315502556  1.0000
  O   O6        1.0  0.18847401391165153  0.6693844122217099  0.1933581102229738  1.0000
  O   O7        1.0  0.6884730068533427  0.6693821797282666  0.3066425453716449  1.0000
  O   O8        1.0  0.8115300190114283  0.3306189842432942  0.8066407667023726  1.0000
  O   O9        1.0  0.2618186725780447  0.5296732100014481  0.38981665232427093  1.0000
  O   O10       1.0  0.23817925548319607  0.4703251274048483  0.8898182890650831  1.0000
  O   O11       1.0  0.7381789936766765  0.47032674477216563  0.610182910151977  1.0000
  O   O12       1.0  0.7618222901616533  0.5296723747173285  0.11018264452594202  1.0000
  O   O13       1.0  0.2353035005951796  0.4192791199709944  0.2635583557058681  1.0000
  O   O14       1.0  0.26470206369759086  0.5807182723952591  0.7635607857919313  1.0000
  O   O15       1.0  0.7646938103333055  0.58071999275338  0.7364412067698611  1.0000
  O   O16       1.0  0.7353012439810129  0.4192775823772051  0.23644151891265613  1.0000
  O   O17       1.0  0.4677667447087329  0.10544207938355749  0.2705127011642007  1.0000
  O   O18       1.0  0.0322321486974033  0.8945568995955497  0.7705150092440791  1.0000
  O   O19       1.0  0.5322318025592664  0.8945570517139457  0.7294861757559661  1.0000
  O   O20       1.0  0.9677692265794348  0.10544311029871518  0.22948386767833284  1.0000
  O   O21       1.0  0.565198599978565  0.05306335104397419  0.39797551752462124  1.0000
  O   O22       1.0  0.9347896993519168  0.9469310603393735  0.8979763628041938  1.0000
  O   O23       1.0  0.43478103224796166  0.9469288048025888  0.602025416049436  1.0000
  O   O24       1.0  0.0652061902680359  0.053064684186764986  0.10202182855659463  1.0000
  O   O25       1.0  0.08013221419153636  0.43377487088536526  0.6464696280821159  1.0000
  O   O26       1.0  0.4198699219920811  0.5662272854918626  0.14646960587779032  1.0000
  O   O27       1.0  0.9198666884062873  0.566225102262635  0.3535306199514281  1.0000
  O   O28       1.0  0.5801318086163931  0.43377356645353143  0.8535313277144357  1.0000
