data_image0
_chemical_formula_structural       Al2H24C42N6O18
_chemical_formula_sum              "Al2 H24 C42 N6 O18"
_cell_length_a       3.9821845631904287
_cell_length_b       27.876802156843983
_cell_length_c       27.876867915837483
_cell_angle_alpha    119.99975325515472
_cell_angle_beta     89.99928478470278
_cell_angle_gamma    89.99961340050746

_space_group_name_H-M_alt    "P 1"
_space_group_IT_number       1

loop_
  _space_group_symop_operation_xyz
  'x, y, z'

loop_
  _atom_site_type_symbol
  _atom_site_label
  _atom_site_symmetry_multiplicity
  _atom_site_fract_x
  _atom_site_fract_y
  _atom_site_fract_z
  _atom_site_occupancy
  Al  Al1       1.0  0.9729123777599683  0.4999973801034372  0.499999252223894  1.0000
  Al  Al2       1.0  0.9729176276290872  0.166665168253104  0.8333341956593044  1.0000
  H   H1        1.0  0.17632020867414863  0.18835731994835914  0.6977253637596306  1.0000
  H   H2        1.0  0.1911044454746431  0.24404814102412342  0.6493863435729281  1.0000
  H   H3        1.0  0.7525184769797519  0.37125019518139635  0.7866787566147336  1.0000
  H   H4        1.0  0.7524806293354088  0.295412877264951  0.5466611237113951  1.0000
  H   H5        1.0  0.19109386381538232  0.4226215861422703  0.683957156231294  1.0000
  H   H6        1.0  0.17632648203524323  0.4783101404160989  0.635615462360704  1.0000
  H   H7        1.0  0.1763066220065568  0.009363811574587426  0.8116407347731138  1.0000
  H   H8        1.0  0.1910948566892046  0.9053348182135185  0.7559557242553794  1.0000
  H   H9        1.0  0.7525207712304364  0.9154173653613287  0.6287464661201625  1.0000
  H   H10       1.0  0.7524859426825898  0.7512353087189111  0.7045825323822611  1.0000
  H   H11       1.0  0.19109850396726813  0.761330775328375  0.577380673168413  1.0000
  H   H12       1.0  0.1762998901980524  0.6573022031019065  0.5216907755814261  1.0000
  H   H13       1.0  0.1763222021318143  0.3022791990780433  0.9906361080135822  1.0000
  H   H14       1.0  0.19112921045056913  0.3506241469010831  0.0946658515864343  1.0000
  H   H15       1.0  0.7525231054763353  0.2133256026788644  0.0845762061306345  1.0000
  H   H16       1.0  0.752497845406964  0.4533462606282228  0.24875864196938113  1.0000
  H   H17       1.0  0.1911085219884541  0.3160486722061222  0.23866898815268905  1.0000
  H   H18       1.0  0.17631444412857894  0.3643883465540867  0.34269817593250446  1.0000
  H   H19       1.0  0.8230969386672555  0.287958998867495  0.8488932126623608  1.0000
  H   H20       1.0  0.8230960250798985  0.37870723565791314  0.48444813785619084  1.0000
  H   H21       1.0  0.8230905573234679  0.06092650701670976  0.7120390550471782  1.0000
  H   H22       1.0  0.8230772952594948  0.6057314918657042  0.6212911603406822  1.0000
  H   H23       1.0  0.8230909912458699  0.15110871448710142  0.9390699747969933  1.0000
  H   H24       1.0  0.82308941693082  0.5155561149333892  0.3942641716082206  1.0000
  C   C1        1.0  0.46841007970575527  0.46050279133937977  0.4141537481142662  1.0000
  C   C2        1.0  0.4684046631526256  0.4536489930517362  0.5394980056474522  1.0000
  C   C3        1.0  0.468381291266958  0.5858428788161021  0.5463476585639028  1.0000
  C   C4        1.0  0.4684038021973577  0.21301518173186915  0.7938373189299952  1.0000
  C   C5        1.0  0.468407084909245  0.08081761268091738  0.786982740091922  1.0000
  C   C6        1.0  0.4684109415697576  0.20616298479788503  0.9191806925196033  1.0000
  C   C7        1.0  0.47834855986531  0.24616918881565653  0.7665212272699833  1.0000
  C   C8        1.0  0.30958708220021697  0.22775934129415285  0.7156858510344078  1.0000
  C   C9        1.0  0.3154687736258878  0.2582636065048546  0.6890329163787213  1.0000
  C   C10       1.0  0.4763102998996303  0.31041062190220714  0.7154694682889441  1.0000
  C   C11       1.0  0.6307629764167401  0.3308404584152171  0.766902832878415  1.0000
  C   C12       1.0  0.6479315812491822  0.2979979917773504  0.7917241493370283  1.0000
  C   C13       1.0  0.630741639542329  0.3358264665305128  0.5664388892591531  1.0000
  C   C14       1.0  0.47629351532794567  0.3562560698132629  0.6178733398818536  1.0000
  C   C15       1.0  0.31546486789579836  0.4084050907177499  0.6443094917889879  1.0000
  C   C16       1.0  0.30960174959543707  0.4389095777925932  0.61765636769492  1.0000
  C   C17       1.0  0.47834597497028136  0.420497098422871  0.5668191043335539  1.0000
  C   C18       1.0  0.64791850482721  0.36866607575670685  0.5416138784440604  1.0000
  C   C19       1.0  0.47833412178356827  0.020346202961057668  0.7538268487491848  1.0000
  C   C20       1.0  0.3095825115258606  0.9879189395067342  0.7722366627838679  1.0000
  C   C21       1.0  0.31546634865784984  0.9307644213903287  0.7417365712669477  1.0000
  C   C22       1.0  0.47632316633009003  0.9050500035274213  0.6895898351132601  1.0000
  C   C23       1.0  0.6307737762368075  0.9360548023763686  0.6691597803698528  1.0000
  C   C24       1.0  0.6479324523709947  0.9937187225458147  0.7019971993960467  1.0000
  C   C25       1.0  0.6307309137141528  0.7306022345438736  0.6641719845009674  1.0000
  C   C26       1.0  0.476285745156332  0.7616094221880162  0.6437439809498072  1.0000
  C   C27       1.0  0.3154573219860167  0.7358985557237575  0.5915967338247796  1.0000
  C   C28       1.0  0.30958128264877866  0.6787404800640003  0.56109018818006  1.0000
  C   C29       1.0  0.4783353018325868  0.6463151474879325  0.579501918634527  1.0000
  C   C30       1.0  0.6479076629658567  0.6729386597142479  0.6313291032840311  1.0000
  C   C31       1.0  0.4783544401194745  0.2334818958474116  0.9796525196772305  1.0000
  C   C32       1.0  0.30961456889195915  0.2843209011356294  0.012076564811771018  1.0000
  C   C33       1.0  0.3155026667354194  0.3109760984410883  0.06923535942821958  1.0000
  C   C34       1.0  0.4763233949137984  0.2845391816127076  0.09494566107225914  1.0000
  C   C35       1.0  0.6307713095246044  0.2331034943954293  0.06394284130762878  1.0000
  C   C36       1.0  0.6479383775162757  0.2082786109578905  0.006277349427861566  1.0000
  C   C37       1.0  0.6307626846502005  0.4335677908920914  0.26939397445791957  1.0000
  C   C38       1.0  0.47631482101457584  0.38213425962307923  0.2383884166710217  1.0000
  C   C39       1.0  0.3154653753215512  0.3556990708176002  0.2641021829808422  1.0000
  C   C40       1.0  0.3095885742950841  0.38234926082802906  0.3212559732282116  1.0000
  C   C41       1.0  0.4783325613405367  0.4331866844708189  0.35368264912946046  1.0000
  C   C42       1.0  0.647928530853548  0.45838981693374586  0.32705577200008656  1.0000
  N   N1        1.0  0.4862899539483792  0.3458469647262916  0.6928509979930837  1.0000
  N   N2        1.0  0.4862576883891662  0.32081888837825545  0.6404897239756052  1.0000
  N   N3        1.0  0.48627536183120407  0.8469967378561095  0.6541557113161716  1.0000
  N   N4        1.0  0.4862748652243454  0.8196630472639727  0.6791834297880824  1.0000
  N   N5        1.0  0.4863047745864151  0.3071547132343611  0.15300099867505415  1.0000
  N   N6        1.0  0.4862772682832031  0.35951601053683657  0.18033574145967882  1.0000
  O   O1        1.0  0.6999428476268718  0.5584038844225033  0.5554237967184716  1.0000
  O   O2        1.0  0.6999718905329503  0.4970168372186806  0.44159015158123077  1.0000
  O   O3        1.0  0.6999678322451856  0.4445701435260503  0.5029823221178731  1.0000
  O   O4        1.0  0.2345193089459983  0.5621215426415488  0.5107740620440777  1.0000
  O   O5        1.0  0.23452919272880723  0.48922001400615767  0.5513460919273355  1.0000
  O   O6        1.0  0.23455523928370783  0.44865117376013325  0.4378766711447425  1.0000
  O   O7        1.0  0.6999667917695548  0.16964733640777044  0.8917417432457667  1.0000
  O   O8        1.0  0.6999608053084998  0.2220906202658668  0.8303515476809123  1.0000
  O   O9        1.0  0.6999732341772146  0.10825457545541183  0.7779073549577759  1.0000
  O   O10       1.0  0.23453256402945746  0.21801379576334065  0.8954591499657951  1.0000
  O   O11       1.0  0.2345408716490667  0.10454015782136143  0.822556418941552  1.0000
  O   O12       1.0  0.23453852140603  0.17744106512243712  0.7819850103688849  1.0000
  O   O13       1.0  0.8185162638890661  0.31815280012222047  0.8397613701541714  1.0000
  O   O14       1.0  0.818508365587199  0.3485109903808166  0.49357671018935884  1.0000
  O   O15       1.0  0.8185224295816553  0.02160062164914227  0.6818429513344881  1.0000
  O   O16       1.0  0.818494666949583  0.6450560093479824  0.6514850700093859  1.0000
  O   O17       1.0  0.8185136595516199  0.16024051262220962  0.9783968100145798  1.0000
  O   O18       1.0  0.8185034363763604  0.5064278748903135  0.3549388256735355  1.0000
