data_image0
_chemical_formula_structural       Cd2H10C14S4N6O2
_chemical_formula_sum              "Cd2 H10 C14 S4 N6 O2"
_cell_length_a       7.634171800309259
_cell_length_b       8.327284490059403
_cell_length_c       8.797569359839137
_cell_angle_alpha    63.31672899343953
_cell_angle_beta     88.32511162380304
_cell_angle_gamma    88.92071913311483

_space_group_name_H-M_alt    "P 1"
_space_group_IT_number       1

loop_
  _space_group_symop_operation_xyz
  'x, y, z'

loop_
  _atom_site_type_symbol
  _atom_site_label
  _atom_site_symmetry_multiplicity
  _atom_site_fract_x
  _atom_site_fract_y
  _atom_site_fract_z
  _atom_site_occupancy
  Cd  Cd1       1.0  0.6652132295450103  0.6587158607262539  0.03701496432238113  1.0000
  Cd  Cd2       1.0  0.3347912358908331  0.3412911654364663  0.9629847628117356  1.0000
  H   H1        1.0  0.7816203350261048  0.2398669124977673  0.9878598330804419  1.0000
  H   H2        1.0  0.2183671178283575  0.7601358858045656  0.012137713525596927  1.0000
  H   H3        1.0  0.9741980366072979  0.9631470653512507  0.13557735230679666  1.0000
  H   H4        1.0  0.025789338322077502  0.0368529903847303  0.8644088672989483  1.0000
  H   H5        1.0  0.9567192716216084  0.7929136601986785  0.45280282705118663  1.0000
  H   H6        1.0  0.04329447136301919  0.20707861767030525  0.5471892718190076  1.0000
  H   H7        1.0  0.7581294778288379  0.9104134191457405  0.6139919367891905  1.0000
  H   H8        1.0  0.24189350349130478  0.08958033726275261  0.386008320870033  1.0000
  H   H9        1.0  0.5779560249621908  0.19155845112036468  0.44636812965885037  1.0000
  H   H10       1.0  0.422064435388542  0.8084366768041916  0.5536441270399521  1.0000
  C   C1        1.0  0.7841266011492536  0.15909667854103302  0.12501744629219047  1.0000
  C   C2        1.0  0.2158648155399447  0.840906175310984  0.8749833571824082  1.0000
  C   C3        1.0  0.8869430154080645  0.007580502057749101  0.20914586856429193  1.0000
  C   C4        1.0  0.11305353256607019  0.9924237101896625  0.7908450917365568  1.0000
  C   C5        1.0  0.8779000149171239  0.9136525572005495  0.3860066971827151  1.0000
  C   C6        1.0  0.12210455744931889  0.0863436875112313  0.6139908229948856  1.0000
  C   C7        1.0  0.7675338132511412  0.978257007803471  0.47568053622819656  1.0000
  C   C8        1.0  0.2324668732056736  0.0217419239249708  0.5243250540811459  1.0000
  C   C9        1.0  0.6671508233284202  0.1309364046350083  0.3879591780024541  1.0000
  C   C10       1.0  0.3328523424579615  0.8690692590563884  0.612040038317751  1.0000
  C   C11       1.0  0.3937314657139908  0.8885490680554966  0.19183640450177816  1.0000
  C   C12       1.0  0.6062601236010109  0.1114416802660187  0.808167303777324  1.0000
  C   C13       1.0  0.0472571799477066  0.4574096980142244  0.20225640034163206  1.0000
  C   C14       1.0  0.9527513680789355  0.5425893150007823  0.7977488982767226  1.0000
  S   S1        1.0  0.453951288689268  0.6782387429924982  0.2876859396815589  1.0000
  S   S2        1.0  0.5460319742393694  0.32178149601612926  0.7123065487296641  1.0000
  S   S3        1.0  0.9064621520803229  0.5557068292805811  0.2774388200961225  1.0000
  S   S4        1.0  0.09353048754653058  0.44429870615353206  0.7225562481933423  1.0000
  N   N1        1.0  0.6743870373166275  0.2160973841287586  0.21521469927685638  1.0000
  N   N2        1.0  0.3256174827978028  0.7839083129856022  0.7847890053802542  1.0000
  N   N3        1.0  0.3431682333774333  0.039322674395144516  0.12532277537795974  1.0000
  N   N4        1.0  0.656812809362556  0.9606733513009615  0.8746812910627  1.0000
  N   N5        1.0  0.15010333858079147  0.3839463112505541  0.15163533279358893  1.0000
  N   N6        1.0  0.8499078924288808  0.6160405736414493  0.8483614310187662  1.0000
  O   O1        1.0  0.568960712381802  0.3569277709927903  0.1342981596843202  1.0000
  O   O2        1.0  0.43103877236169535  0.6430657813064259  0.8657120469520122  1.0000
