data_image0
_chemical_formula_structural       Al4H32C64I4Br4O20
_chemical_formula_sum              "Al4 H32 C64 I4 Br4 O20"
_cell_length_a       6.629854600292077
_cell_length_b       21.141995997968944
_cell_length_c       21.886914381034952
_cell_angle_alpha    90.02629722816812
_cell_angle_beta     90.01703833465568
_cell_angle_gamma    96.27572922001325

_space_group_name_H-M_alt    "P 1"
_space_group_IT_number       1

loop_
  _space_group_symop_operation_xyz
  'x, y, z'

loop_
  _atom_site_type_symbol
  _atom_site_label
  _atom_site_symmetry_multiplicity
  _atom_site_fract_x
  _atom_site_fract_y
  _atom_site_fract_z
  _atom_site_occupancy
  Al  Al1       1.0  0.01940254304346921  0.3140500241646649  0.5017166762651968  1.0000
  Al  Al2       1.0  0.9734996418189253  0.6868281683107469  0.0016122665616435997  1.0000
  Al  Al3       1.0  0.51987233311538  0.3139896490214582  0.5018059249330804  1.0000
  Al  Al4       1.0  0.4730619621936468  0.6869983884915456  0.0014621912091427997  1.0000
  H   H1        1.0  0.5342758577298099  0.18797336716545487  0.6479003698764813  1.0000
  H   H2        1.0  0.4596397914918812  0.8118885633062124  0.14840425031103877  1.0000
  H   H3        1.0  0.9633319929641855  0.8527024298792226  0.9140764398386307  1.0000
  H   H4        1.0  0.0285469128919829  0.14723155402081292  0.41594980227343104  1.0000
  H   H5        1.0  0.5904210109432099  0.8348215258038181  0.8766753828471749  1.0000
  H   H6        1.0  0.4014284306034168  0.16483066328935791  0.3783585071330576  1.0000
  H   H7        1.0  0.4350710435539752  0.0279270311094706  0.7776742456754062  1.0000
  H   H8        1.0  0.5574200392445119  0.9709531547464604  0.2799855197259404  1.0000
  H   H9        1.0  0.8762513756998443  0.051491251748359404  0.6581446009448014  1.0000
  H   H10       1.0  0.11621812886251347  0.9490337064510823  0.1597318502788809  1.0000
  H   H11       1.0  0.9749572525384874  0.9455312688256968  0.8436927990719381  1.0000
  H   H12       1.0  0.016481681661708998  0.0536185675093392  0.3463897403274173  1.0000
  H   H13       1.0  0.9084971570786421  0.14998384363436654  0.5958114381944738  1.0000
  H   H14       1.0  0.08440478540105542  0.8514578326245967  0.09601438377936228  1.0000
  H   H15       1.0  0.5042544302206267  0.0913116283349211  0.7118980090178226  1.0000
  H   H16       1.0  0.4890429466909438  0.9076316273199794  0.21379083882710145  1.0000
  H   H17       1.0  0.6027602292546702  0.9265621606365924  0.8043609893649445  1.0000
  H   H18       1.0  0.38876135042010407  0.0724643381412591  0.3066270753836448  1.0000
  H   H19       1.0  0.32770884932696004  0.6751472231426872  0.6953812208572571  1.0000
  H   H20       1.0  0.6455890123515998  0.3259980702816633  0.1959388254986507  1.0000
  H   H21       1.0  0.4010732027760324  0.6291308235604447  0.5992453483183197  1.0000
  H   H22       1.0  0.5779151847597744  0.37256157058082817  0.09993039636039919  1.0000
  H   H23       1.0  0.2314457966576171  0.4125170187537677  0.6836563457876677  1.0000
  H   H24       1.0  0.7649429436543469  0.5885851269321024  0.18402637846845238  1.0000
  H   H25       1.0  0.09373310274402508  0.49245792606389927  0.945415867333729  1.0000
  H   H26       1.0  0.9070643075648233  0.507307100193543  0.44521001892506706  1.0000
  H   H27       1.0  0.17648280275017916  0.39711775083323186  0.8896686673497526  1.0000
  H   H28       1.0  0.8308519794306546  0.6036692463671331  0.3899390661647358  1.0000
  H   H29       1.0  0.7835301110768995  0.35219563457886954  0.5722172683443247  1.0000
  H   H30       1.0  0.2100648548985049  0.6495145647795368  0.0723386527829319  1.0000
  H   H31       1.0  0.27847384184486396  0.33426536839680676  0.4248975251530068  1.0000
  H   H32       1.0  0.7143086509200102  0.6655777013436719  0.924911869757345  1.0000
  C   C1        1.0  0.7296924087914859  0.21957304042109624  0.43991630575485624  1.0000
  C   C2        1.0  0.2629062030876669  0.7807829601519318  0.9389473910295435  1.0000
  C   C3        1.0  0.8037447480163136  0.3902175312925706  0.4173531636650977  1.0000
  C   C4        1.0  0.18769678127549128  0.6101166294320705  0.9175203325580554  1.0000
  C   C5        1.0  0.30595908604824007  0.4084839157897234  0.5663698944205534  1.0000
  C   C6        1.0  0.6871491843586026  0.5929761245716065  0.0668274953977956  1.0000
  C   C7        1.0  0.23842343781201686  0.23298912242124464  0.5788554243576485  1.0000
  C   C8        1.0  0.7551326347350197  0.7682475076028864  0.0784311736971901  1.0000
  C   C9        1.0  0.2220983211428801  0.17556208030467957  0.6186312242506631  1.0000
  C   C10       1.0  0.7713028713703023  0.8251957859357828  0.11886540555034487  1.0000
  C   C11       1.0  0.38968789804548  0.15821495983678352  0.6513503020800612  1.0000
  C   C12       1.0  0.6038810149790024  0.8418236426519101  0.15210254106025187  1.0000
  C   C13       1.0  0.37134777787679235  0.1037049955440779  0.6872153555616903  1.0000
  C   C14       1.0  0.6219153218154644  0.8958058057844834  0.18874847321797  1.0000
  C   C15       1.0  0.18534024360318568  0.06414542549324409  0.6910440153129684  1.0000
  C   C16       1.0  0.8074589138495938  0.9355712321695935  0.19286810541145627  1.0000
  C   C17       1.0  0.020131573706613896  0.0816622575511303  0.6569543905243335  1.0000
  C   C18       1.0  0.9726181884576873  0.9187253840297134  0.15831219366940266  1.0000
  C   C19       1.0  0.03748535814432329  0.13670620896999708  0.621851706921447  1.0000
  C   C20       1.0  0.9555345201102128  0.8641967643592637  0.12241989206062699  1.0000
  C   C21       1.0  0.10865520951955426  0.9205182308760625  0.8496695381957194  1.0000
  C   C22       1.0  0.882905130856862  0.07877332891781211  0.3520595984527404  1.0000
  C   C23       1.0  0.10213931913948227  0.86923735384822  0.8895038755279215  1.0000
  C   C24       1.0  0.8897094558584724  0.1304701108198927  0.391445997225908  1.0000
  C   C25       1.0  0.456824274563388  0.8595960716992653  0.868959027329687  1.0000
  C   C26       1.0  0.5350498485938501  0.14000007248711907  0.3707492402451251  1.0000
  C   C27       1.0  0.46278280413564227  0.9107580237154026  0.8288216317943267  1.0000
  C   C28       1.0  0.5288802144457704  0.08845257967892908  0.33098918805046645  1.0000
  C   C29       1.0  0.2875742136559012  0.9411362940485193  0.817429846286508  1.0000
  C   C30       1.0  0.704027489070931  0.0579693881432206  0.3198277889791115  1.0000
  C   C31       1.0  0.16501202715383556  0.007303704757021  0.7304409452940844  1.0000
  C   C32       1.0  0.8272812939342626  0.9920538168498257  0.23279586824924786  1.0000
  C   C33       1.0  0.2979092044698034  0.9942651705587265  0.7743073693159346  1.0000
  C   C34       1.0  0.6942397823254679  0.0047836247189749995  0.2767316288921577  1.0000
  C   C35       1.0  0.27541077121161095  0.8379269141025248  0.8989181685080252  1.0000
  C   C36       1.0  0.7166691966490716  0.16198040938868982  0.40048322035224965  1.0000
  C   C37       1.0  0.37494739101207125  0.5812377462424577  0.6181274012645375  1.0000
  C   C38       1.0  0.6078611057800102  0.42040821503730536  0.11875953002617479  1.0000
  C   C39       1.0  0.3209032907325025  0.4672886171312669  0.6052089626150589  1.0000
  C   C40       1.0  0.6710451188723282  0.5342063565394852  0.10568536500223048  1.0000
  C   C41       1.0  0.14178439324818018  0.4968045077401299  0.8978612006222447  1.0000
  C   C42       1.0  0.8562807882728972  0.5033871578131296  0.3978669088837846  1.0000
  C   C43       1.0  0.1867394686308755  0.4427264783738066  0.8661166831918478  1.0000
  C   C44       1.0  0.8149955833901145  0.5580034568766974  0.3664043739717897  1.0000
  C   C45       1.0  0.2600276212199049  0.44810036505886336  0.8067915241677921  1.0000
  C   C46       1.0  0.7392021774865895  0.5532661202410624  0.3073183681270634  1.0000
  C   C47       1.0  0.2640842995289958  0.5062372416389137  0.7735957043105514  1.0000
  C   C48       1.0  0.7279815591742389  0.49494715043429227  0.2740331291359013  1.0000
  C   C49       1.0  0.23047994516669226  0.562573580846781  0.8086142741589626  1.0000
  C   C50       1.0  0.7577962827654329  0.4381634862018017  0.3088721990828843  1.0000
  C   C51       1.0  0.29805992327279535  0.5122122825006201  0.708011792685653  1.0000
  C   C52       1.0  0.6913601176510367  0.4891804831066153  0.20853595752267745  1.0000
  C   C53       1.0  0.33621139452518617  0.5739361400143393  0.6814095926427584  1.0000
  C   C54       1.0  0.6469265885931463  0.4275732676109455  0.182058652265944  1.0000
  C   C55       1.0  0.31193490938855456  0.6286065430388562  0.7172919105672618  1.0000
  C   C56       1.0  0.6665140530844055  0.37254545001888323  0.21786926881597415  1.0000
  C   C57       1.0  0.24930982463860824  0.6225798002963004  0.7765061160134151  1.0000
  C   C58       1.0  0.7320238520835501  0.3780860446581968  0.2768507849066921  1.0000
  C   C59       1.0  0.2808871155149788  0.4601996258187953  0.6672571644686512  1.0000
  C   C60       1.0  0.7119828580105005  0.541105634048499  0.16771168187285918  1.0000
  C   C61       1.0  0.3711989174724976  0.52861151426319  0.5806108651594926  1.0000
  C   C62       1.0  0.6169460118240906  0.4730112573423708  0.0811197022903798  1.0000
  C   C63       1.0  0.17943064351570825  0.5566483071394543  0.8716076967415914  1.0000
  C   C64       1.0  0.8125860641620547  0.443733481171016  0.37160365861646477  1.0000
  I   I1        1.0  0.41667150529063685  0.5414723173128452  0.4860811249338751  1.0000
  I   I2        1.0  0.5762045845089003  0.4600063217919652  0.9864546230690079  1.0000
  I   I3        1.0  0.4011116071829903  0.36680505901969696  0.7791325285935925  1.0000
  I   I4        1.0  0.6073335665311744  0.6364344122316153  0.28016753894664953  1.0000
  Br  Br1       1.0  0.16809042746355368  0.6978322504772335  0.8123271813057966  1.0000
  Br  Br2       1.0  0.8088210502022262  0.30195267490774563  0.31205749367605756  1.0000
  Br  Br3       1.0  0.930806097293221  0.9471478623944802  0.7147308847864052  1.0000
  Br  Br4       1.0  0.060965068504046385  0.05252499590532981  0.21741343184061176  1.0000
  O   O1        1.0  0.6263364675108531  0.36617836809306686  0.4325503834482732  1.0000
  O   O2        1.0  0.36509809845047403  0.6346660811750839  0.9322445161031607  1.0000
  O   O3        1.0  0.9070199628931871  0.24711749146425174  0.45032943599084524  1.0000
  O   O4        1.0  0.08580158480043559  0.7531753179791634  0.949553636670508  1.0000
  O   O5        1.0  0.07304248579610828  0.24971952260818137  0.5580618461102986  1.0000
  O   O6        1.0  0.9204975070711966  0.7518042549452417  0.057347923461300396  1.0000
  O   O7        1.0  0.9699849914699782  0.3783723179661678  0.44143675410079186  1.0000
  O   O8        1.0  0.021852455755329517  0.6214710809805695  0.942150444727737  1.0000
  O   O9        1.0  0.12841055194392934  0.38071529961310085  0.5576940771267401  1.0000
  O   O10       1.0  0.8645983588312374  0.6209433876768955  0.058488507862506395  1.0000
  O   O11       1.0  0.5650597753671888  0.2382086405926742  0.4591789647499737  1.0000
  O   O12       1.0  0.4278249969708056  0.7625426942900333  0.9584583807765411  1.0000
  O   O13       1.0  0.7719640397493206  0.3215453745024277  0.5390572874901735  1.0000
  O   O14       1.0  0.22133722529109423  0.6797604620598533  0.0388708385736436  1.0000
  O   O15       1.0  0.4716794542339071  0.39085490365327746  0.5470971629773445  1.0000
  O   O16       1.0  0.5215807375905895  0.6103711881974406  0.047109731019013196  1.0000
  O   O17       1.0  0.4145999778555876  0.2611890668666348  0.5680159223318313  1.0000
  O   O18       1.0  0.5789580155256215  0.7401081591157207  0.06741644354284658  1.0000
  O   O19       1.0  0.26947020842554537  0.31263623672602847  0.4640692312117237  1.0000
  O   O20       1.0  0.7233215470613812  0.6878181731041975  0.9637881084256887  1.0000
