data_image0
_chemical_formula_structural       Al4H6C38S2Cl4O26
_chemical_formula_sum              "Al4 H6 C38 S2 Cl4 O26"
_cell_length_a       6.799484534166628
_cell_length_b       19.34265497602134
_cell_length_c       21.351759623008633
_cell_angle_alpha    86.91132721275736
_cell_angle_beta     85.88824152632215
_cell_angle_gamma    86.09700430206928

_space_group_name_H-M_alt    "P 1"
_space_group_IT_number       1

loop_
  _space_group_symop_operation_xyz
  'x, y, z'

loop_
  _atom_site_type_symbol
  _atom_site_label
  _atom_site_symmetry_multiplicity
  _atom_site_fract_x
  _atom_site_fract_y
  _atom_site_fract_z
  _atom_site_occupancy
  Al  Al1       1.0  0.793407049591842  0.26356604575411074  0.2599977907811207  1.0000
  Al  Al2       1.0  0.21254649108206544  0.7361771333195364  0.7389132927184431  1.0000
  Al  Al3       1.0  0.2935067170197669  0.2629619600925395  0.2613438601675639  1.0000
  Al  Al4       1.0  0.7121921448487568  0.737066729116094  0.737808913948342  1.0000
  H   H1        1.0  0.5711739048776393  0.0039001209952971034  0.9166893545704863  1.0000
  H   H2        1.0  0.5689187268232416  0.1632516427847008  0.017373933430924592  1.0000
  H   H3        1.0  0.5637044848490547  0.1739319178990613  0.24912245599784902  1.0000
  H   H4        1.0  0.44072885254190214  0.8236997065485812  0.7564606475810007  1.0000
  H   H5        1.0  0.026798506579765995  0.35454693309789326  0.26131421496676666  1.0000
  H   H6        1.0  0.9768206599997882  0.6452177035784957  0.7436858438432165  1.0000
  C   C1        1.0  0.5455783548905941  0.34814871258276975  0.17365240308339477  1.0000
  C   C2        1.0  0.4611874422766106  0.6512387201695873  0.8251601800625676  1.0000
  C   C3        1.0  0.5102672531347991  0.34338851980694324  0.34334940927124075  1.0000
  C   C4        1.0  0.4955392246930117  0.657078081811008  0.6553371101845966  1.0000
  C   C5        1.0  0.03886669855533138  0.1762797601738555  0.3451990929546581  1.0000
  C   C6        1.0  0.965845025985658  0.8234987644511097  0.6539105812201453  1.0000
  C   C7        1.0  0.07884164278519991  0.18326576911383796  0.17773480489253754  1.0000
  C   C8        1.0  0.9283421548042126  0.8164196151392674  0.821474493336886  1.0000
  C   C9        1.0  0.9024033533448164  0.0355640589421711  0.9552940492685946  1.0000
  C   C10       1.0  0.11764795029253605  0.9638675673611987  0.04357163445845196  1.0000
  C   C11       1.0  0.1186820791157714  0.049631882075296105  0.9693488419352005  1.0000
  C   C12       1.0  0.8995372866649093  0.9497872649113931  0.029210147511648164  1.0000
  C   C13       1.0  0.09413204883234269  0.1352545302786297  0.12785759804332736  1.0000
  C   C14       1.0  0.9158139365633388  0.8643313309197962  0.8714045189552162  1.0000
  C   C15       1.0  0.8427187743793142  0.0300292046230553  0.02762061259360138  1.0000
  C   C16       1.0  0.17584875424726218  0.969652431993694  0.9707858039719991  1.0000
  C   C17       1.0  0.05938567060292141  0.0452271088409475  0.042616467539858094  1.0000
  C   C18       1.0  0.9587127920412826  0.9545301664511995  0.9559483724739193  1.0000
  C   C19       1.0  0.092178447145308  0.09320343385888209  0.08772309596336919  1.0000
  C   C20       1.0  0.9243600501770503  0.9065285453167962  0.9110209675854077  1.0000
  C   C21       1.0  0.971256466449745  0.8766895598665346  0.6040779425562873  1.0000
  C   C22       1.0  0.0334598691117876  0.12334244292112122  0.39520027299471383  1.0000
  C   C23       1.0  0.9827185030985461  0.9239928679276017  0.5636300074483528  1.0000
  C   C24       1.0  0.022241812109598403  0.07607375058996979  0.4356931116545864  1.0000
  C   C25       1.0  0.9959520847174234  0.9759860063333505  0.5197235957504986  1.0000
  C   C26       1.0  0.009228742344127707  0.024114862032888602  0.47964300815279143  1.0000
  C   C27       1.0  0.5419488538488296  0.3948570515691259  0.11877949251738329  1.0000
  C   C28       1.0  0.46432069053002306  0.6046938278108556  0.8801711058890617  1.0000
  C   C29       1.0  0.5281988923305934  0.43522315194140054  0.07273205559148717  1.0000
  C   C30       1.0  0.4775542962960486  0.564583437573127  0.9263999810269252  1.0000
  C   C31       1.0  0.5114524015780191  0.47951076838974427  0.022587579752290282  1.0000
  C   C32       1.0  0.4940153907449484  0.520416059595945  0.9766411877321627  1.0000
  C   C33       1.0  0.4966641307125956  0.391192515930129  0.39307729754946746  1.0000
  C   C34       1.0  0.5095230255337385  0.6089576258233934  0.605807829398941  1.0000
  C   C35       1.0  0.49749346333521777  0.4329151799456596  0.4343205461121541  1.0000
  C   C36       1.0  0.5081463777931745  0.5669179020423698  0.5648653102796786  1.0000
  C   C37       1.0  0.5001456615578732  0.4786551081002557  0.47920617774964563  1.0000
  C   C38       1.0  0.5050846992477248  0.5209436709992374  0.520205162847901  1.0000
  S   S1        1.0  0.3658828849187828  0.9255114861591661  0.9245578045046654  1.0000
  S   S2        1.0  0.6343242578153224  0.0687208250720985  0.06950363635192497  1.0000
  Cl  Cl1       1.0  0.24438544330500633  0.114562622251519  0.9289531050881121  1.0000
  Cl  Cl2       1.0  0.7678592563674799  0.8860094709025217  0.06704961042016318  1.0000
  Cl  Cl3       1.0  0.7790050556142631  0.084162378436794  0.897734536588018  1.0000
  Cl  Cl4       1.0  0.24130517706733914  0.9178051234103177  0.10065233874095718  1.0000
  O   O1        1.0  0.3490821108879415  0.3242809055676901  0.32515614478280236  1.0000
  O   O2        1.0  0.6563685473861511  0.6758302102133769  0.6739937085459287  1.0000
  O   O3        1.0  0.7142395993290123  0.32996041966278966  0.19375341919975134  1.0000
  O   O4        1.0  0.2929444375505383  0.6685834196659927  0.8043877228574485  1.0000
  O   O5        1.0  0.9030581734871107  0.20171771575758873  0.19740274617136314  1.0000
  O   O6        1.0  0.1038921196254208  0.7971754228072285  0.8021228939040552  1.0000
  O   O7        1.0  0.6852680784329195  0.3258142824242399  0.3219569268274823  1.0000
  O   O8        1.0  0.32031971778987156  0.675171529236863  0.6760853446491806  1.0000
  O   O9        1.0  0.8721208697790387  0.1970502727630432  0.324989244663726  1.0000
  O   O10       1.0  0.1322609339899898  0.8030145745318293  0.6744332762733618  1.0000
  O   O11       1.0  0.3769918795360424  0.3305775263888364  0.1966352339636258  1.0000
  O   O12       1.0  0.6299034428409341  0.6692401280679334  0.8026346997455533  1.0000
  O   O13       1.0  0.5515929460210316  0.2221231431212302  0.260178171089862  1.0000
  O   O14       1.0  0.4538880159355473  0.7778733444847107  0.7395403463198985  1.0000
  O   O15       1.0  0.20851614304945093  0.195903467366044  0.3255443186766199  1.0000
  O   O16       1.0  0.7963144696266867  0.803567959949838  0.6731852740268491  1.0000
  O   O17       1.0  0.23933095973054463  0.20120054091448483  0.19726452496031033  1.0000
  O   O18       1.0  0.7674326196840299  0.7996518614752831  0.8013933508432697  1.0000
  O   O19       1.0  0.03613822973243694  0.3044405069797875  0.2598441254561123  1.0000
  O   O20       1.0  0.9695082523087137  0.6954265499853207  0.7392126373555142  1.0000
  O   O21       1.0  0.38272893226467636  0.8549135699834238  0.9478169463322456  1.0000
  O   O22       1.0  0.33532172746524225  0.945743438677596  0.8599768323761264  1.0000
  O   O23       1.0  0.553788441272758  0.961340831887199  0.9437892082535694  1.0000
  O   O24       1.0  0.46279440129868726  0.04816084039881471  0.041812076681409786  1.0000
  O   O25       1.0  0.6617226760326673  0.058301777170228795  0.13504988133200155  1.0000
  O   O26       1.0  0.6580729442395566  0.1495755989172238  0.05069738116831958  1.0000
