data_image0
_chemical_formula_structural       Cu4H56C32O20
_chemical_formula_sum              "Cu4 H56 C32 O20"
_cell_length_a       7.967998376164211
_cell_length_b       8.943548477644603
_cell_length_c       14.590887795493764
_cell_angle_alpha    105.28725403275388
_cell_angle_beta     90.0000265071844
_cell_angle_gamma    89.99928327763982

_space_group_name_H-M_alt    "P 1"
_space_group_IT_number       1

loop_
  _space_group_symop_operation_xyz
  'x, y, z'

loop_
  _atom_site_type_symbol
  _atom_site_label
  _atom_site_symmetry_multiplicity
  _atom_site_fract_x
  _atom_site_fract_y
  _atom_site_fract_z
  _atom_site_occupancy
  Cu  Cu1       1.0  0.9641909749060531  0.1413345843807363  0.0120935219323783  1.0000
  Cu  Cu2       1.0  0.4642071639517837  0.3586705077810278  0.4879032258737652  1.0000
  Cu  Cu3       1.0  0.03578514519487899  0.8586831387694857  0.9879058148730593  1.0000
  Cu  Cu4       1.0  0.535796566760247  0.6413240425449515  0.5120971805458581  1.0000
  H   H1        1.0  0.76792534402027  0.8033123279890972  0.7043470719362972  1.0000
  H   H2        1.0  0.2679536512508776  0.6967048503234352  0.7956568886709334  1.0000
  H   H3        1.0  0.23205077613954472  0.19669609895124293  0.2956398035933105  1.0000
  H   H4        1.0  0.7320550994601192  0.30330128413720553  0.20434195453724868  1.0000
  H   H5        1.0  0.768676443854936  0.006180317775438498  0.7150021495598722  1.0000
  H   H6        1.0  0.2686917708779219  0.49383238984949424  0.7850021975876444  1.0000
  H   H7        1.0  0.2313360719307411  0.9938234882786644  0.2849915215498768  1.0000
  H   H8        1.0  0.7313019196146371  0.5061702730608885  0.2149988285758511  1.0000
  H   H9        1.0  0.9679763399977828  0.8657853896174286  0.5890327450320997  1.0000
  H   H10       1.0  0.46797803830258994  0.6341923595094768  0.9109813575165546  1.0000
  H   H11       1.0  0.03205249145225509  0.1341628311217065  0.410977342154716  1.0000
  H   H12       1.0  0.5320056120865218  0.3658022010429533  0.0890238480649259  1.0000
  H   H13       1.0  0.08057947202219397  0.9941081298076208  0.6832594355382254  1.0000
  H   H14       1.0  0.5806069269614298  0.5058869564335281  0.8167546440944164  1.0000
  H   H15       1.0  0.919412963649499  0.005866738335193099  0.3167487702838088  1.0000
  H   H16       1.0  0.4193880185570792  0.49411572957209415  0.1832573515412221  1.0000
  H   H17       1.0  0.0788301386805088  0.7916408457078462  0.6729653166742792  1.0000
  H   H18       1.0  0.5788334182016257  0.7083577648203414  0.8270616660801123  1.0000
  H   H19       1.0  0.921187397393716  0.20833638965617496  0.3270665722073574  1.0000
  H   H20       1.0  0.4211590173252874  0.2916379692575859  0.1729505818898787  1.0000
  H   H21       1.0  0.5487551174454453  0.0719869099273325  0.9340354011559951  1.0000
  H   H22       1.0  0.048779925383556105  0.4280156528028485  0.5659665885191885  1.0000
  H   H23       1.0  0.45122476776907655  0.9280238756971781  0.06597104389915384  1.0000
  H   H24       1.0  0.9512288254504849  0.5719731032452983  0.4340335711115486  1.0000
  H   H25       1.0  0.4706300671782202  0.9599809703394154  0.8247584092128193  1.0000
  H   H26       1.0  0.9706430871371411  0.5400198953749112  0.6752429640451894  1.0000
  H   H27       1.0  0.5293661333546567  0.04002169111216598  0.1752419313564317  1.0000
  H   H28       1.0  0.0293631536706016  0.4599665351917252  0.3247533946766837  1.0000
  H   H29       1.0  0.5763281025345036  0.21407943818250166  0.8082062882689626  1.0000
  H   H30       1.0  0.07631990340276928  0.2859135305390126  0.6917969044379576  1.0000
  H   H31       1.0  0.42368190321752053  0.7859243967648266  0.19180109468447168  1.0000
  H   H32       1.0  0.9236901024516088  0.7140752255016878  0.30820325519169955  1.0000
  H   H33       1.0  0.35533410592720577  0.20938547469533114  0.7916837437991971  1.0000
  H   H34       1.0  0.8553248068163342  0.29062038263814566  0.7083064952620646  1.0000
  H   H35       1.0  0.6446821748714554  0.7906252876107728  0.208311731751337  1.0000
  H   H36       1.0  0.1446776688613483  0.7093764946355845  0.2916983976617544  1.0000
  H   H37       1.0  0.4421017511690479  0.31639250918673406  0.9010306410841125  1.0000
  H   H38       1.0  0.9421076487881167  0.1836088535779794  0.5989643736035504  1.0000
  H   H39       1.0  0.5578982144409608  0.6836078339657304  0.0989693265312397  1.0000
  H   H40       1.0  0.05788980685589  0.8163810660072669  0.4010380292884861  1.0000
  H   H41       1.0  0.0603331921985131  0.46111454446887007  0.1535857990916369  1.0000
  H   H42       1.0  0.560356448612545  0.03890344783724939  0.34641226508404094  1.0000
  H   H43       1.0  0.939652967892279  0.5389275060890667  0.846410597766244  1.0000
  H   H44       1.0  0.43966610745220436  0.9610841446589117  0.6535856512832366  1.0000
  H   H45       1.0  0.9441713511380386  0.619440739050887  0.1290286232217071  1.0000
  H   H46       1.0  0.44418334347324157  0.8805771605183139  0.3709663342554705  1.0000
  H   H47       1.0  0.0558160639772893  0.3806001364781224  0.8709600456469246  1.0000
  H   H48       1.0  0.5558367025129769  0.11941623779214436  0.6290373136351377  1.0000
  H   H49       1.0  0.765187503982105  0.5591321948505836  0.9893482830892354  1.0000
  H   H50       1.0  0.2652120725255074  0.9408803461770106  0.5106391677248325  1.0000
  H   H51       1.0  0.2347986561703763  0.4409005710488144  0.010641137229420379  1.0000
  H   H52       1.0  0.7348192686230491  0.0591153515723732  0.48935594040969477  1.0000
  H   H53       1.0  0.7619722487730628  0.3604034610978529  0.918736709879667  1.0000
  H   H54       1.0  0.26198858367872907  0.13961278031064947  0.5812572387842393  1.0000
  H   H55       1.0  0.23801265638292082  0.6396258259498636  0.0812514654220138  1.0000
  H   H56       1.0  0.7380364824102159  0.8603771290035166  0.41874036493944533  1.0000
  C   C1        1.0  0.8892924345663714  0.941370671332507  0.8293871041220983  1.0000
  C   C2        1.0  0.3893112589484388  0.5586219143615667  0.6706266294743628  1.0000
  C   C3        1.0  0.11068745087180079  0.05860764975329858  0.17061000607144192  1.0000
  C   C4        1.0  0.6106949818459811  0.44136684603321186  0.3293755869347734  1.0000
  C   C5        1.0  0.84363747563048  0.9093153220991893  0.7253636489192559  1.0000
  C   C6        1.0  0.3436572132400215  0.5906893716581934  0.7746403731175776  1.0000
  C   C7        1.0  0.15635998000931284  0.09067458015904607  0.2746305268678668  1.0000
  C   C8        1.0  0.6563414973342248  0.4093132926663471  0.2253613386336681  1.0000
  C   C9        1.0  0.0026961491478161  0.8891186220365197  0.6642399248338579  1.0000
  C   C10       1.0  0.5027108506587084  0.6108704370743541  0.8357752270800347  1.0000
  C   C11       1.0  0.9973176219519714  0.11084466181541328  0.3357698441768875  1.0000
  C   C12       1.0  0.49727907480754396  0.3891275994121628  0.1642298523299388  1.0000
  C   C13       1.0  0.2846387792007832  0.04587112245653199  0.9294515929856431  1.0000
  C   C14       1.0  0.7846684480142015  0.4541483319122434  0.5705449327700123  1.0000
  C   C15       1.0  0.7153348308570173  0.9541465906011407  0.07054294467743455  1.0000
  C   C16       1.0  0.2153440677739269  0.54585548424928  0.42945353748427095  1.0000
  C   C17       1.0  0.448467706424438  0.06675946341908907  0.8813216051250378  1.0000
  C   C18       1.0  0.9484826599619892  0.43324530412771617  0.6186753291839012  1.0000
  C   C19       1.0  0.5515222190053564  0.9332431922940144  0.11867599308131821  1.0000
  C   C20       1.0  0.05152483585942491  0.5667422913455483  0.3813239583805199  1.0000
  C   C21       1.0  0.45543329715943764  0.20982314586275652  0.8435241851308319  1.0000
  C   C22       1.0  0.9554327347631142  0.29017458581372313  0.6564723039162105  1.0000
  C   C23       1.0  0.5445691784838829  0.7901783593010663  0.1564773401418407  1.0000
  C   C24       1.0  0.044570995990632405  0.7098141745959338  0.3435299124950859  1.0000
  C   C25       1.0  0.014853376525863401  0.5121381644638419  0.09761022891223801  1.0000
  C   C26       1.0  0.5148804101672867  0.9878778725609935  0.4023857214425064  1.0000
  C   C27       1.0  0.9851352936606332  0.4878957663347451  0.9023821202478857  1.0000
  C   C28       1.0  0.4851408908213912  0.012117836799241399  0.597614871437294  1.0000
  C   C29       1.0  0.8405170615835048  0.45376804596614306  0.9612327328566366  1.0000
  C   C30       1.0  0.340535921358736  0.04624842487508829  0.538761952385471  1.0000
  C   C31       1.0  0.15946658854654322  0.5462624103348404  0.03876042806599141  1.0000
  C   C32       1.0  0.6594941647631813  0.9537484392397246  0.46123677018584885  1.0000
  O   O1        1.0  0.8785128689333916  0.08166155368890318  0.8795252878575894  1.0000
  O   O2        1.0  0.3784751195186331  0.4183440247013833  0.6204628544694373  1.0000
  O   O3        1.0  0.121581223140808  0.9183456917550072  0.1204511172137899  1.0000
  O   O4        1.0  0.6215336312519567  0.5816540087857119  0.37954085374014573  1.0000
  O   O5        1.0  0.0590199485892882  0.17365150760893033  0.1419079382218484  1.0000
  O   O6        1.0  0.5591056859729591  0.3263248026788901  0.35809849807915123  1.0000
  O   O7        1.0  0.9408030593685838  0.8263199144452144  0.8581141057539413  1.0000
  O   O8        1.0  0.44090808488599004  0.6736720673083028  0.6419029668745466  1.0000
  O   O9        1.0  0.19009979188216866  0.1638116113496864  0.9577378211250291  1.0000
  O   O10       1.0  0.6900946959528725  0.3362148231922149  0.5422899661650149  1.0000
  O   O11       1.0  0.8099428442142554  0.8362224649646848  0.04232377278825789  1.0000
  O   O12       1.0  0.30991781990957895  0.6637785679432965  0.4577102537717082  1.0000
  O   O13       1.0  0.745042221597174  0.0899675144056928  0.06160364571552181  1.0000
  O   O14       1.0  0.2450865008341196  0.4100053393181681  0.4383584053711758  1.0000
  O   O15       1.0  0.2548811878662107  0.9100141385944125  0.9383247791529995  1.0000
  O   O16       1.0  0.754922249965567  0.5899880446200707  0.5616383866084149  1.0000
  O   O17       1.0  0.9022551743820058  0.3993508653653279  0.03976149325529831  1.0000
  O   O18       1.0  0.4022749672780819  0.10066306487422588  0.4602318675675576  1.0000
  O   O19       1.0  0.09773726092158337  0.6006749499982291  0.9602288649822057  1.0000
  O   O20       1.0  0.5977563738645202  0.8993338006770628  0.5397675405947524  1.0000
