data_image0
_chemical_formula_structural       CdH16C16Br4N6O6
_chemical_formula_sum              "Cd1 H16 C16 Br4 N6 O6"
_cell_length_a       8.769724679834033
_cell_length_b       9.477329638856663
_cell_length_c       8.037343766218278
_cell_angle_alpha    78.30767834272585
_cell_angle_beta     88.32071819139306
_cell_angle_gamma    68.39002560587383

_space_group_name_H-M_alt    "P 1"
_space_group_IT_number       1

loop_
  _space_group_symop_operation_xyz
  'x, y, z'

loop_
  _atom_site_type_symbol
  _atom_site_label
  _atom_site_symmetry_multiplicity
  _atom_site_fract_x
  _atom_site_fract_y
  _atom_site_fract_z
  _atom_site_occupancy
  Cd  Cd1       1.0  0.5000081393832403  0.4999922434267604  0.49999942258001073  1.0000
  H   H1        1.0  0.8163928824877688  0.5944574841494797  0.6914887631071026  1.0000
  H   H2        1.0  0.18360277104694941  0.4055522580216858  0.3085004888776339  1.0000
  H   H3        1.0  0.5938178045017822  0.7571499563010062  0.19780046049070432  1.0000
  H   H4        1.0  0.40620088012323663  0.24282283611580624  0.8021990555657511  1.0000
  H   H5        1.0  0.08468971548932568  0.7441056713424246  0.4625855826562102  1.0000
  H   H6        1.0  0.9152969043865016  0.25590802768422793  0.5374242856317651  1.0000
  H   H7        1.0  0.9950200155457978  0.760534024664615  0.6627570828674861  1.0000
  H   H8        1.0  0.004952672934408022  0.23949086047332457  0.3372405305273674  1.0000
  H   H9        1.0  0.8174537791710678  0.0392004515343842  0.5385578191178696  1.0000
  H   H10       1.0  0.1825199071311018  0.960818203744793  0.4614265532457723  1.0000
  H   H11       1.0  0.8999774035909169  0.0164287490627046  0.3378035516587445  1.0000
  H   H12       1.0  0.10000228200695484  0.9835805945222869  0.6621805907592418  1.0000
  H   H13       1.0  0.6050135513300959  0.3417758569736051  0.1811214293016477  1.0000
  H   H14       1.0  0.3949869620299468  0.658218555048954  0.8188631429354984  1.0000
  H   H15       1.0  0.5531731758848437  0.519796009903331  0.16017567527907062  1.0000
  H   H16       1.0  0.44682724455418565  0.4802022438526876  0.8398202670776344  1.0000
  C   C1        1.0  0.7800203819847695  0.6557465800152826  0.5609892928505714  1.0000
  C   C2        1.0  0.2199744807930203  0.3442518022184302  0.43901443398721096  1.0000
  C   C3        1.0  0.6690320057146695  0.7406668013468051  0.3099883666105896  1.0000
  C   C4        1.0  0.33097589633153757  0.2593127996181366  0.6900086533831384  1.0000
  C   C5        1.0  0.9728323670213542  0.8037242502666401  0.5248384089647261  1.0000
  C   C6        1.0  0.027142905948466023  0.19629724265784887  0.47516249336393207  1.0000
  C   C7        1.0  0.9287514507292868  0.9787452976676363  0.4757630765121661  1.0000
  C   C8        1.0  0.0712230475528202  0.0212748112196905  0.5242307950593883  1.0000
  C   C9        1.0  0.6935747240186175  0.2507678544855594  0.8547755108927078  1.0000
  C   C10       1.0  0.30643790897740086  0.7492381201129631  0.14523740071843597  1.0000
  C   C11       1.0  0.850753481342089  0.11984638324236842  0.9331329069432144  1.0000
  C   C12       1.0  0.14926161870403845  0.8801499880223742  0.06687136262165441  1.0000
  C   C13       1.0  0.9800090320085888  0.15332546133161878  0.9907758763246477  1.0000
  C   C14       1.0  0.020004551010735793  0.8466702403442384  0.009247357042305266  1.0000
  C   C15       1.0  0.12850175809333564  0.0352376721914069  0.0568746655941581  1.0000
  C   C16       1.0  0.87151278875119  0.9647716892377857  0.9431321853294463  1.0000
  Br  Br1       1.0  0.9472151975708132  0.3646536030455607  0.9769550699172669  1.0000
  Br  Br2       1.0  0.052808449277975546  0.6353340104014791  0.023067331431519733  1.0000
  Br  Br3       1.0  0.30567190889335194  0.0803610237382699  0.1307673952566191  1.0000
  Br  Br4       1.0  0.6943587194128827  0.9196269568925145  0.8692220866819937  1.0000
  N   N1        1.0  0.6692387891767241  0.6422861450358822  0.4601866946120409  1.0000
  N   N2        1.0  0.3307615216529101  0.35769794323147147  0.5398070409812378  1.0000
  N   N3        1.0  0.8419045934682078  0.7577954888768444  0.47379331996548757  1.0000
  N   N4        1.0  0.15808578178747015  0.24221088789347786  0.5262046886347918  1.0000
  N   N5        1.0  0.7722504654098259  0.8129712460457552  0.313249374622373  1.0000
  N   N6        1.0  0.22774004788922048  0.18702340419375224  0.6867494565257958  1.0000
  O   O1        1.0  0.6930700584743549  0.2959295269756409  0.6949864263111181  1.0000
  O   O2        1.0  0.3069464067533119  0.7040553077328012  0.30502476110292787  1.0000
  O   O3        1.0  0.6095867273473345  0.4199913562527584  0.24262053061500674  1.0000
  O   O4        1.0  0.39040843871198655  0.5800055536343719  0.7573723869637377  1.0000
  O   O5        1.0  0.5796439079082774  0.30195498950066485  0.9526130509548948  1.0000
  O   O6        1.0  0.42036215816936834  0.6980413229586586  0.04739429366664898  1.0000
