data_image0
_chemical_formula_structural       Cd2H28C28N8O8
_chemical_formula_sum              "Cd2 H28 C28 N8 O8"
_cell_length_a       9.080312527289433
_cell_length_b       10.423975538108007
_cell_length_c       10.42397321734047
_cell_angle_alpha    82.14249172189362
_cell_angle_beta     65.16028870087507
_cell_angle_gamma    65.16035946780669

_space_group_name_H-M_alt    "P 1"
_space_group_IT_number       1

loop_
  _space_group_symop_operation_xyz
  'x, y, z'

loop_
  _atom_site_type_symbol
  _atom_site_label
  _atom_site_symmetry_multiplicity
  _atom_site_fract_x
  _atom_site_fract_y
  _atom_site_fract_z
  _atom_site_occupancy
  Cd  Cd1       1.0  0.38210869094940864  0.06327419763235298  0.22032955176236155  1.0000
  Cd  Cd2       1.0  0.6178934697694274  0.7796694709116209  0.9367247826050399  1.0000
  H   H1        1.0  0.15152850922985556  0.6135436545457935  0.7551896513293669  1.0000
  H   H2        1.0  0.8484703008267189  0.2448094605962438  0.38645591408415914  1.0000
  H   H3        1.0  0.43059827093472347  0.6265758250577348  0.7969284591564686  1.0000
  H   H4        1.0  0.5694002873037648  0.2030718506849425  0.3734241734163744  1.0000
  H   H5        1.0  0.10040550448617556  0.9453149277061788  0.4107803280055649  1.0000
  H   H6        1.0  0.8995956506946997  0.5892188896154735  0.05468649638679322  1.0000
  H   H7        1.0  0.044254006895968694  0.7794003387047113  0.6020415870418174  1.0000
  H   H8        1.0  0.955744153473319  0.3979575928332011  0.22060295967284557  1.0000
  H   H9        1.0  0.5843721317678928  0.6518326499259642  0.5588820038013864  1.0000
  H   H10       1.0  0.415625989057908  0.4411194770853085  0.3481669021694954  1.0000
  H   H11       1.0  0.6169205647272022  0.8208285397964372  0.36743195667542483  1.0000
  H   H12       1.0  0.38308196365407104  0.632567799505672  0.1791696732309731  1.0000
  H   H13       1.0  0.21817904059961535  0.19918503068941357  0.9838535288485629  1.0000
  H   H14       1.0  0.781822018057575  0.016147813328288404  0.800814443334019  1.0000
  H   H15       1.0  0.21144706382636258  0.390109866508091  0.8128165518671151  1.0000
  H   H16       1.0  0.7885526489351163  0.18718573495491603  0.6098899601618085  1.0000
  H   H17       1.0  0.5761464835237007  0.4649188128075891  0.9283311557294808  1.0000
  H   H18       1.0  0.4238545536453202  0.07166807272694338  0.5350828174544303  1.0000
  H   H19       1.0  0.5630469954976149  0.2720072950389607  0.09726606287264164  1.0000
  H   H20       1.0  0.43695471439281164  0.9027334499949972  0.7279908306982747  1.0000
  H   H21       1.0  0.8854761363984596  0.4746465055344016  0.4831977965264257  1.0000
  H   H22       1.0  0.1145215602830874  0.5168021100045621  0.5253541649325724  1.0000
  H   H23       1.0  0.8712943337706491  0.3558679565574465  0.6178984182629889  1.0000
  H   H24       1.0  0.12870063311771668  0.3821002414810549  0.6441323907890959  1.0000
  H   H25       1.0  0.9910858020706149  0.9460312915564868  0.22194216617047854  1.0000
  H   H26       1.0  0.008914146233124226  0.7780576750588252  0.053969326939153524  1.0000
  H   H27       1.0  0.9961301749506009  0.0713324817650616  0.0932217346429239  1.0000
  H   H28       1.0  0.003872435105996921  0.9067777614544212  0.9286667552248172  1.0000
  C   C1        1.0  0.20509794545457552  0.8759847820296685  0.44486235684696823  1.0000
  C   C2        1.0  0.7949031067973285  0.5551377684000441  0.12401634943686439  1.0000
  C   C3        1.0  0.17389256166280387  0.78396915106034  0.5509658539855309  1.0000
  C   C4        1.0  0.8261065782011134  0.4490350665047842  0.21603163257861963  1.0000
  C   C5        1.0  0.3103971051121873  0.6995986080857148  0.5971535315262669  1.0000
  C   C6        1.0  0.6895999120688785  0.4028467011747806  0.300402470615495  1.0000
  C   C7        1.0  0.4742366436618612  0.7133462137996389  0.5283419043670532  1.0000
  C   C8        1.0  0.525762954492251  0.47165866001661516  0.286653570321171  1.0000
  C   C9        1.0  0.4922641220806342  0.8078251573293753  0.42177446508916455  1.0000
  C   C10       1.0  0.507736626628713  0.5782248993554973  0.19217440474686495  1.0000
  C   C11       1.0  0.2945718293433473  0.26156601057574136  0.9690879351903376  1.0000
  C   C12       1.0  0.7054282973145263  0.030912761901141998  0.7384331976789225  1.0000
  C   C13       1.0  0.29202850909856437  0.3675164167596634  0.8728563812340223  1.0000
  C   C14       1.0  0.7079705114245485  0.12714539636441913  0.6324826140529254  1.0000
  C   C15       1.0  0.3923898324109132  0.4460502762215627  0.8572876989400197  1.0000
  C   C16       1.0  0.6076091698426396  0.14271307480499468  0.5539499908335869  1.0000
  C   C17       1.0  0.49443396446573473  0.4086460251914446  0.9389275550769154  1.0000
  C   C18       1.0  0.5055653728372393  0.0610717819330944  0.5913549165096013  1.0000
  C   C19       1.0  0.48745742548236143  0.3017142417144214  0.03183115800950991  1.0000
  C   C20       1.0  0.5125443489029924  0.9681672868761023  0.6982851752474556  1.0000
  C   C21       1.0  0.10848602400079707  0.27609236393929126  0.4284358694917925  1.0000
  C   C22       1.0  0.8915124836573013  0.5715639477571131  0.7239090456233369  1.0000
  C   C23       1.0  0.9647918567007494  0.39573114204394244  0.5362299540638702  1.0000
  C   C24       1.0  0.03520461887812579  0.46376937404622964  0.6042691901552358  1.0000
  C   C25       1.0  0.24070892217132925  0.8894789814043874  0.04503310096821167  1.0000
  C   C26       1.0  0.7592921013195522  0.9549673167159864  0.11051910251362064  1.0000
  C   C27       1.0  0.0400053395850153  0.9564495598778747  0.10649953322639043  1.0000
  C   C28       1.0  0.9599988056272583  0.8935005119202869  0.04355083517159372  1.0000
  N   N1        1.0  0.2784023331342099  0.6131179863912378  0.7054821461744465  1.0000
  N   N2        1.0  0.7215952311666529  0.29451761865117015  0.3868825692412796  1.0000
  N   N3        1.0  0.3961234434805688  0.5554809943782857  0.7701506782873293  1.0000
  N   N4        1.0  0.6038759377933686  0.2298492370234442  0.44451845060041245  1.0000
  N   N5        1.0  0.3612554199701349  0.8901537072987298  0.3798492764832416  1.0000
  N   N6        1.0  0.638745457662175  0.6201497869724406  0.10984730743923161  1.0000
  N   N7        1.0  0.38793840771524657  0.22849817279543314  0.04951314129969829  1.0000
  N   N8        1.0  0.6120624591612794  0.9504865075369936  0.7715021949627427  1.0000
  O   O1        1.0  0.27017084438539746  0.2497056731461669  0.39537549227073027  1.0000
  O   O2        1.0  0.7298273208392344  0.6046251367869148  0.7502953241446091  1.0000
  O   O3        1.0  0.061067665457287  0.2056903180791068  0.3728245060706356  1.0000
  O   O4        1.0  0.9389301210163055  0.6271758328902806  0.794309464762662  1.0000
  O   O5        1.0  0.31949979609503754  0.9435940016717695  0.08397239218250961  1.0000
  O   O6        1.0  0.6805029706568819  0.9160284662879687  0.05640202292757833  1.0000
  O   O7        1.0  0.3262223768239778  0.783483188877362  0.9580160085637032  1.0000
  O   O8        1.0  0.6737782994298485  0.0419863067781563  0.2165148662248839  1.0000
