data_image0
_chemical_formula_structural       Zn4H24C42N12O10
_chemical_formula_sum              "Zn4 H24 C42 N12 O10"
_cell_length_a       7.53219974994684
_cell_length_b       10.490121592627009
_cell_length_c       14.764888850037611
_cell_angle_alpha    90.12347131360744
_cell_angle_beta     93.98204687117456
_cell_angle_gamma    108.95322014623173

_space_group_name_H-M_alt    "P 1"
_space_group_IT_number       1

loop_
  _space_group_symop_operation_xyz
  'x, y, z'

loop_
  _atom_site_type_symbol
  _atom_site_label
  _atom_site_symmetry_multiplicity
  _atom_site_fract_x
  _atom_site_fract_y
  _atom_site_fract_z
  _atom_site_occupancy
  Zn  Zn1       1.0  0.31525412226467614  0.3180820304460212  0.6187942058480543  1.0000
  Zn  Zn2       1.0  0.6847483471845665  0.681920509488677  0.38120667746065356  1.0000
  Zn  Zn3       1.0  0.5612272441060213  0.230852428895517  0.7768829466874294  1.0000
  Zn  Zn4       1.0  0.438774750070678  0.7691461301124106  0.2231164922360449  1.0000
  H   H1        1.0  0.5303242531664765  0.45978478756097013  0.7273829331102705  1.0000
  H   H2        1.0  0.46968798131609185  0.5402188696738932  0.2726168787031895  1.0000
  H   H3        1.0  0.17475086061129028  0.5780999207964969  0.4230562151605071  1.0000
  H   H4        1.0  0.8252516349175711  0.4219025777219728  0.576946023094969  1.0000
  H   H5        1.0  0.1859238943291642  0.9930838166358597  0.42427115064470666  1.0000
  H   H6        1.0  0.8140754559092969  0.006914681563230807  0.5757295712001848  1.0000
  H   H7        1.0  0.38809909867281794  0.8306249758645169  0.6615635806991733  1.0000
  H   H8        1.0  0.6119020357674998  0.16937755437388805  0.3384372665968698  1.0000
  H   H9        1.0  0.8326657118855181  0.5226089524438322  0.8700428282024363  1.0000
  H   H10       1.0  0.16733762405500138  0.4773835668859193  0.1299572080557212  1.0000
  H   H11       1.0  0.8894923891163061  0.6301392434119107  0.027587248601186297  1.0000
  H   H12       1.0  0.11050065388912599  0.3698603385642159  0.9724092597028431  1.0000
  H   H13       1.0  0.7114870613915019  0.502768577186494  0.1528350625583954  1.0000
  H   H14       1.0  0.28850332777833626  0.4972339790220912  0.8471621092693554  1.0000
  H   H15       1.0  0.4753307650050759  0.2887054113373609  0.20379669473876313  1.0000
  H   H16       1.0  0.5246623301595934  0.7112940878062944  0.7962025234587885  1.0000
  H   H17       1.0  0.24614731990659072  0.0603094092010323  0.16399763651816812  1.0000
  H   H18       1.0  0.753846664216546  0.9396890916290913  0.8360015863292674  1.0000
  H   H19       1.0  0.09605731946742674  0.8746046170431611  0.047412647504273805  1.0000
  H   H20       1.0  0.9039406665400309  0.12539089854268326  0.9525866253054929  1.0000
  H   H21       1.0  0.06664881618404918  0.7935486020894232  0.8845556101982268  1.0000
  H   H22       1.0  0.9333473527870454  0.20644897224783423  0.11544162089163021  1.0000
  H   H23       1.0  0.26811027211671506  0.9443367300330794  0.7726353419004609  1.0000
  H   H24       1.0  0.731888596094322  0.05566383661371791  0.2273633742371928  1.0000
  C   C1        1.0  0.3120013418637768  0.5753141555581891  0.5976584937202672  1.0000
  C   C2        1.0  0.6879998316959687  0.42468831255586553  0.4023443859959174  1.0000
  C   C3        1.0  0.27996058663252654  0.6919071933722664  0.5480534704157449  1.0000
  C   C4        1.0  0.7200396849289418  0.30809629376342673  0.4519487271771681  1.0000
  C   C5        1.0  0.2053565634350321  0.6753697759727828  0.4576276331269042  1.0000
  C   C6        1.0  0.7946463880416416  0.3246306955142159  0.5423752558890484  1.0000
  C   C7        1.0  0.17217009619130863  0.7837575060372616  0.412810403435401  1.0000
  C   C8        1.0  0.8278314681171963  0.21624303858590826  0.5871897396743577  1.0000
  C   C9        1.0  0.21258244294515546  0.9082105809270118  0.4580414823735524  1.0000
  C   C10       1.0  0.7874155754268416  0.09179092190896651  0.5419592615343589  1.0000
  C   C11       1.0  0.29226702184215014  0.9261457135789541  0.5475390631265782  1.0000
  C   C12       1.0  0.7077314556201202  0.07385677655873481  0.4524623896174944  1.0000
  C   C13       1.0  0.32514776018597763  0.8175978248060504  0.5921221024118566  1.0000
  C   C14       1.0  0.6748520522852175  0.1824046750279393  0.4078793863448952  1.0000
  C   C15       1.0  0.3427958985601975  0.06146146810848312  0.5941879966680262  1.0000
  C   C16       1.0  0.657206570889045  0.9385410718262153  0.40581288664068893  1.0000
  C   C17       1.0  0.08777175076264136  0.7677202877707928  0.318740353248117  1.0000
  C   C18       1.0  0.9122307025043311  0.23227925853884557  0.6812597945115328  1.0000
  C   C19       1.0  0.7567026978866593  0.47021585423159007  0.9266934545767357  1.0000
  C   C20       1.0  0.24329930618739593  0.5297796697350423  0.0733066037444345  1.0000
  C   C21       1.0  0.7877961029943634  0.5298741323416037  0.014289427453355997  1.0000
  C   C22       1.0  0.2122000790165472  0.470123421287532  0.9857084811098815  1.0000
  C   C23       1.0  0.6895903982038689  0.4590626243938232  0.0841971190262853  1.0000
  C   C24       1.0  0.3104044780201889  0.5409378924559576  0.9158021665467261  1.0000
  C   C25       1.0  0.5592155271298367  0.3286975010907582  0.0659773526418306  1.0000
  C   C26       1.0  0.4407815600218044  0.6713020478499132  0.9340212961203636  1.0000
  C   C27       1.0  0.45132347228333475  0.24808847554112395  0.1340944418882657  1.0000
  C   C28       1.0  0.5486731818576517  0.7519100446816012  0.8659048529845208  1.0000
  C   C29       1.0  0.3269725260937975  0.12252483749283272  0.1121970471083955  1.0000
  C   C30       1.0  0.673023226048919  0.8774747017515384  0.8878015656411195  1.0000
  C   C31       1.0  0.1762972619532946  0.9380114729789996  0.9958312135691614  1.0000
  C   C32       1.0  0.8237016192975445  0.06198907295968332  0.0041681800418658065  1.0000
  C   C33       1.0  0.16193584667690447  0.8928349021703357  0.906721746987742  1.0000
  C   C34       1.0  0.8380634383625108  0.10716369956934099  0.09327558749024692  1.0000
  C   C35       1.0  0.27334228858030224  0.9755708674730956  0.8434378250263066  1.0000
  C   C36       1.0  0.7266552153997168  0.024426716560455503  0.15655944207622946  1.0000
  C   C37       1.0  0.3017569115857626  0.06759231606074681  0.021370775998519803  1.0000
  C   C38       1.0  0.698238824374684  0.9324042295585571  0.9786271012019301  1.0000
  C   C39       1.0  0.40792662698950716  0.14473435340470078  0.9529299330763337  1.0000
  C   C40       1.0  0.5920735991676125  0.8552631671889871  0.0470701159450684  1.0000
  C   C41       1.0  0.5376915027399393  0.27735200874097643  0.975422694486305  1.0000
  C   C42       1.0  0.46230916946763767  0.7226465198625363  0.0245773858978779  1.0000
  N   N1        1.0  0.9035967247236981  0.7442521842080725  0.29718195869847364  1.0000
  N   N2        1.0  0.09640796869293675  0.25574936710940227  0.7028189652728045  1.0000
  N   N3        1.0  0.8784371180853372  0.7386972611026013  0.2055801401549644  1.0000
  N   N4        1.0  0.12156623717991275  0.2613012661853916  0.794420689727943  1.0000
  N   N5        1.0  0.04099183386293259  0.7579182002820134  0.172276233501556  1.0000
  N   N6        1.0  0.9590115344421263  0.24208030629786495  0.8277252738547318  1.0000
  N   N7        1.0  0.17576293154090195  0.7767793758873865  0.2415919360706553  1.0000
  N   N8        1.0  0.8242408697748046  0.22322015941043827  0.7584089251750399  1.0000
  N   N9        1.0  0.3932983075090491  0.09784070100401725  0.866070971088071  1.0000
  N   N10       1.0  0.6067023287215606  0.902160904057027  0.1339271349516693  1.0000
  N   N11       1.0  0.6356140374549  0.34739353640746623  0.9078578192427927  1.0000
  N   N12       1.0  0.3643901937290012  0.6526040132751236  0.09214233781662533  1.0000
  O   O1        1.0  0.27355298261339556  0.46512477113390094  0.5492930735536775  1.0000
  O   O2        1.0  0.7264410828910641  0.5348766197807039  0.4507102722097258  1.0000
  O   O3        1.0  0.36981405926622557  0.5889590314947099  0.6802947136166964  1.0000
  O   O4        1.0  0.630194225491259  0.4110475281519684  0.3197077581279473  1.0000
  O   O5        1.0  0.4259719728622855  0.07667597508518752  0.6731880816923166  1.0000
  O   O6        1.0  0.5740318185560727  0.9233265952539331  0.3268121601556899  1.0000
  O   O7        1.0  0.2959505526690194  0.15254251952654133  0.5503657459894455  1.0000
  O   O8        1.0  0.7040492467623668  0.8474600010155628  0.44963506529391845  1.0000
  O   O9        1.0  0.5438974708075577  0.37839639674223946  0.700889498517391  1.0000
  O   O10       1.0  0.456108528395916  0.6216021913545902  0.2991100484441063  1.0000
