data_image0
_chemical_formula_structural       Cu8H20C24N20
_chemical_formula_sum              "Cu8 H20 C24 N20"
_cell_length_a       7.72817736014105
_cell_length_b       7.7282486064487035
_cell_length_c       14.62465718000179
_cell_angle_alpha    78.01461757212495
_cell_angle_beta     78.01481738441359
_cell_angle_gamma    70.41037967792407

_space_group_name_H-M_alt    "P 1"
_space_group_IT_number       1

loop_
  _space_group_symop_operation_xyz
  'x, y, z'

loop_
  _atom_site_type_symbol
  _atom_site_label
  _atom_site_symmetry_multiplicity
  _atom_site_fract_x
  _atom_site_fract_y
  _atom_site_fract_z
  _atom_site_occupancy
  Cu  Cu1       1.0  0.961484081037483  0.20094885609120183  0.6772935692967155  1.0000
  Cu  Cu2       1.0  0.7990449058907886  0.03852065792136021  0.8227052595893625  1.0000
  Cu  Cu3       1.0  0.03851857735693899  0.7990465316886886  0.32270298556580473  1.0000
  Cu  Cu4       1.0  0.20095120195265542  0.9614830435864405  0.17729383531865747  1.0000
  Cu  Cu5       1.0  0.47384404967930743  0.8735064588892884  0.466696062475208  1.0000
  Cu  Cu6       1.0  0.1264982931183596  0.5261581503297776  0.033304535737940504  1.0000
  Cu  Cu7       1.0  0.5261595465985139  0.12649868907386974  0.5333027277651966  1.0000
  Cu  Cu8       1.0  0.8735021846799641  0.4738400116050556  0.9666940047915562  1.0000
  H   H1        1.0  0.0598510998522386  0.1576206700664216  0.4733326903701496  1.0000
  H   H2        1.0  0.8423720842438913  0.9401432682271106  0.02666779740087582  1.0000
  H   H3        1.0  0.9401440999394243  0.8423774565379034  0.5266671217384697  1.0000
  H   H4        1.0  0.1576204756681676  0.0598548398382661  0.9733323088017657  1.0000
  H   H5        1.0  0.551899338495403  0.7035317816260473  0.6324274027004152  1.0000
  H   H6        1.0  0.29646468718022584  0.4481021470945237  0.8675749709599004  1.0000
  H   H7        1.0  0.44809984393712915  0.2964705510769505  0.3675721872813186  1.0000
  H   H8        1.0  0.7035336135270784  0.5518987924900287  0.1324269220187375  1.0000
  H   H9        1.0  0.7058291786908272  0.5082270634158448  0.6927724661342085  1.0000
  H   H10       1.0  0.4917687184856164  0.29416798317744497  0.8072316441639275  1.0000
  H   H11       1.0  0.29416602285336774  0.49177106493586825  0.3072280293654971  1.0000
  H   H12       1.0  0.5082291317008654  0.7058301724501418  0.19277197419717138  1.0000
  H   H13       1.0  0.691425006304982  0.6367242111387483  0.32634307844863747  1.0000
  H   H14       1.0  0.3632774570142772  0.30857514090519805  0.17366352308443572  1.0000
  H   H15       1.0  0.3085834420326917  0.36328236823559484  0.6736570680003312  1.0000
  H   H16       1.0  0.6367199444039215  0.6914202325128046  0.8263425040502173  1.0000
  H   H17       1.0  0.9503976478382229  0.3297688418931699  0.31878164750548893  1.0000
  H   H18       1.0  0.6702353674966518  0.049598150228724984  0.1812184403525734  1.0000
  H   H19       1.0  0.04960901952361499  0.6702349337704234  0.6812162710264502  1.0000
  H   H20       1.0  0.3297681866432924  0.9503986446487006  0.8187812786417085  1.0000
  C   C1        1.0  0.3108005149894452  0.9645971490388944  0.5723137871315631  1.0000
  C   C2        1.0  0.035406159341945936  0.6892062891001487  0.927683105761979  1.0000
  C   C3        1.0  0.6892109974220942  0.035408051046339  0.4276827540446107  1.0000
  C   C4        1.0  0.9645903533793644  0.310791839784109  0.07231382573530003  1.0000
  C   C5        1.0  0.9255326049948209  0.30757076123717286  0.7854065170668607  1.0000
  C   C6        1.0  0.6924209522376896  0.0744666407278274  0.7145936264020563  1.0000
  C   C7        1.0  0.07446653354730161  0.6924232166327045  0.21459331827767172  1.0000
  C   C8        1.0  0.30758085601565455  0.9255315409607976  0.28540886742693067  1.0000
  C   C9        1.0  0.9462839550730281  0.28763864962706975  0.4702001165773596  1.0000
  C   C10       1.0  0.7123664238457862  0.05371170338953849  0.029799261624880644  1.0000
  C   C11       1.0  0.053713038000722725  0.7123664484939454  0.5297980421159281  1.0000
  C   C12       1.0  0.28763756500364934  0.9462837041441361  0.9702012465371298  1.0000
  C   C13       1.0  0.7276149104614335  0.51227522909074  0.5516559233838053  1.0000
  C   C14       1.0  0.48772481983522203  0.27238335461296975  0.9483441992474013  1.0000
  C   C15       1.0  0.2723842667134875  0.487727098370108  0.44834161642467063  1.0000
  C   C16       1.0  0.5122738892550204  0.7276120158428157  0.05165689710265305  1.0000
  C   C17       1.0  0.7452011667832109  0.5494309417180787  0.38928751012990404  1.0000
  C   C18       1.0  0.4505729887805431  0.25479762856859617  0.11071372183403841  1.0000
  C   C19       1.0  0.2548042034603028  0.45057700296628417  0.6107107744631861  1.0000
  C   C20       1.0  0.5494274732064498  0.7451963620655349  0.8892873332456549  1.0000
  C   C21       1.0  0.8875412543517315  0.38313594960139596  0.3850603750127278  1.0000
  C   C22       1.0  0.6168745555727001  0.1124527868547816  0.11493836102829388  1.0000
  C   C23       1.0  0.11245840142309053  0.6168733453488143  0.6149377086006851  1.0000
  C   C24       1.0  0.38313250260821263  0.8875412466319402  0.8850605920341722  1.0000
  N   N1        1.0  0.1788559144142639  0.0196853863817736  0.6282782279045308  1.0000
  N   N2        1.0  0.9803232311238759  0.8211355462681881  0.8717236707208684  1.0000
  N   N3        1.0  0.8211353940224199  0.9803252472848814  0.3717226823875492  1.0000
  N   N4        1.0  0.01967503975180311  0.17886120803656516  0.12827526967929265  1.0000
  N   N5        1.0  0.8696790747876904  0.3498721993751913  0.5531061709146317  1.0000
  N   N6        1.0  0.6501234725529343  0.1303186728813372  0.9468983466980988  1.0000
  N   N7        1.0  0.13031876838864062  0.6501259492628508  0.4468947138821379  1.0000
  N   N8        1.0  0.3498721689583635  0.8696780733687887  0.05310498814258583  1.0000
  N   N9        1.0  0.6445703468796039  0.5734960856399737  0.6343135682662366  1.0000
  N   N10       1.0  0.4264994208765743  0.3554280287601586  0.8656895738190686  1.0000
  N   N11       1.0  0.35542573989490484  0.4265034393249536  0.3656859910187294  1.0000
  N   N12       1.0  0.5734971076175697  0.6445701158505697  0.13431350819796253  1.0000
  N   N13       1.0  0.9152309828901792  0.3856803166364244  0.8485939865733415  1.0000
  N   N14       1.0  0.614323939454067  0.0847686845524507  0.6514066478096794  1.0000
  N   N15       1.0  0.08476556316782789  0.6143220010224013  0.15140726428457907  1.0000
  N   N16       1.0  0.3856796094282728  0.9152281050828182  0.3485910210113516  1.0000
  N   N17       1.0  0.664460787968551  0.6150946373609614  0.4710722438225901  1.0000
  N   N18       1.0  0.3849032200171862  0.3355422292131395  0.028928300165240714  1.0000
  N   N19       1.0  0.3355428048041986  0.38491050710742064  0.5289251796356497  1.0000
  N   N20       1.0  0.6150924144839679  0.6644545100474415  0.9710723011111072  1.0000
