data_image0
_chemical_formula_structural       Ag2H14C18N6O8
_chemical_formula_sum              "Ag2 H14 C18 N6 O8"
_cell_length_a       6.050280405430034
_cell_length_b       7.041339282816675
_cell_length_c       12.730550877498096
_cell_angle_alpha    91.56291882681539
_cell_angle_beta     96.57292216353054
_cell_angle_gamma    101.45156670380482

_space_group_name_H-M_alt    "P 1"
_space_group_IT_number       1

loop_
  _space_group_symop_operation_xyz
  'x, y, z'

loop_
  _atom_site_type_symbol
  _atom_site_label
  _atom_site_symmetry_multiplicity
  _atom_site_fract_x
  _atom_site_fract_y
  _atom_site_fract_z
  _atom_site_occupancy
  Ag  Ag1       1.0  0.23449560745023493  0.0695835345638969  0.5494189212455963  1.0000
  Ag  Ag2       1.0  0.7654847389875528  0.9304246255644414  0.4505769877619698  1.0000
  H   H1        1.0  0.1933623326367666  0.3693408507102021  0.37546760340722324  1.0000
  H   H2        1.0  0.8066252525563372  0.6306629617112378  0.6245277391028168  1.0000
  H   H3        1.0  0.3219105388182655  0.4158208155290097  0.7046193670343399  1.0000
  H   H4        1.0  0.6780671790140573  0.5841903457486096  0.2953749361462457  1.0000
  H   H5        1.0  0.3451879874581677  0.779391395387144  0.7012641781971851  1.0000
  H   H6        1.0  0.654796731856628  0.2206211848147532  0.2987305175629729  1.0000
  H   H7        1.0  0.2676575858313655  0.2575774113678833  0.9226626869615231  1.0000
  H   H8        1.0  0.7323703055309143  0.7424272388166387  0.07734253933020338  1.0000
  H   H9        1.0  0.2293405809477349  0.8967978297259904  0.347594549488889  1.0000
  H   H10       1.0  0.770653038894558  0.10321039492426107  0.6523996618980377  1.0000
  H   H11       1.0  0.21781761015573406  0.6705757610230945  0.2838714886653051  1.0000
  H   H12       1.0  0.7821846660169031  0.3294339171333078  0.7161224125538437  1.0000
  H   H13       1.0  0.044435583129249785  0.6020014005210115  0.8527759382090281  1.0000
  H   H14       1.0  0.9556000323516398  0.39800748434106464  0.1472313785704316  1.0000
  C   C1        1.0  0.2523835212147815  0.6679216828612196  0.44477834187119203  1.0000
  C   C2        1.0  0.7476144576559065  0.3320910467158313  0.5552130865250504  1.0000
  C   C3        1.0  0.23097794433812874  0.4627928454907673  0.44791044622273546  1.0000
  C   C4        1.0  0.7689773791689731  0.5372080880944594  0.5520855623759288  1.0000
  C   C5        1.0  0.2983799234718703  0.48919339581924964  0.6313714630807823  1.0000
  C   C6        1.0  0.701629715501312  0.5108191091380689  0.3686236796720195  1.0000
  C   C7        1.0  0.31110643468500143  0.686731860300867  0.6289339191173154  1.0000
  C   C8        1.0  0.6888369983710732  0.31327502210864105  0.3710601190735261  1.0000
  C   C9        1.0  0.15103922412939136  0.14477720759291657  0.9573130945700612  1.0000
  C   C10       1.0  0.8489774916313878  0.855195891022305  0.0426842786863801  1.0000
  C   C11       1.0  0.0296077478639845  0.9867881443954616  0.8918967147472187  1.0000
  C   C12       1.0  0.9703914595091233  0.013187559278861697  0.10810694715171108  1.0000
  C   C13       1.0  0.8786770499358028  0.8403082463864846  0.9357103395212006  1.0000
  C   C14       1.0  0.121340395385424  0.15966762555538588  0.0642895165150321  1.0000
  C   C15       1.0  0.04884084305491846  0.9872748736094364  0.7743057127145789  1.0000
  C   C16       1.0  0.9511434399591111  0.0127208890345329  0.22570413982015214  1.0000
  C   C17       1.0  0.7508528147152307  0.6604771415459821  0.8735750576437267  1.0000
  C   C18       1.0  0.2491557484127753  0.3395152209806297  0.1264429624351777  1.0000
  N   N1        1.0  0.24536466964007522  0.7542524464249565  0.3524642428639808  1.0000
  N   N2        1.0  0.7546199671753583  0.2457527047093677  0.6475333540948469  1.0000
  N   N3        1.0  0.28314515176473526  0.776145435100233  0.5372122517490894  1.0000
  N   N4        1.0  0.7168378094298972  0.2238598087320937  0.4627836933421675  1.0000
  N   N5        1.0  0.2520938690634508  0.37821770138845057  0.5392043362000436  1.0000
  N   N6        1.0  0.7478860197082826  0.6217817066489317  0.4607920553088292  1.0000
  O   O1        1.0  0.22773991162851098  0.08735621158513844  0.7458646255679328  1.0000
  O   O2        1.0  0.7722337118755647  0.9125962116674201  0.2541401650071506  1.0000
  O   O3        1.0  0.8778756391495365  0.8916676311562312  0.7137111593739646  1.0000
  O   O4        1.0  0.122180011506849  0.1083607660961832  0.2863111364960531  1.0000
  O   O5        1.0  0.8832435504439006  0.5410609962127494  0.8370754765567625  1.0000
  O   O6        1.0  0.11680236929090167  0.4589494191639929  0.16293004243592427  1.0000
  O   O7        1.0  0.5452667277680092  0.6058631301013121  0.8630044863506042  1.0000
  O   O8        1.0  0.4547902658723473  0.39411891417057626  0.1369873115426188  1.0000
