data_image0
_chemical_formula_structural       Cu4H48C28N8O16
_chemical_formula_sum              "Cu4 H48 C28 N8 O16"
_cell_length_a       5.860815752366741
_cell_length_b       9.191901797696078
_cell_length_c       17.71072550906153
_cell_angle_alpha    90.00025162779284
_cell_angle_beta     89.99976524000195
_cell_angle_gamma    107.50163995473847

_space_group_name_H-M_alt    "P 1"
_space_group_IT_number       1

loop_
  _space_group_symop_operation_xyz
  'x, y, z'

loop_
  _atom_site_type_symbol
  _atom_site_label
  _atom_site_symmetry_multiplicity
  _atom_site_fract_x
  _atom_site_fract_y
  _atom_site_fract_z
  _atom_site_occupancy
  Cu  Cu1       1.0  0.9366243436437784  0.24303564997698146  0.2883238099245772  1.0000
  Cu  Cu2       1.0  0.06337929876259812  0.25695967270842607  0.7883310302552713  1.0000
  Cu  Cu3       1.0  0.06337336686807055  0.7569626136600788  0.7116746670430556  1.0000
  Cu  Cu4       1.0  0.9366165992880084  0.7430420079080875  0.21166914060633243  1.0000
  H   H1        1.0  0.1195398994810546  0.15598050927950882  0.4018543316872111  1.0000
  H   H2        1.0  0.8804516815765453  0.34402124175084486  0.9018572712565527  1.0000
  H   H3        1.0  0.8804515153208428  0.8440188847294579  0.5981469684339656  1.0000
  H   H4        1.0  0.11954773638029792  0.6559770244877965  0.09814515811719098  1.0000
  H   H5        1.0  0.39350934798056164  0.32941174745707263  0.28940327991465137  1.0000
  H   H6        1.0  0.6064942842464659  0.1705835823042179  0.7894067514786085  1.0000
  H   H7        1.0  0.6064896408211595  0.6705819584927822  0.7105963263060884  1.0000
  H   H8        1.0  0.393506307024012  0.8294135458004277  0.21059398400421253  1.0000
  H   H9        1.0  0.2924468367074979  0.4331209752616089  0.22781310464247884  1.0000
  H   H10       1.0  0.7075607922460703  0.0668739552558932  0.7278173314853686  1.0000
  H   H11       1.0  0.7075487371642308  0.5668727255129085  0.7721870662101508  1.0000
  H   H12       1.0  0.29244257480946356  0.9331254568676925  0.2721822747390163  1.0000
  H   H13       1.0  0.5845352255479386  0.850095648184663  0.4212554928179556  1.0000
  H   H14       1.0  0.41545318994180047  0.6499149098881888  0.9212625601985491  1.0000
  H   H15       1.0  0.41545597928814  0.14991058494000237  0.5787429841631989  1.0000
  H   H16       1.0  0.5845559386469928  0.3500822311594405  0.0787381752785805  1.0000
  H   H17       1.0  0.8884605159097844  0.9018614432496577  0.4472949373057985  1.0000
  H   H18       1.0  0.11152263620195414  0.5981458584784604  0.9473017275963329  1.0000
  H   H19       1.0  0.1115250323692649  0.09814364139774769  0.552705233566641  1.0000
  H   H20       1.0  0.8884828674883635  0.4018581165113845  0.05269731400226619  1.0000
  H   H21       1.0  0.7285633608430118  0.10100987811914308  0.4840526392469966  1.0000
  H   H22       1.0  0.2714159206503838  0.39899695482314  0.9840582142396028  1.0000
  H   H23       1.0  0.2714233607416788  0.898994068399837  0.5159475316233538  1.0000
  H   H24       1.0  0.7285777357705285  0.6010035824933126  0.015943650511005096  1.0000
  H   H25       1.0  0.039908854408395235  0.3267903410098683  0.5018787166106904  1.0000
  H   H26       1.0  0.9600845875090797  0.17321562017846756  0.0018837259931032994  1.0000
  H   H27       1.0  0.9600881119556064  0.6732136210425422  0.49812201888242663  1.0000
  H   H28       1.0  0.03991941869405488  0.826781513099661  0.9981158802282265  1.0000
  H   H29       1.0  0.9043050590201389  0.4057841040616523  0.4289043693909561  1.0000
  H   H30       1.0  0.0956963013030645  0.09422467925459439  0.9289100425845758  1.0000
  H   H31       1.0  0.09569809805358188  0.5942221471887521  0.5710958014710455  1.0000
  H   H32       1.0  0.9043070657578055  0.9057747328652823  0.0710884343805915  1.0000
  H   H33       1.0  0.33382913929524693  0.5542916248450921  0.4556181134002059  1.0000
  H   H34       1.0  0.6661751678989986  0.9457100641877291  0.9556238323225794  1.0000
  H   H35       1.0  0.6661747619236493  0.4457089279918165  0.5443803635659135  1.0000
  H   H36       1.0  0.3338270258509013  0.05429048606428209  0.04437577390389438  1.0000
  H   H37       1.0  0.42430428048711377  0.39600097462073336  0.4282237359852984  1.0000
  H   H38       1.0  0.5756912105382028  0.1039952563313378  0.9282270954766005  1.0000
  H   H39       1.0  0.5756923616980103  0.6039950075896955  0.5717769994988514  1.0000
  H   H40       1.0  0.4243116223566403  0.8960030150770777  0.07177307537643429  1.0000
  H   H41       1.0  0.17777436074433692  0.5738365616543533  0.32600073825875586  1.0000
  H   H42       1.0  0.8222374665517405  0.9261631459057894  0.8260078972421352  1.0000
  H   H43       1.0  0.8222268696817422  0.4261582875992715  0.6739983033321975  1.0000
  H   H44       1.0  0.17776312472140893  0.0738339821970015  0.17399227361108416  1.0000
  H   H45       1.0  0.4905418664195835  0.5939239841278905  0.3285272696063472  1.0000
  H   H46       1.0  0.5094666270838032  0.906072315274656  0.828531977735629  1.0000
  H   H47       1.0  0.5094581906982044  0.4060720032560212  0.6714723366163041  1.0000
  H   H48       1.0  0.49053449835003704  0.09392595354330519  0.17146762848894065  1.0000
  C   C1        1.0  0.8288935490698179  0.8973524656197752  0.3285019841329983  1.0000
  C   C2        1.0  0.171106092378544  0.6026540793659549  0.8285081404508075  1.0000
  C   C3        1.0  0.17111078130687218  0.1026526475040583  0.671498751356516  1.0000
  C   C4        1.0  0.8289210741867024  0.39734878855490763  0.1714897718728068  1.0000
  C   C5        1.0  0.7619753049197444  0.9295482683366033  0.4083756995589311  1.0000
  C   C6        1.0  0.23800810985120793  0.5704621973935246  0.9083816922293972  1.0000
  C   C7        1.0  0.23801301914169667  0.0704591003315969  0.5916239066846741  1.0000
  C   C8        1.0  0.7620014479087089  0.429539503931764  0.09161847862308287  1.0000
  C   C9        1.0  0.7550546561875962  0.0924389792450526  0.4227112510532932  1.0000
  C   C10       1.0  0.24493192961527646  0.40757088083000065  0.9227185751133997  1.0000
  C   C11       1.0  0.24493025294651735  0.9075683842459625  0.5772883551925858  1.0000
  C   C12       1.0  0.7550668491966306  0.5924296642522364  0.07728328963379028  1.0000
  C   C13       1.0  0.53998071362426  0.12152467105269689  0.38266507349261036  1.0000
  C   C14       1.0  0.4600075287606559  0.3784803683762448  0.8826731720441925  1.0000
  C   C15       1.0  0.4600037663467377  0.8784781321551023  0.6173334034890912  1.0000
  C   C16       1.0  0.5399903917090114  0.6215110561506875  0.11732982195228195  1.0000
  C   C17       1.0  0.04290233769879144  0.35006018383062104  0.4405644830088419  1.0000
  C   C18       1.0  0.9570888776754884  0.14994182139395917  0.9405702610316947  1.0000
  C   C19       1.0  0.9570963361342069  0.64994378080668  0.5594351232239203  1.0000
  C   C20       1.0  0.042912247755687534  0.8500564474258566  0.0594299098224766  1.0000
  C   C21       1.0  0.2887470779476685  0.45474801082416144  0.41785898858996967  1.0000
  C   C22       1.0  0.711254701700625  0.0452504412643151  0.9178609021861491  1.0000
  C   C23       1.0  0.7112557549471674  0.5452502605842539  0.5821411822630651  1.0000
  C   C24       1.0  0.28874706288082314  0.9547455487081963  0.08213870403536558  1.0000
  C   C25       1.0  0.31056650879201453  0.5135498799768713  0.3368222710848129  1.0000
  C   C26       1.0  0.6894401988850946  0.9864464713086037  0.8368280526573313  1.0000
  C   C27       1.0  0.6894347216367366  0.48644496927490616  0.6631762058765246  1.0000
  C   C28       1.0  0.3105631681651104  0.0135529408186983  0.16317268282627134  1.0000
  N   N1        1.0  0.9807852328509837  0.2050574194696111  0.3985671029796832  1.0000
  N   N2        1.0  0.01920520594574533  0.2949454481093028  0.8985716467004179  1.0000
  N   N3        1.0  0.019206611124694652  0.7949465348151608  0.6014330678872426  1.0000
  N   N4        1.0  0.9807947461797965  0.7050539588389453  0.1014285241558497  1.0000
  N   N5        1.0  0.26993168218594127  0.3881404750778544  0.28113386495787296  1.0000
  N   N6        1.0  0.7300782188574004  0.1118570895878719  0.7811387298476047  1.0000
  N   N7        1.0  0.730068374934504  0.6118555123042029  0.7188651766351766  1.0000
  N   N8        1.0  0.2699251481954691  0.8881423225375684  0.21886144100638205  1.0000
  O   O1        1.0  0.33414990713504267  0.05486098563019939  0.4079735273968906  1.0000
  O   O2        1.0  0.6658337179266169  0.44513851380725805  0.9079809393379886  1.0000
  O   O3        1.0  0.6658317970535704  0.9451395335567977  0.5920255142136523  1.0000
  O   O4        1.0  0.3341652708617744  0.5548551921518695  0.09202149003079538  1.0000
  O   O5        1.0  0.5843981596767804  0.21112127454630067  0.3254585689140653  1.0000
  O   O6        1.0  0.41559745295921163  0.28888339959600273  0.8254659560179575  1.0000
  O   O7        1.0  0.41560328993593737  0.7888849741136565  0.6745410373194642  1.0000
  O   O8        1.0  0.5843983308730004  0.7111034620665253  0.1745381672339192  1.0000
  O   O9        1.0  0.8437234901542893  0.9917237549106726  0.2756002409774254  1.0000
  O   O10       1.0  0.15627889264544598  0.5082835860079699  0.7756061998970976  1.0000
  O   O11       1.0  0.15627454452844347  0.008282488573939898  0.7243999298880011  1.0000
  O   O12       1.0  0.8437816790532153  0.49172503209462803  0.22439227704039405  1.0000
  O   O13       1.0  0.8645989034254596  0.7670262583377649  0.3191899387442091  1.0000
  O   O14       1.0  0.13537190410679772  0.732976761924938  0.8191936197193852  1.0000
  O   O15       1.0  0.1353963554748816  0.2329777011260531  0.6808107967500445  1.0000
  O   O16       1.0  0.8646207890143031  0.26701807437643765  0.18080259872922255  1.0000
