data_image0
_chemical_formula_structural       Ag2H8C12N10
_chemical_formula_sum              "Ag2 H8 C12 N10"
_cell_length_a       4.779126503178781
_cell_length_b       8.897809453612853
_cell_length_c       9.33466622317517
_cell_angle_alpha    64.54237567667427
_cell_angle_beta     87.45112589280328
_cell_angle_gamma    79.83751116817692

_space_group_name_H-M_alt    "P 1"
_space_group_IT_number       1

loop_
  _space_group_symop_operation_xyz
  'x, y, z'

loop_
  _atom_site_type_symbol
  _atom_site_label
  _atom_site_symmetry_multiplicity
  _atom_site_fract_x
  _atom_site_fract_y
  _atom_site_fract_z
  _atom_site_occupancy
  Ag  Ag1       1.0  0.20677168155556563  0.7144420105101045  0.45327809653058904  1.0000
  Ag  Ag2       1.0  0.7932280207043689  0.28555581643401234  0.5467215873139608  1.0000
  H   H1        1.0  0.37546290856045067  0.5904397342506225  0.006999628584743905  1.0000
  H   H2        1.0  0.6245441941932128  0.40956682329376537  0.9930085556470303  1.0000
  H   H3        1.0  0.5746806657051167  0.7368438627835514  0.7375062442948989  1.0000
  H   H4        1.0  0.42530945742284126  0.26315836676683074  0.2624949244312092  1.0000
  H   H5        1.0  0.3077713645169311  0.021806517588110804  0.5499514263966319  1.0000
  H   H6        1.0  0.6922220981137599  0.9781847292699906  0.4500595773420172  1.0000
  H   H7        1.0  0.6841231898780292  0.011880557420866496  0.8754307842843971  1.0000
  H   H8        1.0  0.31586792703185307  0.9881089805269879  0.12456577284228847  1.0000
  C   C1        1.0  0.8833594834662295  0.7019085533336094  0.11115651207773421  1.0000
  C   C2        1.0  0.11663983688949027  0.2980986452976494  0.8888455649628709  1.0000
  C   C3        1.0  0.013231261933498177  0.7872409717591679  0.9598969093581573  1.0000
  C   C4        1.0  0.9867986463585371  0.21273945319862256  0.04012018864099078  1.0000
  C   C5        1.0  0.26797236602920554  0.712064542698094  0.9200837388707086  1.0000
  C   C6        1.0  0.7320054576730826  0.2879310133391044  0.07991949219962174  1.0000
  C   C7        1.0  0.3779198503796336  0.7943703355131077  0.7715434287735549  1.0000
  C   C8        1.0  0.6220703561000177  0.205624879843107  0.2284470054013994  1.0000
  C   C9        1.0  0.23139324081415663  0.9516569433671477  0.6675407197056558  1.0000
  C   C10       1.0  0.7686026880103043  0.04834692113595909  0.3324496938014505  1.0000
  C   C11       1.0  0.881165247403665  0.9467812212992397  0.8490692639193754  1.0000
  C   C12       1.0  0.11885939115922642  0.05322139695149987  0.1509355734544542  1.0000
  N   N1        1.0  0.6563264794778263  0.7758353710432214  0.16355846734526133  1.0000
  N   N2        1.0  0.343688841249751  0.22415637057093812  0.8364354666307036  1.0000
  N   N3        1.0  0.6014184715058943  0.6569333986626233  0.3027586840675767  1.0000
  N   N4        1.0  0.3985883679286746  0.34307868759613996  0.697235780232461  1.0000
  N   N5        1.0  0.7891165361949389  0.5148039008370942  0.33346535163240537  1.0000
  N   N6        1.0  0.2108904330663465  0.4852101057885674  0.6665328149138575  1.0000
  N   N7        1.0  0.9693966691977636  0.5391966319438878  0.21510571231540612  1.0000
  N   N8        1.0  0.030597129106716626  0.46081018035017945  0.7848893304859885  1.0000
  N   N9        1.0  0.9884131863686034  0.02743080093306817  0.7056657207773824  1.0000
  N   N10       1.0  0.01155514155340137  0.9725621435162354  0.29432826062335954  1.0000
