data_image0
_chemical_formula_structural       Mn4H56C80S8N16O16
_chemical_formula_sum              "Mn4 H56 C80 S8 N16 O16"
_cell_length_a       8.893503622724266
_cell_length_b       16.68775193247792
_cell_length_c       19.23869382906776
_cell_angle_alpha    89.99975479890989
_cell_angle_beta     90.00023493453352
_cell_angle_gamma    103.66997002810426

_space_group_name_H-M_alt    "P 1"
_space_group_IT_number       1

loop_
  _space_group_symop_operation_xyz
  'x, y, z'

loop_
  _atom_site_type_symbol
  _atom_site_label
  _atom_site_symmetry_multiplicity
  _atom_site_fract_x
  _atom_site_fract_y
  _atom_site_fract_z
  _atom_site_occupancy
  Mn  Mn1       1.0  0.816972606713371  0.9796540084629654  0.5618671186320084  1.0000
  Mn  Mn2       1.0  0.1830293986626187  0.5203494082615162  0.061884894346349  1.0000
  Mn  Mn3       1.0  0.18301815368292298  0.020348083081422892  0.4381145968499992  1.0000
  Mn  Mn4       1.0  0.8169701762829716  0.47963863392012474  0.9381087762439222  1.0000
  H   H1        1.0  0.19488658568371872  0.34058816285183713  0.10616319694664608  1.0000
  H   H2        1.0  0.8051122276282996  0.15940920632828437  0.6061632341968206  1.0000
  H   H3        1.0  0.8051125505361865  0.659409704395102  0.8938372308402547  1.0000
  H   H4        1.0  0.19489171397534483  0.8405948476553036  0.3938371935830105  1.0000
  H   H5        1.0  0.1054852958339438  0.24195909921861863  0.20376399842889004  1.0000
  H   H6        1.0  0.8945055480102652  0.2580359600515293  0.7037659134351699  1.0000
  H   H7        1.0  0.894509070401881  0.7580381104595446  0.7962353897831278  1.0000
  H   H8        1.0  0.10549861298125761  0.7419631813854508  0.2962381528547411  1.0000
  H   H9        1.0  0.8284945499306317  0.40571447472353833  0.2757625050104124  1.0000
  H   H10       1.0  0.1714966979971848  0.09428275431844918  0.7757647085703139  1.0000
  H   H11       1.0  0.17149508171890906  0.5942876065547579  0.7242342842589622  1.0000
  H   H12       1.0  0.8285026575827814  0.9057102003973936  0.2242315609395646  1.0000
  H   H13       1.0  0.9306247851602337  0.49775678548115815  0.1742009600640415  1.0000
  H   H14       1.0  0.06937691636241541  0.0022434063239771  0.674204355811419  1.0000
  H   H15       1.0  0.06937952089429435  0.5022454288674679  0.8257953094331327  1.0000
  H   H16       1.0  0.9306160662816227  0.9977531764988754  0.3257913938998199  1.0000
  H   H17       1.0  0.5739114347933024  0.15566779300534958  0.46679909181423795  1.0000
  H   H18       1.0  0.4260888585594457  0.34433366005984567  0.9667982386541425  1.0000
  H   H19       1.0  0.42608962996529687  0.8443374635228336  0.5332013359606194  1.0000
  H   H20       1.0  0.5739225493680067  0.6556612468921869  0.0332001100066819  1.0000
  H   H21       1.0  0.5397559414458043  0.2452080246491447  0.4237258010034424  1.0000
  H   H22       1.0  0.4602410226156977  0.25479172945730266  0.9237274276496166  1.0000
  H   H23       1.0  0.4602389697684687  0.7547959474373724  0.5762787850544697  1.0000
  H   H24       1.0  0.5397667441467461  0.7452025301517081  0.0762750792954421  1.0000
  H   H25       1.0  0.668885740997652  0.2553153002190668  0.49548857209877173  1.0000
  H   H26       1.0  0.33112189436312894  0.2446842604493255  0.9954920719154359  1.0000
  H   H27       1.0  0.3311116825829643  0.7446893089733421  0.5045123754596688  1.0000
  H   H28       1.0  0.6688963960697621  0.7553082516413453  0.0045104350428389  1.0000
  H   H29       1.0  0.4206021638614388  0.5420360066329621  0.9337940625510442  1.0000
  H   H30       1.0  0.5793956129717728  0.9579683250046357  0.4337937912118263  1.0000
  H   H31       1.0  0.5793981365493793  0.45796740002312214  0.066202726725912  1.0000
  H   H32       1.0  0.420592125548005  0.04203189615512311  0.5662045574166683  1.0000
  H   H33       1.0  0.5135483525923945  0.6410031388368225  0.8393634374200686  1.0000
  H   H34       1.0  0.4864525012704278  0.8589997596227831  0.3393644016148087  1.0000
  H   H35       1.0  0.486451693040152  0.35899965119281046  0.16063335185780397  1.0000
  H   H36       1.0  0.5135471444985953  0.14099934088117996  0.660633947027037  1.0000
  H   H37       1.0  0.22637254112196092  0.7941770984432847  0.9227146911259323  1.0000
  H   H38       1.0  0.773626649912252  0.7058254478768898  0.42271313432633656  1.0000
  H   H39       1.0  0.773621096197253  0.20582379051307945  0.0772888553649551  1.0000
  H   H40       1.0  0.2263806781133653  0.29417863680361467  0.577293011100515  1.0000
  H   H41       1.0  0.1470974635246803  0.6884046323612619  0.0165155605710083  1.0000
  H   H42       1.0  0.8529133582526569  0.8115965904840791  0.5165140772152482  1.0000
  H   H43       1.0  0.8529118319092247  0.31159332700539005  0.9834874661543579  1.0000
  H   H44       1.0  0.14708107880288424  0.18841167751846646  0.4834889494767367  1.0000
  H   H45       1.0  0.427965607104376  0.030262955063143696  0.7595841387984094  1.0000
  H   H46       1.0  0.5720434765039216  0.4697369584000126  0.2595879676578079  1.0000
  H   H47       1.0  0.5720373153843425  0.9697386324156978  0.2404157691992879  1.0000
  H   H48       1.0  0.4279521282254349  0.5302578052414543  0.7404129799173942  1.0000
  H   H49       1.0  0.2370388142450324  0.9664098045290073  0.7666081460275507  1.0000
  H   H50       1.0  0.7629680384841321  0.5335928282228506  0.2666124135234327  1.0000
  H   H51       1.0  0.7629611217037678  0.03359544176824869  0.23338968281721859  1.0000
  H   H52       1.0  0.23703131710511371  0.4664001264878193  0.7333864549154823  1.0000
  H   H53       1.0  0.3370016109338677  0.980816041421647  0.684394731859598  1.0000
  H   H54       1.0  0.6630090252403915  0.5191838865253543  0.184397825044698  1.0000
  H   H55       1.0  0.6630039336197627  0.019183726887185094  0.31560465635817536  1.0000
  H   H56       1.0  0.3369863601122134  0.4808157896565176  0.8156026027352681  1.0000
  C   C1        1.0  0.11456588626825238  0.35272289030073967  0.14537833852482146  1.0000
  C   C2        1.0  0.8854332068812667  0.14727432283158484  0.6453796126284033  1.0000
  C   C3        1.0  0.8854323759201248  0.6472755833417094  0.8546194903310889  1.0000
  C   C4        1.0  0.11456771278466261  0.852727860801501  0.3546202953662814  1.0000
  C   C5        1.0  0.06441190601226769  0.2984336163027023  0.19984830714434307  1.0000
  C   C6        1.0  0.9355908525382688  0.20156586706134044  0.699848952395051  1.0000
  C   C7        1.0  0.9355846081315917  0.7015660701204423  0.8001495217076381  1.0000
  C   C8        1.0  0.06441745917851449  0.7984351549694749  0.3001519951804069  1.0000
  C   C9        1.0  0.9597127411529627  0.3167842622285448  0.24861074466590333  1.0000
  C   C10       1.0  0.0402808254051124  0.18321371195376193  0.7486134060733107  1.0000
  C   C11       1.0  0.04028340852146782  0.6832172638399  0.751386044610669  1.0000
  C   C12       1.0  0.9597216972108028  0.816784186004568  0.25138546235931597  1.0000
  C   C13       1.0  0.9102107662620256  0.38989974271418487  0.23916137448190966  1.0000
  C   C14       1.0  0.0897899055385238  0.11010202000863957  0.7391638840955251  1.0000
  C   C15       1.0  0.08978476416655921  0.6101030063720926  0.7608348950059705  1.0000
  C   C16       1.0  0.9102114882731557  0.8898958677156654  0.2608339447644425  1.0000
  C   C17       1.0  0.9663913462299121  0.44059094604114785  0.1832859174858115  1.0000
  C   C18       1.0  0.0336165736815843  0.059410494045934584  0.6832895508529617  1.0000
  C   C19       1.0  0.03360604191951195  0.5594081340009535  0.8167072332958653  1.0000
  C   C20       1.0  0.9663911187689606  0.9405917510140893  0.3167051592899313  1.0000
  C   C21       1.0  0.9019378427844342  0.2638320409103585  0.3077478603399371  1.0000
  C   C22       1.0  0.0980511210208235  0.23616442374852642  0.8077540705955996  1.0000
  C   C23       1.0  0.09805353691332644  0.7361688275851747  0.6922499685049743  1.0000
  C   C24       1.0  0.9019528948780289  0.7638316447933631  0.1922494759141316  1.0000
  C   C25       1.0  0.8537905068056516  0.16345339082551646  0.4011774229685159  1.0000
  C   C26       1.0  0.14620414845404642  0.33654397625629423  0.9011828275610512  1.0000
  C   C27       1.0  0.14619926995139565  0.8365517633396065  0.5988240443674895  1.0000
  C   C28       1.0  0.8538073691812542  0.6634484744146787  0.09882123874837127  1.0000
  C   C29       1.0  0.7557794562748299  0.21775170308042385  0.3998341019505105  1.0000
  C   C30       1.0  0.24421355103790177  0.28224442586008525  0.8998383361711574  1.0000
  C   C31       1.0  0.24421083003690564  0.7822546843386247  0.6001668455978546  1.0000
  C   C32       1.0  0.7558010982114355  0.717747438897909  0.10016313121327869  1.0000
  C   C33       1.0  0.8617623118155532  0.09568358577764967  0.4493601426686168  1.0000
  C   C34       1.0  0.1382486355638264  0.40431680577803053  0.9493647580115833  1.0000
  C   C35       1.0  0.13821978268860857  0.9043165842088567  0.5506345674539901  1.0000
  C   C36       1.0  0.8617840001912996  0.5956832082033897  0.05063151151647819  1.0000
  C   C37       1.0  0.6265888450849033  0.2181951245124195  0.44906133353298827  1.0000
  C   C38       1.0  0.3734103025888089  0.2818039326248749  0.9490626947455355  1.0000
  C   C39       1.0  0.3734082140336951  0.781811324321154  0.5509406535932725  1.0000
  C   C40       1.0  0.6265978286337841  0.7181884873440011  0.0509382528459028  1.0000
  C   C41       1.0  0.3792629401410609  0.5984196512022564  0.9300686127913949  1.0000
  C   C42       1.0  0.6207204647570563  0.9015771933849164  0.4300665520693556  1.0000
  C   C43       1.0  0.6207324452133988  0.4015800249785854  0.06993233477437849  1.0000
  C   C44       1.0  0.3792594818576163  0.098420499846263  0.569934915271368  1.0000
  C   C45       1.0  0.4318399719103994  0.6548091259225188  0.8771408470080145  1.0000
  C   C46       1.0  0.568163118929533  0.8451874969016299  0.3771373393210381  1.0000
  C   C47       1.0  0.5681586547492543  0.3451875080735859  0.1228585412091121  1.0000
  C   C48       1.0  0.4318409323522872  0.15481410081744673  0.6228604895344744  1.0000
  C   C49       1.0  0.3760842827578158  0.726645397779684  0.872728197789591  1.0000
  C   C50       1.0  0.6239131326095517  0.7733511914127789  0.3727297431730108  1.0000
  C   C51       1.0  0.6239156177987513  0.2733543193455503  0.12727274978037428  1.0000
  C   C52       1.0  0.37609040914169617  0.22664917303892906  0.6272753626856371  1.0000
  C   C53       1.0  0.2713410485077929  0.7389345955254355  0.9241395701891194  1.0000
  C   C54       1.0  0.7286610295474105  0.7610667425756573  0.4241403199918565  1.0000
  C   C55       1.0  0.7286540820665478  0.26106446402999234  0.0758608575917705  1.0000
  C   C56       1.0  0.27134265730021667  0.23893669476907317  0.5758663452185786  1.0000
  C   C57       1.0  0.22662453123930243  0.6800786642208362  0.9755474943263919  1.0000
  C   C58       1.0  0.7733747820328245  0.8199230552346533  0.4755486274302498  1.0000
  C   C59       1.0  0.7733815228801361  0.31992233733571845  0.0244544928185846  1.0000
  C   C60       1.0  0.22661914547174425  0.18008397951189178  0.5244559586209832  1.0000
  C   C61       1.0  0.4200644190582067  0.7882345080209416  0.8179640108698577  1.0000
  C   C62       1.0  0.579927106605531  0.7117653208071953  0.3179646648030356  1.0000
  C   C63       1.0  0.5799272154289595  0.21176697709483247  0.18203693668898066  1.0000
  C   C64       1.0  0.4200731584334391  0.28823255666549136  0.6820409608429896  1.0000
  C   C65       1.0  0.5285606024701863  0.8754967991108056  0.7202000360153633  1.0000
  C   C66       1.0  0.4714372177492478  0.6244985676147222  0.22020237196183956  1.0000
  C   C67       1.0  0.4714372952654458  0.1245035141676425  0.27980143133739677  1.0000
  C   C68       1.0  0.5285597705681797  0.37549682288412356  0.779801174542527  1.0000
  C   C69       1.0  0.41115947553579696  0.8999176357894494  0.756249104158094  1.0000
  C   C70       1.0  0.58884515535906  0.6000825614414608  0.2562533129090382  1.0000
  C   C71       1.0  0.5888425729232409  0.10008455808387137  0.24374872469440587  1.0000
  C   C72       1.0  0.4111556192271806  0.3999165492892941  0.7437497138061175  1.0000
  C   C73       1.0  0.620660338981409  0.9142894546038176  0.6600140515806671  1.0000
  C   C74       1.0  0.37933781609500977  0.5857080014938559  0.16001635917817228  1.0000
  C   C75       1.0  0.37934218363265165  0.0857084433555499  0.3399842970661524  1.0000
  C   C76       1.0  0.6206511963235285  0.4142953027940023  0.8399840685889686  1.0000
  C   C77       1.0  0.34895684632940066  0.9734474983517811  0.7405316241523323  1.0000
  C   C78       1.0  0.6510513135855264  0.526553408758332  0.2405351868733021  1.0000
  C   C79       1.0  0.6510431993124114  0.026555291672686093  0.2594677640545768  1.0000
  C   C80       1.0  0.3489450554804919  0.4734432047614447  0.7594662804849577  1.0000
  S   S1        1.0  0.9841025657475909  0.1847792519993874  0.33343798006232817  1.0000
  S   S2        1.0  0.015890841798693614  0.31521653475297023  0.8334432185558852  1.0000
  S   S3        1.0  0.015883169953113403  0.8152215653125549  0.6665614081347684  1.0000
  S   S4        1.0  0.9841193276593287  0.6847808182223074  0.1665603279572494  1.0000
  S   S5        1.0  0.5628089577562179  0.7873789498616117  0.756898671105354  1.0000
  S   S6        1.0  0.43718635717804943  0.7126150171090301  0.2569000917676476  1.0000
  S   S7        1.0  0.4371848989267733  0.21261702656158826  0.24310175668011166  1.0000
  S   S8        1.0  0.5628170394823754  0.28738227444654996  0.7431050140966278  1.0000
  N   N1        1.0  0.06691610000316223  0.42302685405677193  0.13659222205748017  1.0000
  N   N2        1.0  0.9330877004390601  0.07697105160336548  0.636595929246333  1.0000
  N   N3        1.0  0.9330880609605499  0.5769722873957192  0.8634040474453215  1.0000
  N   N4        1.0  0.06691321921945106  0.9230311320338558  0.3634018996051154  1.0000
  N   N5        1.0  0.7859011238681859  0.2742883234538808  0.34734397433137326  1.0000
  N   N6        1.0  0.21409114441437546  0.2257098540009252  0.8473473243200544  1.0000
  N   N7        1.0  0.214093532547416  0.7257150320175682  0.6526548940835751  1.0000
  N   N8        1.0  0.7859102140087801  0.7742825045492908  0.15265466283671  1.0000
  N   N9        1.0  0.27694561625448705  0.6100262328683711  0.9785010963028568  1.0000
  N   N10       1.0  0.7230517152496175  0.889976071000454  0.47849615371914916  1.0000
  N   N11       1.0  0.7230559226609968  0.38997472774482117  0.0215003710521273  1.0000
  N   N12       1.0  0.276938316278283  0.11002969979524828  0.5215032344727106  1.0000
  N   N13       1.0  0.3521144985273565  0.8504346211668476  0.8109446423987521  1.0000
  N   N14       1.0  0.6478866621001274  0.6495696236299365  0.3109456581960259  1.0000
  N   N15       1.0  0.647879029085864  0.14956872406953892  0.1890537062293447  1.0000
  N   N16       1.0  0.3521152412884944  0.35042949733588097  0.6890578883059817  1.0000
  O   O1        1.0  0.9654397252014916  0.055728132193877386  0.43784705996274187  1.0000
  O   O2        1.0  0.03455668501327839  0.4442672595533777  0.9378580866728257  1.0000
  O   O3        1.0  0.03453719944764797  0.9442676907023181  0.5621460908057259  1.0000
  O   O4        1.0  0.9654688134933737  0.5557345326433064  0.062143900489033385  1.0000
  O   O5        1.0  0.7658972491430518  0.07946179480283178  0.4996805465610095  1.0000
  O   O6        1.0  0.2341307699185649  0.4205434626144893  0.9996769655294385  1.0000
  O   O7        1.0  0.23410479933453118  0.9205403990601508  0.5003224801495634  1.0000
  O   O8        1.0  0.7658987696184736  0.5794626664498566  0.0003198237700275  1.0000
  O   O9        1.0  0.7324379917547786  0.8832014065095705  0.6402030992559204  1.0000
  O   O10       1.0  0.2675566355566091  0.6167960977093114  0.14020663835113817  1.0000
  O   O11       1.0  0.2675737063858321  0.11679964621713877  0.3598040857523656  1.0000
  O   O12       1.0  0.7324382013847099  0.38321585980649786  0.8598010664065541  1.0000
  O   O13       1.0  0.5899544232465814  0.9766025072859036  0.6301937938591492  1.0000
  O   O14       1.0  0.41004162590657967  0.5233932073547862  0.1301974329626887  1.0000
  O   O15       1.0  0.41003615670559407  0.02339098216862819  0.36980195585562825  1.0000
  O   O16       1.0  0.5899486250054976  0.47660765089638346  0.8698045541676364  1.0000
