data_image0
_chemical_formula_structural       K4H20C24N4O12
_chemical_formula_sum              "K4 H20 C24 N4 O12"
_cell_length_a       3.731543636876611
_cell_length_b       7.916205433377166
_cell_length_c       26.542224227791213
_cell_angle_alpha    89.99901254409299
_cell_angle_beta     93.66806351385874
_cell_angle_gamma    90.00054813798083

_space_group_name_H-M_alt    "P 1"
_space_group_IT_number       1

loop_
  _space_group_symop_operation_xyz
  'x, y, z'

loop_
  _atom_site_type_symbol
  _atom_site_label
  _atom_site_symmetry_multiplicity
  _atom_site_fract_x
  _atom_site_fract_y
  _atom_site_fract_z
  _atom_site_occupancy
  K   K1        1.0  0.06813745537201749  0.7256937412372862  0.2226114974908953  1.0000
  K   K2        1.0  0.9319453271614009  0.2256994392243286  0.2773833322705386  1.0000
  K   K3        1.0  0.9318694839007049  0.2742942782561856  0.7773852788417982  1.0000
  K   K4        1.0  0.06811012299493768  0.7742885802550958  0.7226176035688852  1.0000
  H   H1        1.0  0.49128197114593763  0.42817977427297654  0.17374823322484187  1.0000
  H   H2        1.0  0.5087376316159008  0.928178894479764  0.3262480531201389  1.0000
  H   H3        1.0  0.5087410976055436  0.5718221407873045  0.8262490501232874  1.0000
  H   H4        1.0  0.49126390204319376  0.0718179676452664  0.6737479259936379  1.0000
  H   H5        1.0  0.5176956039873913  0.5448886291559704  0.1259921645884603  1.0000
  H   H6        1.0  0.48229787971266086  0.04487927187375359  0.37400363253749447  1.0000
  H   H7        1.0  0.4823085798982945  0.4551107594587335  0.8740030823934289  1.0000
  H   H8        1.0  0.5177010738188556  0.9551049578666878  0.6259945863654082  1.0000
  H   H9        1.0  0.4798327393236689  0.32889394846498726  0.3803243383052006  1.0000
  H   H10       1.0  0.5201583693559185  0.8289074677043969  0.11967712929710929  1.0000
  H   H11       1.0  0.5201368514419328  0.671095334036842  0.6196774110704126  1.0000
  H   H12       1.0  0.4798354068119151  0.1710982368427949  0.8803251921587717  1.0000
  H   H13       1.0  0.9474685527526602  0.8239072979444727  0.3831693764929084  1.0000
  H   H14       1.0  0.05253044766158148  0.32391206303287845  0.11683067360260678  1.0000
  H   H15       1.0  0.05246863894062409  0.17608324783404322  0.6168283435151524  1.0000
  H   H16       1.0  0.9474876716669769  0.6760911149905624  0.8831756121528258  1.0000
  H   H17       1.0  0.15613152328140248  0.7700665672466159  0.47467005583907  1.0000
  H   H18       1.0  0.8438315369845241  0.2700724148241704  0.025329605639719  1.0000
  H   H19       1.0  0.84383250393369  0.2299315579835053  0.5253275041459062  1.0000
  H   H20       1.0  0.15613822949244135  0.7299408689685263  0.9746759127553444  1.0000
  C   C1        1.0  0.9348521917220577  0.5192246135496601  0.4736854305096685  1.0000
  C   C2        1.0  0.06515439338357248  0.0192333506630433  0.0263139960224592  1.0000
  C   C3        1.0  0.0651521851856955  0.4807735117153271  0.5263139624630496  1.0000
  C   C4        1.0  0.93485554731253  0.9807811965034929  0.9736895862774801  1.0000
  C   C5        1.0  0.6341788853392315  0.42804727549724925  0.4003559931032612  1.0000
  C   C6        1.0  0.3658355374664596  0.928057483596973  0.0996443964858855  1.0000
  C   C7        1.0  0.3658040266584024  0.5719445335580036  0.5996436032701524  1.0000
  C   C8        1.0  0.634163521582252  0.0719507474773238  0.9003560838045956  1.0000
  C   C9        1.0  0.6947705175953444  0.5798443429069025  0.375054625402413  1.0000
  C   C10       1.0  0.30524521223350115  0.07986615935460863  0.12494343114597228  1.0000
  C   C11       1.0  0.3052016531432357  0.42014114997012797  0.6249448842252859  1.0000
  C   C12       1.0  0.6947727316928931  0.9201458613967616  0.8750590855075798  1.0000
  C   C13       1.0  0.8869153307085893  0.7059258572503141  0.4020821421880072  1.0000
  C   C14       1.0  0.11310028061208749  0.2059370197949519  0.09791940578192988  1.0000
  C   C15       1.0  0.11306219321205896  0.29407353119425744  0.5979170338776285  1.0000
  C   C16       1.0  0.8869096952048848  0.7940800538130687  0.9020849303276108  1.0000
  C   C17       1.0  0.004331762839520096  0.67673555456777  0.4520212139851623  1.0000
  C   C18       1.0  0.9956590083517366  0.1767470790984831  0.047977646943692796  1.0000
  C   C19       1.0  0.9956537819075277  0.3232663603768558  0.5479772733293728  1.0000
  C   C20       1.0  0.004340226253745492  0.8232687312572865  0.9520266024074501  1.0000
  C   C21       1.0  0.558002825233622  0.6033012772598171  0.32096180513851635  1.0000
  C   C22       1.0  0.4420562580139559  0.10328269286295469  0.17903535008478846  1.0000
  C   C23       1.0  0.4419934080555094  0.39669937450631915  0.6790356382168454  1.0000
  C   C24       1.0  0.5579857481419095  0.8967103795272351  0.8209651003820255  1.0000
  N   N1        1.0  0.7515208682345076  0.3960447241425271  0.44794642845476323  1.0000
  N   N2        1.0  0.24848221088527106  0.8960609378465209  0.0520540350037706  1.0000
  N   N3        1.0  0.2484673616697322  0.6039420320293869  0.5520520805882114  1.0000
  N   N4        1.0  0.751516918440849  0.10395613580522678  0.9479479528963921  1.0000
  O   O1        1.0  0.5984800798279718  0.7487238854671645  0.3008868681916965  1.0000
  O   O2        1.0  0.4015980114402779  0.24873429442462944  0.19911307928225602  1.0000
  O   O3        1.0  0.4015323703972128  0.25126034425623095  0.6991129667950418  1.0000
  O   O4        1.0  0.5984655650239787  0.7512764631942305  0.8008894292031455  1.0000
  O   O5        1.0  0.41395476148592536  0.47857773714053303  0.2975584525163555  1.0000
  O   O6        1.0  0.5860549788429734  0.9785842782412714  0.202435986429478  1.0000
  O   O7        1.0  0.586036101060699  0.5214077558373164  0.7024389474962689  1.0000
  O   O8        1.0  0.41395471610219653  0.021422689686787105  0.7975623191779205  1.0000
  O   O9        1.0  0.5580189962529758  0.5453866484997434  0.1624863006803707  1.0000
  O   O10       1.0  0.4420013850211149  0.04538804805958561  0.33751046463848405  1.0000
  O   O11       1.0  0.4419879431386703  0.4546140033086488  0.8375104756206112  1.0000
  O   O12       1.0  0.5580190510404178  0.9546100772687824  0.6624879277526787  1.0000
