data_image0
_chemical_formula_structural       ZnH18C20I8O12
_chemical_formula_sum              "Zn1 H18 C20 I8 O12"
_cell_length_a       9.611274370275282
_cell_length_b       10.591244321577935
_cell_length_c       10.052072968749998
_cell_angle_alpha    103.08721739996633
_cell_angle_beta     98.37697042020743
_cell_angle_gamma    112.71828204810421

_space_group_name_H-M_alt    "P 1"
_space_group_IT_number       1

loop_
  _space_group_symop_operation_xyz
  'x, y, z'

loop_
  _atom_site_type_symbol
  _atom_site_label
  _atom_site_symmetry_multiplicity
  _atom_site_fract_x
  _atom_site_fract_y
  _atom_site_fract_z
  _atom_site_occupancy
  Zn  Zn1       1.0  0.4999954775011019  0.5000008912310462  0.49999651694633224  1.0000
  H   H1        1.0  0.8510260917511376  0.5007121152987041  0.5671329342758682  1.0000
  H   H2        1.0  0.1489712376679151  0.4993143127600917  0.4328703016696736  1.0000
  H   H3        1.0  0.8257436229417082  0.34513968518421495  0.43227113654681665  1.0000
  H   H4        1.0  0.174261738692536  0.6548882208314951  0.567735424928223  1.0000
  H   H5        1.0  0.7572098810578609  0.3250056663775212  0.5863522888652923  1.0000
  H   H6        1.0  0.24279839867137543  0.6750192114200361  0.41365397364416606  1.0000
  H   H7        1.0  0.2718653005404335  0.5333785191487124  0.19613066107422128  1.0000
  H   H8        1.0  0.7281487088885471  0.4666385461384623  0.8038497217586027  1.0000
  H   H9        1.0  0.3596880703664312  0.45042938890307505  0.07994841047124623  1.0000
  H   H10       1.0  0.6403295756808022  0.5495859860873935  0.9200410155361922  1.0000
  H   H11       1.0  0.47957084078471723  0.6064696352324648  0.22893792016189  1.0000
  H   H12       1.0  0.5204406463291775  0.39354121357786914  0.7710487408662914  1.0000
  H   H13       1.0  0.5446247661373178  0.27784130999050666  0.4068083214543705  1.0000
  H   H14       1.0  0.4553840481693072  0.7221699461728337  0.5931970035500241  1.0000
  H   H15       1.0  0.2791281387007558  0.33664657274494664  0.2576512422032948  1.0000
  H   H16       1.0  0.7208659931123051  0.6633752138858356  0.7423406181797672  1.0000
  H   H17       1.0  0.2899852200762751  0.9670240983759587  0.3068157771615246  1.0000
  H   H18       1.0  0.710022654852317  0.0329554391485587  0.6931804644509256  1.0000
  C   C1        1.0  0.2898112483290092  0.18384006622919466  0.45205745045078055  1.0000
  C   C2        1.0  0.7102030388775303  0.8161567685615057  0.5479483774187629  1.0000
  C   C3        1.0  0.1390088568059795  0.08159000270718761  0.4713402053032709  1.0000
  C   C4        1.0  0.8610194583070269  0.9183882522332286  0.5286543432486681  1.0000
  C   C5        1.0  0.14310245662588983  0.0169918735323193  0.5785111128002853  1.0000
  C   C6        1.0  0.8569100798911791  0.9829785869490028  0.4214906859965808  1.0000
  C   C7        1.0  0.996350374387248  0.06436593362396792  0.3919371206659505  1.0000
  C   C8        1.0  0.003688443014588823  0.9356244803209676  0.6080644079728684  1.0000
  C   C9        1.0  0.7730431456775123  0.38699507809752737  0.511028703196672  1.0000
  C   C10       1.0  0.2269608105391541  0.6130295736272018  0.4889759706795545  1.0000
  C   C11       1.0  0.3710430276287441  0.5069252071852831  0.1899768848211423  1.0000
  C   C12       1.0  0.62896563964091  0.4930865105841066  0.8100076221444964  1.0000
  C   C13       1.0  0.13646986973348876  0.8075307190446568  0.14657368470389537  1.0000
  C   C14       1.0  0.8635067382567243  0.19246142180943343  0.8534333402827414  1.0000
  C   C15       1.0  0.06995944741077408  0.6473137908671022  0.07582774295764241  1.0000
  C   C16       1.0  0.9300169009113687  0.35267808709237164  0.9241702339753173  1.0000
  C   C17       1.0  0.938342180082003  0.5528862036844517  0.10689570742992059  1.0000
  C   C18       1.0  0.061628839600267236  0.44712024170021886  0.8931067933343824  1.0000
  C   C19       1.0  0.8681058371546799  0.4054470109249665  0.030072856087173198  1.0000
  C   C20       1.0  0.13185009801031816  0.5945240169955002  0.969921950501046  1.0000
  I   I1        1.0  0.36227462187344633  0.053777300238856206  0.6970659159617796  1.0000
  I   I2        1.0  0.6377386629827271  0.9462337203912697  0.30296181571460307  1.0000
  I   I3        1.0  0.9910938052227181  0.14930405418005685  0.2219335309858508  1.0000
  I   I4        1.0  0.008912700427607853  0.8506989430893911  0.7780796405429625  1.0000
  I   I5        1.0  0.8494126812366999  0.6332883004490528  0.2676145783717345  1.0000
  I   I6        1.0  0.1505548992809977  0.36669274722189743  0.7323838957594262  1.0000
  I   I7        1.0  0.6637062831439451  0.26152726312734137  0.06595066600345938  1.0000
  I   I8        1.0  0.3362590112459998  0.7384580630516738  0.9340544332155715  1.0000
  O   O1        1.0  0.32884858106912424  0.3156171652874138  0.5167399928782572  1.0000
  O   O2        1.0  0.6711536604031211  0.684357340272797  0.48323452813175993  1.0000
  O   O3        1.0  0.3643154454398783  0.13587209941979245  0.3767774985158994  1.0000
  O   O4        1.0  0.6357259267668738  0.8641069213706633  0.6232248319536424  1.0000
  O   O5        1.0  0.6269548030106905  0.37911532255452585  0.4408371590610328  1.0000
  O   O6        1.0  0.3730416844201727  0.6208942587895764  0.5591642571199315  1.0000
  O   O7        1.0  0.3810934861875381  0.41974815959736134  0.2790018046054712  1.0000
  O   O8        1.0  0.6189085137377717  0.5802675521862214  0.7209857281362062  1.0000
  O   O9        1.0  0.08749202035303237  0.8806704091187503  0.09322867656842959  1.0000
  O   O10       1.0  0.9124840044561752  0.11932217909848934  0.9067952933627978  1.0000
  O   O11       1.0  0.24850228385200515  0.8569651203998563  0.2653685414082929  1.0000
  O   O12       1.0  0.7514879878937037  0.14301710685084862  0.7346380217125343  1.0000
