data_image0
_chemical_formula_structural       Cd2H48C48N28O12
_chemical_formula_sum              "Cd2 H48 C48 N28 O12"
_cell_length_a       8.313725732
_cell_length_b       8.554030251177455
_cell_length_c       21.19
_cell_angle_alpha    90.0
_cell_angle_beta     90.0
_cell_angle_gamma    106.07634005160277

_space_group_name_H-M_alt    "P 1"
_space_group_IT_number       1

loop_
  _space_group_symop_operation_xyz
  'x, y, z'

loop_
  _atom_site_type_symbol
  _atom_site_label
  _atom_site_symmetry_multiplicity
  _atom_site_fract_x
  _atom_site_fract_y
  _atom_site_fract_z
  _atom_site_occupancy
  Cd  Cd1       1.0  1.4632185196372652e-08  0.49999922033092054  0.4999995280792859  1.0000
  Cd  Cd2       1.0  6.932821321e-07  2.4332342363e-06  0.9999990561585648  1.0000
  H   H1        1.0  0.20969081083747207  0.885901654042037  0.4393100519112778  1.0000
  H   H2        1.0  0.2096964845421425  0.3859097334138256  0.06069277961302791  1.0000
  H   H3        1.0  0.7903104250769459  0.11409921985404033  0.5606904200094363  1.0000
  H   H4        1.0  0.7903038951831861  0.6140923570993664  0.9393081642284073  1.0000
  H   H5        1.0  0.6883451252038457  0.6808371888447908  0.44449646059462117  1.0000
  H   H6        1.0  0.6883533674757841  0.1808416183652284  0.055504011326100104  1.0000
  H   H7        1.0  0.3116561107105724  0.3191636850512865  0.5555044832468141  1.0000
  H   H8        1.0  0.3116478684386338  0.8191592555308491  0.9444969325153352  1.0000
  H   H9        1.0  0.7991908419923632  0.1319141443222094  0.39173855592260765  1.0000
  H   H10       1.0  0.7991906937175987  0.6319170145044879  0.10826285983954881  1.0000
  H   H11       1.0  0.2008076416206778  0.8680855129567464  0.6082619159981135  1.0000
  H   H12       1.0  0.2008065870652942  0.3680826427744748  0.8917385559226076  1.0000
  H   H13       1.0  0.6470487213088418  0.0106745985989036  0.444513449740441  1.0000
  H   H14       1.0  0.6470502854122486  0.5106750355469387  0.0554874941009942  1.0000
  H   H15       1.0  0.3529518213234439  0.9893238420629372  0.555486550259559  1.0000
  H   H16       1.0  0.3529497476720138  0.48932583834913856  0.9445134497404412  1.0000
  H   H17       1.0  0.4277051514490537  0.7744643924435621  0.4076639924492654  1.0000
  H   H18       1.0  0.427707032929149  0.2744676053468851  0.0923355356300135  1.0000
  H   H19       1.0  0.5722931484298784  0.2255303983669208  0.5923345917885783  1.0000
  H   H20       1.0  0.5722878421934325  0.7255320519320776  0.9076639924492653  1.0000
  H   H21       1.0  0.2473338327904742  0.6426244617655925  0.3186243511090154  1.0000
  H   H22       1.0  0.2473362238185928  0.142625241434672  0.1813747050495493  1.0000
  H   H23       1.0  0.7526637946334844  0.35737641213048493  0.6813742331288353  1.0000
  H   H24       1.0  0.7526627693424716  0.8573719826100472  0.8186252949504507  1.0000
  H   H25       1.0  0.5898964234223172  0.9429293648609234  0.1870155733836683  1.0000
  H   H26       1.0  0.5899003430944916  0.4429228448272867  0.3129853704577599  1.0000
  H   H27       1.0  0.4101013877357573  0.0570763755036339  0.8129848985370458  1.0000
  H   H28       1.0  0.4101029310120055  0.5570682961318383  0.6870155733836683  1.0000
  H   H29       1.0  0.7733480735743543  0.0766322790685692  0.2760660689004268  1.0000
  H   H30       1.0  0.7733527157930453  0.5766266329310099  0.22393487494100842  1.0000
  H   H31       1.0  0.2266490443015813  0.9233710280617446  0.7239344030202943  1.0000
  H   H32       1.0  0.22664849929421396  0.4233657246452368  0.7760651250589916  1.0000
  H   H33       1.0  0.3771732011087963  0.6739779015299308  0.1542883435582851  1.0000
  H   H34       1.0  0.3771745522137167  0.173975031347652  0.3457111845210008  1.0000
  H   H35       1.0  0.6228246100492714  0.3260278388346265  0.8457107126002796  1.0000
  H   H36       1.0  0.6228273561556747  0.8260197594628309  0.6542888154789992  1.0000
  H   H37       1.0  0.21737741448188075  0.5796255941284443  0.2091500707881053  1.0000
  H   H38       1.0  0.21737790939771884  0.07962394056328753  0.2908494572911735  1.0000
  H   H39       1.0  0.7826212528652761  0.42037892961898393  0.7908480415290243  1.0000
  H   H40       1.0  0.7826215933113688  0.9203708502471957  0.7091514865502617  1.0000
  H   H41       1.0  0.2856524042767817  0.8254540325026696  0.07189004247286591  1.0000
  H   H42       1.0  0.2856544486638342  0.3254535955546274  0.42810948560642  1.0000
  H   H43       1.0  0.7143466097114413  0.1745517078618875  0.9281090136856989  1.0000
  H   H44       1.0  0.7143484996287627  0.6745448451072136  0.57189051439358  1.0000
  H   H45       1.0  0.8856652795041244  0.9377161605075699  0.1662751297781995  1.0000
  H   H46       1.0  0.885667323891177  0.4377157235595348  0.3337239263803653  1.0000
  H   H47       1.0  0.1143337344840987  0.062289579856980005  0.8337234544596512  1.0000
  H   H48       1.0  0.11433648059050232  0.5622815004851915  0.6662760736196347  1.0000
  C   C1        1.0  0.07625701573638823  0.8710491922577432  0.43561066540821264  1.0000
  C   C2        1.0  0.07626319898908211  0.3710548383952954  0.0643912222746579  1.0000
  C   C3        1.0  0.9237435268958976  0.12894924840409774  0.5643883907503522  1.0000
  C   C4        1.0  0.9237371807362535  0.6289472521178965  0.9356092496460562  1.0000
  C   C5        1.0  0.8123158936264334  0.7636267671507684  0.4393350637092936  1.0000
  C   C6        1.0  0.8123229330682095  0.2636311966712058  0.0606658801321345  1.0000
  C   C7        1.0  0.1876865451181402  0.2363741067453091  0.5606658801321345  1.0000
  C   C8        1.0  0.18767864948727464  0.7363708938419933  0.9393345917885796  1.0000
  C   C9        1.0  0.7233643798956351  0.0083009786004453  0.4024516281264781  1.0000
  C   C10       1.0  0.7233686963004118  0.5083026321656023  0.09754837187352192  1.0000
  C   C11       1.0  0.27663290088725745  0.9916986786785104  0.5975478999528079  1.0000
  C   C12       1.0  0.2766321929729402  0.49169702511335345  0.9024516281264781  1.0000
  C   C13       1.0  0.6132248647104319  0.9330492172404874  0.3477126002831525  1.0000
  C   C14       1.0  0.6132262158153523  0.4330463470582089  0.1522873997168475  1.0000
  C   C15       1.0  0.38677637120398617  0.0669516566555899  0.6522869277961334  1.0000
  C   C16       1.0  0.386769678403276  0.566948443752274  0.8477121283624385  1.0000
  C   C17       1.0  0.46447326488362256  0.8115639148592138  0.3593152430391697  1.0000
  C   C18       1.0  0.4644729036103713  0.3115634779111716  0.1406857008022655  1.0000
  C   C19       1.0  0.535528827219885  0.18843574241974184  0.6406852288815514  1.0000
  C   C20       1.0  0.5355228277012998  0.6884349627506623  0.8593147711184486  1.0000
  C   C21       1.0  0.3630433502546851  0.7370607157482569  0.3093761208117058  1.0000
  C   C22       1.0  0.36304555754869483  0.23705662894886365  0.19062576687116461  1.0000
  C   C23       1.0  0.6369541142623163  0.2629438079991715  0.6906252949504506  1.0000
  C   C24       1.0  0.6369530889713033  0.762939378478741  0.8093756488909847  1.0000
  C   C25       1.0  0.4082912894818096  0.7827507716385897  0.247166588013215  1.0000
  C   C26       1.0  0.40829384341688535  0.2827479014563111  0.252833411986785  1.0000
  C   C27       1.0  0.5917070312242815  0.2172525354917241  0.7528324681453498  1.0000
  C   C28       1.0  0.5917080649525063  0.7172468893541719  0.7471665880132151  1.0000
  C   C29       1.0  0.5557150590117247  0.9064527504100114  0.2355752713544135  1.0000
  C   C30       1.0  0.5557176129468004  0.4064498802277399  0.26442520056630775  1.0000
  C   C31       1.0  0.4442844645245145  0.0935505567203023  0.7644247286455866  1.0000
  C   C32       1.0  0.44428258304441937  0.5935473438169865  0.7355752713544135  1.0000
  C   C33       1.0  0.6579974544057309  0.9809632492236774  0.2854563473336498  1.0000
  C   C34       1.0  0.6580024140011105  0.48096037904140604  0.2145436526663502  1.0000
  C   C35       1.0  0.3420005196592939  0.019038841289514608  0.7145431807456362  1.0000
  C   C36       1.0  0.3419986381791986  0.5190356283861988  0.7854558754129287  1.0000
  C   C37       1.0  0.3003066221755333  0.6967882558872134  0.1934884379424275  1.0000
  C   C38       1.0  0.3003083199215197  0.1967866023220566  0.3065110901368584  1.0000
  C   C39       1.0  0.6996923918126896  0.3032174844773436  0.8065101462954233  1.0000
  C   C40       1.0  0.6996935884478718  0.8032081884884266  0.6934893817838628  1.0000
  C   C41       1.0  0.19610499547149374  0.8426813309025363  0.1066153846153881  1.0000
  C   C42       1.0  0.1961082426887018  0.3426808939544941  0.39338414346389783  1.0000
  C   C43       1.0  0.8038940185167363  0.1573244094620136  0.8933831996224626  1.0000
  C   C44       1.0  0.8038955617929845  0.6573163300902252  0.6066163284568162  1.0000
  C   C45       1.0  0.9944287363096366  0.8952550064500997  0.1562685228881548  1.0000
  C   C46       1.0  0.994430780696689  0.3952545695020575  0.34373100519113114  1.0000
  C   C47       1.0  0.0055718271498080025  0.1047519505315719  0.8437305332704099  1.0000
  C   C48       1.0  0.005573023784990039  0.604742654542662  0.6562689948088689  1.0000
  N   N1        1.0  0.9574948380767054  0.7300092029286489  0.4506186880604091  1.0000
  N   N2        1.0  0.9575025708006211  0.23001606568332286  0.04938272770174731  1.0000
  N   N3        1.0  0.04250639783771251  0.2699916709674284  0.5493822557810262  1.0000
  N   N4        1.0  0.04249935839592918  0.7699872414469908  0.950618216139688  1.0000
  N   N5        1.0  0.8438487444541708  0.9175616813202652  0.4188555922604992  1.0000
  N   N6        1.0  0.8438542344247324  0.417564894223581  0.08114582350165021  1.0000
  N   N7        1.0  0.15615163527115783  0.0824404091929267  0.5811444077395009  1.0000
  N   N8        1.0  0.15614665484861948  0.5824347630553748  0.918855120339785  1.0000
  N   N9        1.0  0.011916465367590957  0.9881230409668477  0.4158357715903733  1.0000
  N   N10       1.0  0.011919040129825531  0.48812868710439977  0.0841665880132112  1.0000
  N   N11       1.0  0.9880847705468272  0.0118778329292297  0.5841642284096267  1.0000
  N   N12       1.0  0.9880797901242885  0.5118721867916776  0.9158348277489381  1.0000
  N   N13       1.0  0.1946460017111136  0.7909836196803894  0.1663308164228425  1.0000
  N   N14       1.0  0.1946476994571  0.2909819661152327  0.3336687116564434  1.0000
  N   N15       1.0  0.8053530122771095  0.2090221206841605  0.8336677678150083  1.0000
  N   N16       1.0  0.8053557583835129  0.709014041312372  0.6663317602642779  1.0000
  N   N17       1.0  0.06601207927656118  0.8224611543908227  0.1990778669183584  1.0000
  N   N18       1.0  0.06601532649376908  0.3224607174427874  0.3009216611609276  1.0000
  N   N19       1.0  0.9339853852404403  0.1775433693566058  0.8009216611609276  1.0000
  N   N20       1.0  0.93398847798791  0.6775365066019319  0.6990783388390724  1.0000
  N   N21       1.0  0.0704018233319204  0.9101208510226968  0.0984285040113235  1.0000
  N   N22       1.0  0.0704050705491284  0.4101204140746546  0.4015705521472412  1.0000
  N   N23       1.0  0.9295956411850809  0.0898836727247385  0.9015700802265201  1.0000
  N   N24       1.0  0.9295994272146828  0.589879243204301  0.5984289759320447  1.0000
  N   N25       1.0  0.6020770327470403  0.3153641897897899  0.4614629542236912  1.0000
  N   N26       1.0  0.6020777406613647  0.8153658433549467  0.03853751769703  1.0000
  N   N27       1.0  0.3979231632441796  0.6846330342549294  0.53853751769703  1.0000
  N   N28       1.0  0.3979234952530604  0.1846350305411306  0.9614629542236912  1.0000
  O   O1        1.0  0.7114383378095043  0.3320817256169519  0.505671071260025  1.0000
  O   O2        1.0  0.7114399019129111  0.8320821625649872  0.994328928739975  1.0000
  O   O3        1.0  0.2885618581817155  0.6679154984277673  0.4943289287399751  1.0000
  O   O4        1.0  0.28856219019059653  0.1679174947139686  0.0056705993393109  1.0000
  O   O5        1.0  0.632584260255186  0.4078380403600974  0.41414016045304447  1.0000
  O   O6        1.0  0.6325846215284443  0.9078384773081396  0.0858598395469556  1.0000
  O   O7        1.0  0.3674150795469444  0.5921604003017367  0.5858607833883909  1.0000
  O   O8        1.0  0.36741626774490743  0.09216117997082311  0.9141401604530445  1.0000
  O   O9        1.0  0.4653933467730553  0.2057202218241869  0.4668924020764535  1.0000
  O   O10       1.0  0.4653961137066177  0.7057206587722293  0.0331075979235465  1.0000
  O   O11       1.0  0.534605299746943  0.7942757856034106  0.5331075979235465  1.0000
  O   O12       1.0  0.5346051222078003  0.29428021512384833  0.9668928739971676  1.0000
