data_image0
_chemical_formula_structural       Hg2H48C56Br4N8O6
_chemical_formula_sum              "Hg2 H48 C56 Br4 N8 O6"
_cell_length_a       8.666509138972184
_cell_length_b       12.948665542523656
_cell_length_c       12.973610466108788
_cell_angle_alpha    95.09450530640456
_cell_angle_beta     99.08562254898875
_cell_angle_gamma    98.06632164434399

_space_group_name_H-M_alt    "P 1"
_space_group_IT_number       1

loop_
  _space_group_symop_operation_xyz
  'x, y, z'

loop_
  _atom_site_type_symbol
  _atom_site_label
  _atom_site_symmetry_multiplicity
  _atom_site_fract_x
  _atom_site_fract_y
  _atom_site_fract_z
  _atom_site_occupancy
  Hg  Hg1       1.0  0.4432199190816561  0.3714746863513056  0.3599075099387861  1.0000
  Hg  Hg2       1.0  0.5567821778150304  0.6285248045734234  0.6400924956382071  1.0000
  H   H1        1.0  0.8176053699044844  0.4262303794213479  0.4370380611252784  1.0000
  H   H2        1.0  0.1823932174530185  0.5737691140871846  0.5629638838435937  1.0000
  H   H3        1.0  0.04107901254801052  0.4178084005984957  0.583054406647328  1.0000
  H   H4        1.0  0.9589186014087828  0.5821918834231495  0.4169475092496171  1.0000
  H   H5        1.0  0.6953340168776521  0.2774007515440289  0.755454255031985  1.0000
  H   H6        1.0  0.3046612626719636  0.7225995434300359  0.24454741360553103  1.0000
  H   H7        1.0  0.48466217135278084  0.29544674604750304  0.6037946316650107  1.0000
  H   H8        1.0  0.5153331108396344  0.7045535535415014  0.396206266878842  1.0000
  H   H9        1.0  0.13175531139345506  0.3702771254841508  0.7556963236627681  1.0000
  H   H10       1.0  0.8682427007403177  0.629724747071073  0.24430270097506218  1.0000
  H   H11       1.0  0.9973334616675729  0.3869996507907771  0.8433086941249215  1.0000
  H   H12       1.0  0.0026653221356128377  0.613000632369598  0.1566925753080568  1.0000
  H   H13       1.0  0.16633085118172625  0.26327134647392103  0.637565854415307  1.0000
  H   H14       1.0  0.8336706546344104  0.7367304958078477  0.3624358513926538  1.0000
  H   H15       1.0  0.241624967006139  0.12176614229602478  0.5297247756049259  1.0000
  H   H16       1.0  0.758374602579792  0.8782372994717348  0.47027379168450517  1.0000
  H   H17       1.0  0.025364460955465497  0.8943778098194314  0.7063801769235738  1.0000
  H   H18       1.0  0.9746370633602977  0.10562406476692839  0.2936161382287139  1.0000
  H   H19       1.0  0.1712157698295728  0.9221665694996164  0.46113198189660665  1.0000
  H   H20       1.0  0.8287845767113777  0.07783529210318821  0.5388672900006384  1.0000
  H   H21       1.0  0.11987295628239994  0.8333644869039958  0.5512548697463515  1.0000
  H   H22       1.0  0.8801238886477805  0.16663739112743062  0.4487440312617608  1.0000
  H   H23       1.0  0.3148743795233813  0.9036956614327564  0.5686620982094084  1.0000
  H   H24       1.0  0.6851244148510246  0.09630464018739102  0.4313360908489018  1.0000
  H   H25       1.0  0.8758176455074391  0.7383613422548051  0.8534939003696282  1.0000
  H   H26       1.0  0.1241799790205675  0.2616389602266055  0.1465049351526417  1.0000
  H   H27       1.0  0.6236814793703118  0.5410025720822064  0.041273019132468405  1.0000
  H   H28       1.0  0.37632528369793755  0.45899689232274454  0.9587282510570319  1.0000
  H   H29       1.0  0.5377368066355716  0.6940801112129834  0.1263563324531063  1.0000
  H   H30       1.0  0.46226606457333463  0.3059177949318439  0.8736451478253713  1.0000
  H   H31       1.0  0.8148323049140487  0.5413346976035244  0.805963686738295  1.0000
  H   H32       1.0  0.18517251663838144  0.45866635705753106  0.19403598512001  1.0000
  H   H33       1.0  0.733072020643597  0.46163462987048826  0.8948363627606568  1.0000
  H   H34       1.0  0.2669327982660405  0.5383664201756277  0.10516407919131861  1.0000
  H   H35       1.0  0.9317710116069333  0.527641750865925  0.9273698158180892  1.0000
  H   H36       1.0  0.0682328339019946  0.47236008969330356  0.07263059706195209  1.0000
  H   H37       1.0  0.580150346647379  0.8455936337002044  0.2273981859392435  1.0000
  H   H38       1.0  0.41984786103277116  0.1544043035793479  0.7726012596330635  1.0000
  H   H39       1.0  0.40496475903152873  0.8465103469325611  0.1321837396724703  1.0000
  H   H40       1.0  0.5950342282464547  0.1534860147969752  0.8678156404139871  1.0000
  H   H41       1.0  0.6646306302651082  0.077627700280857  0.11226785474109847  1.0000
  H   H42       1.0  0.33536931719955737  0.9223678478608549  0.8877354048856319  1.0000
  H   H43       1.0  0.6317123109339846  0.25661570662838074  0.1923695662013785  1.0000
  H   H44       1.0  0.36828783297637097  0.7433806311651735  0.8076330178894651  1.0000
  H   H45       1.0  0.3335962639378494  0.1270937563132293  0.38269121775643805  1.0000
  H   H46       1.0  0.6663992243721637  0.8729026264598759  0.6173070213472229  1.0000
  H   H47       1.0  0.362010269722191  0.9442176538769473  0.31740434393147865  1.0000
  H   H48       1.0  0.6379852159450151  0.05577872428121821  0.682594665265853  1.0000
  C   C1        1.0  0.7958881620604501  0.39484001187837237  0.509699513011661  1.0000
  C   C2        1.0  0.2041106243855424  0.6051602758969425  0.4903009863276537  1.0000
  C   C3        1.0  0.9193788968220744  0.3900256721737492  0.5911600258023739  1.0000
  C   C4        1.0  0.08061735612824353  0.6099738322872029  0.4088416719070764  1.0000
  C   C5        1.0  0.8853196731103807  0.34753925466473845  0.6815932861735732  1.0000
  C   C6        1.0  0.11467677364282036  0.6524610348331097  0.3184085060936539  1.0000
  C   C7        1.0  0.7266234173305646  0.31129501185888836  0.6861449072672556  1.0000
  C   C8        1.0  0.2733732232255193  0.6887060626758698  0.3138569795577554  1.0000
  C   C9        1.0  0.6098332283760898  0.3200942994535723  0.6020733123611421  1.0000
  C   C10       1.0  0.3901645820263865  0.6799067742199156  0.3979279279999091  1.0000
  C   C11       1.0  0.01418155925816931  0.34032704384392093  0.7723014811257727  1.0000
  C   C12       1.0  0.9858160599842307  0.6596732494076037  0.22769889458383114  1.0000
  C   C13       1.0  0.052468889923261486  0.1612780543794727  0.7368253208029287  1.0000
  C   C14       1.0  0.9475324273755985  0.8387230120952721  0.2631747502599211  1.0000
  C   C15       1.0  0.1362501214788026  0.1831286020214407  0.6554015017264093  1.0000
  C   C16       1.0  0.8637478959405839  0.8168732797636622  0.3445959827240799  1.0000
  C   C17       1.0  0.17981681116896905  0.1017797712198103  0.5940156549955375  1.0000
  C   C18       1.0  0.8201847052183808  0.8982220895217237  0.4059829704377478  1.0000
  C   C19       1.0  0.1416768771897878  0.9965444784791444  0.6107722791746966  1.0000
  C   C20       1.0  0.8583240534026115  0.0034597428493086013  0.3892265063022222  1.0000
  C   C21       1.0  0.058159184995410784  0.975536400099159  0.6919774306079703  1.0000
  C   C22       1.0  0.9418436897556074  0.024466235588128896  0.3080221831064804  1.0000
  C   C23       1.0  0.0128003676952417  0.0555654407257862  0.755959308932816  1.0000
  C   C24       1.0  0.9871999814885156  0.9444364254919506  0.24403919287075843  1.0000
  C   C25       1.0  0.18926198423069004  0.9092963478836967  0.5444136299479041  1.0000
  C   C26       1.0  0.810738357024661  0.09070550448921469  0.45558718213668203  1.0000
  C   C27       1.0  0.9256145587706965  0.027400307905956798  0.8385958722855593  1.0000
  C   C28       1.0  0.07438909293534827  0.9726007476163687  0.16140444603670548  1.0000
  C   C29       1.0  0.8099620285502666  0.9200976087787325  0.9315120559896997  1.0000
  C   C30       1.0  0.1900359809406993  0.0799042591615375  0.0684877387417941  1.0000
  C   C31       1.0  0.756862286569678  0.8180879047435425  0.9622360608301719  1.0000
  C   C32       1.0  0.24313728475974722  0.18191081671164258  0.03776283283595919  1.0000
  C   C33       1.0  0.8021912418648466  0.7284774156069459  0.9137725253283479  1.0000
  C   C34       1.0  0.197808136561008  0.2715252457388502  0.0862251773096361  1.0000
  C   C35       1.0  0.7562440788365734  0.6282276254186243  0.9405885430615442  1.0000
  C   C36       1.0  0.2437572428485879  0.37176872535849287  0.05941108428432779  1.0000
  C   C37       1.0  0.6606447363042277  0.6182081875888628  0.01773629703897226  1.0000
  C   C38       1.0  0.3393598861597198  0.3817920728054105  0.9822648204488901  1.0000
  C   C39       1.0  0.6117398468400734  0.7052791819985773  0.0665592173766711  1.0000
  C   C40       1.0  0.3882643933037144  0.2947195175517691  0.9334401708082966  1.0000
  C   C41       1.0  0.6596168466426136  0.8057384255253622  0.039834838887195176  1.0000
  C   C42       1.0  0.34038447065624666  0.19426264094938256  0.9601652321756478  1.0000
  C   C43       1.0  0.8112332496400184  0.534603635400707  0.8893597549041203  1.0000
  C   C44       1.0  0.18877021090594326  0.4653966396996623  0.11063969876669691  1.0000
  C   C45       1.0  0.5257441583030271  0.8880030090059706  0.164484002023741  1.0000
  C   C46       1.0  0.47425365384295043  0.11199334435494988  0.83551756471401  1.0000
  C   C47       1.0  0.5157729794243905  0.997180798682578  0.20905188163239788  1.0000
  C   C48       1.0  0.48422366287518753  0.002815555539612501  0.7909503315693129  1.0000
  C   C49       1.0  0.5931340081066309  0.08606875359934922  0.1737745218407198  1.0000
  C   C50       1.0  0.40686613580372466  0.9139275841942124  0.8262280622501237  1.0000
  C   C51       1.0  0.5744230108826043  0.1847121840097898  0.2174133658388655  1.0000
  C   C52       1.0  0.42557401902273995  0.8152857402861999  0.7825890364784058  1.0000
  C   C53       1.0  0.4093366796533004  0.1125284614374493  0.3249678438339814  1.0000
  C   C54       1.0  0.5906584131225328  0.8874663374170239  0.6750325164351239  1.0000
  C   C55       1.0  0.4242264309004824  0.0112445758981252  0.2874030217474512  1.0000
  C   C56       1.0  0.5757727537224894  0.9887573004107679  0.7125945863327486  1.0000
  Br  Br1       1.0  0.6125947608174868  0.4969336074745883  0.2674639500181115  1.0000
  Br  Br2       1.0  0.3874116172877962  0.5030642914714961  0.7325363609621647  1.0000
  Br  Br3       1.0  0.17330865079267704  0.31907154048902703  0.4088062580473704  1.0000
  Br  Br4       1.0  0.8266924700604932  0.6809287363338683  0.5911944885513593  1.0000
  N   N1        1.0  0.8647280210105989  0.08437493938729548  0.9061794703583246  1.0000
  N   N2        1.0  0.13527446877746035  0.915626130841119  0.0938191841468949  1.0000
  N   N3        1.0  0.7906774687893614  0.0153881115983836  0.9661105588761958  1.0000
  N   N4        1.0  0.20932404495518137  0.9846137445282039  0.03388883665076036  1.0000
  N   N5        1.0  0.48318084943706197  0.1978024765348465  0.2907955177614099  1.0000
  N   N6        1.0  0.5168183290009907  0.8021946656166534  0.7092047269764947  1.0000
  N   N7        1.0  0.6441931584877237  0.36116248927979916  0.5151635659779715  1.0000
  N   N8        1.0  0.3558040705061103  0.6388362292829801  0.48483739070974263  1.0000
  O   O1        1.0  0.8957145997623001  0.9225653116184418  0.8509634484785735  1.0000
  O   O2        1.0  0.10428574942145731  0.07743655459929502  0.149035053325008  1.0000
  O   O3        1.0  0.6195827500946222  0.8948815361245721  0.08411249904775524  1.0000
  O   O4        1.0  0.38041564874560396  0.1051171815769436  0.9158878111759989  1.0000
  O   O5        1.0  0.005368137743651905  0.2354512106175406  0.8009664122704621  1.0000
  O   O6        1.0  0.994632009708816  0.7645498567184744  0.19903430525634036  1.0000
