data_image0
_chemical_formula_structural       Cd2H38C30S2N6O14
_chemical_formula_sum              "Cd2 H38 C30 S2 N6 O14"
_cell_length_a       4.9392467910259406
_cell_length_b       10.55305538377895
_cell_length_c       17.503733202033793
_cell_angle_alpha    93.46943179162935
_cell_angle_beta     89.99956143437656
_cell_angle_gamma    90.00020157807197

_space_group_name_H-M_alt    "P 1"
_space_group_IT_number       1

loop_
  _space_group_symop_operation_xyz
  'x, y, z'

loop_
  _atom_site_type_symbol
  _atom_site_label
  _atom_site_symmetry_multiplicity
  _atom_site_fract_x
  _atom_site_fract_y
  _atom_site_fract_z
  _atom_site_occupancy
  Cd  Cd1       1.0  0.26940696844705764  0.7815594761660588  0.3622235760539425  1.0000
  Cd  Cd2       1.0  0.7694133957331674  0.2184373336594518  0.6377730904508996  1.0000
  H   H1        1.0  0.29161492721935645  0.605401038097952  0.18550222435181501  1.0000
  H   H2        1.0  0.7916109927553308  0.3946050658073261  0.8145096493372961  1.0000
  H   H3        1.0  0.3424748717912891  0.8040711836102618  0.1186258794265953  1.0000
  H   H4        1.0  0.8425074539085672  0.1959331686624139  0.8813801214184382  1.0000
  H   H5        1.0  0.045376192624821995  0.6505134107081217  0.00039674326594509127  1.0000
  H   H6        1.0  0.5454163459033552  0.34950582119431334  0.9996075277711257  1.0000
  H   H7        1.0  0.9966973946086028  0.4506550045048741  0.0668064341853594  1.0000
  H   H8        1.0  0.4966740570399963  0.5493543897088955  0.933192090327225  1.0000
  H   H9        1.0  0.9316297370124574  0.8839760820536571  0.002081189473599893  1.0000
  H   H10       1.0  0.43165710317756373  0.11602193876900911  0.9979106829539789  1.0000
  H   H11       1.0  0.6079909910017561  0.9370722802036158  0.036337866648509  1.0000
  H   H12       1.0  0.1080068726510746  0.0629470865754413  0.9636623049028118  1.0000
  H   H13       1.0  0.634374171396871  0.8380076355786413  0.9512171489402448  1.0000
  H   H14       1.0  0.13443133900530307  0.16200036233626497  0.04878307208599612  1.0000
  H   H15       1.0  0.43971403715574536  0.49861380563879737  0.3030295188086143  1.0000
  H   H16       1.0  0.939725063214631  0.5013821962607423  0.6969708251767701  1.0000
  H   H17       1.0  0.8925623472346444  0.4145138104008836  0.4081774472176605  1.0000
  H   H18       1.0  0.39255265486875857  0.5854746278263931  0.591816945701737  1.0000
  H   H19       1.0  0.6209723154508069  0.5141759299544476  0.4372362399138013  1.0000
  H   H20       1.0  0.1209728241031769  0.4858168200342874  0.5627662204242583  1.0000
  H   H21       1.0  0.5367631047460789  0.2436572313785135  0.3656691021336016  1.0000
  H   H22       1.0  0.0367373235647648  0.7563345733577124  0.6343266049444766  1.0000
  H   H23       1.0  0.2880407025880912  0.3435440817878899  0.40865663312695943  1.0000
  H   H24       1.0  0.7880302805594042  0.6564404872647032  0.5913343460990108  1.0000
  H   H25       1.0  0.8109090703911549  0.828116530194592  0.22155388016934552  1.0000
  H   H26       1.0  0.3109199013685142  0.1718857474639748  0.7784612282620031  1.0000
  H   H27       1.0  0.7968703682570037  0.05216696985127101  0.1435253852219702  1.0000
  H   H28       1.0  0.29684702997311513  0.9478278440276213  0.8564797210548036  1.0000
  H   H29       1.0  0.4585834920396792  0.062414483843177486  0.2975585890336632  1.0000
  H   H30       1.0  0.9585718853596178  0.9375967291152493  0.7024423615684157  1.0000
  H   H31       1.0  0.9644685366589414  0.39323733013329604  0.25060776000834306  1.0000
  H   H32       1.0  0.4644538171152846  0.606774891062571  0.749389794986115  1.0000
  H   H33       1.0  0.19566906906441517  0.18241625279783588  0.1978402638130561  1.0000
  H   H34       1.0  0.6956551219380742  0.8175833001169723  0.8021577851724049  1.0000
  H   H35       1.0  0.7066915308061111  0.9048930873744111  0.4396501242904449  1.0000
  H   H36       1.0  0.20668865467472838  0.09509606237717354  0.5603457553780515  1.0000
  H   H37       1.0  0.5010832927137798  0.0209833984675143  0.4454309013717507  1.0000
  H   H38       1.0  0.0010803478324775  0.9790036261590984  0.5545640940263256  1.0000
  C   C1        1.0  0.4567946732235412  0.6153192059899625  0.14497401014001815  1.0000
  C   C2        1.0  0.9568014569865679  0.38468060467751286  0.8550270361798624  1.0000
  C   C3        1.0  0.4865553971537864  0.7268278099544859  0.10683172418247723  1.0000
  C   C4        1.0  0.986561954054416  0.2731767305106345  0.8931728983453908  1.0000
  C   C5        1.0  0.6945698376150915  0.7402144012222039  0.0534450109711386  1.0000
  C   C6        1.0  0.1945900556898437  0.2597907422365608  0.9465601304774865  1.0000
  C   C7        1.0  0.8790167613003491  0.6401347657876215  0.040384873529212904  1.0000
  C   C8        1.0  0.37904148377155167  0.35987062241903084  0.9596182523778297  1.0000
  C   C9        1.0  0.8539591943634407  0.5282736367456949  0.07778334027393191  1.0000
  C   C10       1.0  0.3539517284783002  0.4717354322854136  0.9222256958324169  1.0000
  C   C11       1.0  0.6399317285552469  0.5160562822019514  0.1292343362449486  1.0000
  C   C12       1.0  0.13993214805515916  0.48394884840796226  0.8707674690676015  1.0000
  C   C13       1.0  0.7189695478153552  0.8566633791801619  0.008918095097264682  1.0000
  C   C14       1.0  0.21900345628340992  0.1433495174872306  0.991078760581118  1.0000
  C   C15       1.0  0.6538982349723241  0.4810947418723189  0.31531800906606133  1.0000
  C   C16       1.0  0.15389905054660596  0.5189019482734523  0.6846777050341475  1.0000
  C   C17       1.0  0.8145751385562364  0.6050993988125554  0.3133031751701907  1.0000
  C   C18       1.0  0.31458491076821826  0.3948993458508881  0.6866946388494953  1.0000
  C   C19       1.0  0.6787405518841609  0.43518045599360283  0.3967906613334904  1.0000
  C   C20       1.0  0.1787302992954736  0.5648171695978733  0.6032079066970084  1.0000
  C   C21       1.0  0.505065556369395  0.3194943250298651  0.4106224289844107  1.0000
  C   C22       1.0  0.005052738406092799  0.6805003419652564  0.5893700238325295  1.0000
  C   C23       1.0  0.5574586672761654  0.2643100286844771  0.48752208801230523  1.0000
  C   C24       1.0  0.05745900715854899  0.7356770714687785  0.5124722439164843  1.0000
  C   C25       1.0  0.9448913510636244  0.9093218040879735  0.2243493924958315  1.0000
  C   C26       1.0  0.44490357905860384  0.0906787252327561  0.775665987370779  1.0000
  C   C27       1.0  0.9355748835827101  0.018442957270359304  0.18547308441301885  1.0000
  C   C28       1.0  0.43559979869810667  0.9815624027456591  0.8145362293304644  1.0000
  C   C29       1.0  0.28035627811861014  0.028848127631000902  0.26647999933092603  1.0000
  C   C30       1.0  0.780343940342128  0.9711534329750716  0.7335174194279261  1.0000
  S   S1        1.0  0.6082008025503071  0.3711749545336076  0.1745131655606542  1.0000
  S   S2        1.0  0.10818173508339872  0.6288244946369517  0.8254850269453302  1.0000
  N   N1        1.0  0.7584976942185833  0.3842339242382381  0.2582577726855675  1.0000
  N   N2        1.0  0.2584853321878953  0.6157599381472849  0.741744501861362  1.0000
  N   N3        1.0  0.1603640536932502  0.917280629667097  0.2746281304752642  1.0000
  N   N4        1.0  0.6603562547201989  0.08273203290757179  0.7253796697676478  1.0000
  N   N5        1.0  0.14883334409721272  0.09244757735548602  0.21293426293723886  1.0000
  N   N6        1.0  0.648822719043494  0.9075443603099699  0.787061260245615  1.0000
  O   O1        1.0  0.703161463901843  0.7086981289677396  0.3365915228832463  1.0000
  O   O2        1.0  0.20316906373972193  0.2912986109493971  0.6634046813481123  1.0000
  O   O3        1.0  0.06157196261975169  0.5970518669412641  0.2930477150720634  1.0000
  O   O4        1.0  0.5615757115966815  0.40294848489324403  0.7069500228034471  1.0000
  O   O5        1.0  0.7034561322164165  0.3296262389262169  0.5354759073850133  1.0000
  O   O6        1.0  0.20345748020938  0.6703515154713245  0.4645194994195094  1.0000
  O   O7        1.0  0.4563575304409467  0.15698685547775432  0.501164929566258  1.0000
  O   O8        1.0  0.9563781447364121  0.8430007004771124  0.4988298897738162  1.0000
  O   O9        1.0  0.32150695259931444  0.35113751757514683  0.1896758566849428  1.0000
  O   O10       1.0  0.8214892144604775  0.6488603119831922  0.8103201932355264  1.0000
  O   O11       1.0  0.7524660437237641  0.27448584696370654  0.12867817720008654  1.0000
  O   O12       1.0  0.2524321443289423  0.7255261574205535  0.8713174417922219  1.0000
  O   O13       1.0  0.5572523713488523  0.9453422147238372  0.4124285325384491  1.0000
  O   O14       1.0  0.057242161643394206  0.05464677510401121  0.5875664503992439  1.0000
