data_image0
_chemical_formula_structural       Zn4H40C62N8O18
_chemical_formula_sum              "Zn4 H40 C62 N8 O18"
_cell_length_a       10.951275502897825
_cell_length_b       11.427603827584582
_cell_length_c       12.165655992855898
_cell_angle_alpha    80.9287658416534
_cell_angle_beta     84.77400794887635
_cell_angle_gamma    68.17561912997259

_space_group_name_H-M_alt    "P 1"
_space_group_IT_number       1

loop_
  _space_group_symop_operation_xyz
  'x, y, z'

loop_
  _atom_site_type_symbol
  _atom_site_label
  _atom_site_symmetry_multiplicity
  _atom_site_fract_x
  _atom_site_fract_y
  _atom_site_fract_z
  _atom_site_occupancy
  Zn  Zn1       1.0  0.9684741552166046  0.3540050618496834  0.4344922701885707  1.0000
  Zn  Zn2       1.0  0.03152526180247153  0.6459941016253835  0.5655077098379095  1.0000
  Zn  Zn3       1.0  0.1753826486006106  0.9280770693138934  0.3556013182974382  1.0000
  Zn  Zn4       1.0  0.8246182464788349  0.07192304143713099  0.6443992248908758  1.0000
  H   H1        1.0  0.5106066582327955  0.5957615772901192  0.3251271475861515  1.0000
  H   H2        1.0  0.4893916884104499  0.4042404393608335  0.6748741421850042  1.0000
  H   H3        1.0  0.6834549883488065  0.3812697081087252  0.3207180615447314  1.0000
  H   H4        1.0  0.31654611381593883  0.6187323034011386  0.6792813627891547  1.0000
  H   H5        1.0  0.6278298785590409  0.18749146378832648  0.3872409908725061  1.0000
  H   H6        1.0  0.37217066318768843  0.8125095985897699  0.6127577965691772  1.0000
  H   H7        1.0  0.15509574800267958  0.18768541019285578  0.8663118763241896  1.0000
  H   H8        1.0  0.8449042320288315  0.8123147028403181  0.13368709634836048  1.0000
  H   H9        1.0  0.3647393285734566  0.2352639910642295  0.8299373171274594  1.0000
  H   H10       1.0  0.6352607990026727  0.7647332697961955  0.17006370802307916  1.0000
  H   H11       1.0  0.46751239539221257  0.23029468119515434  0.6396628973919434  1.0000
  H   H12       1.0  0.5324906896018645  0.7697044744303555  0.3603384319591925  1.0000
  H   H13       1.0  0.20093935324786127  0.2101166255053002  0.2749488573721663  1.0000
  H   H14       1.0  0.7990609840080011  0.789882536540297  0.7250494046777973  1.0000
  H   H15       1.0  0.36880810136394626  0.0655048265493505  0.9733286362680076  1.0000
  H   H16       1.0  0.6311916702850482  0.9344933855118072  0.026672277382040522  1.0000
  H   H17       1.0  0.3007370870530225  0.8821559384796342  0.11639807060695517  1.0000
  H   H18       1.0  0.6992623260744183  0.11784322435592286  0.8836043757887423  1.0000
  H   H19       1.0  0.259013969568514  0.35742279908697566  0.1318265775742802  1.0000
  H   H20       1.0  0.7409854474505692  0.6425763643880913  0.8681734024522002  1.0000
  H   H21       1.0  0.2685890100437618  0.33067365550283506  0.9907966197079503  1.0000
  H   H22       1.0  0.7314082157634659  0.6693264628845836  0.009203396278778113  1.0000
  H   H23       1.0  0.5011158873522916  0.12503276196877516  0.21241831120411092  1.0000
  H   H24       1.0  0.4988831737396567  0.8749673527070311  0.7875815573218786  1.0000
  H   H25       1.0  0.7374838837640496  0.0883081454554144  0.2024066522979737  1.0000
  H   H26       1.0  0.2625158904793779  0.9116900670320831  0.7975926171059198  1.0000
  H   H27       1.0  0.6839094366349914  0.3684254101796043  0.9109332219557017  1.0000
  H   H28       1.0  0.31608906403894116  0.6315737553644354  0.08906600967807782  1.0000
  H   H29       1.0  0.4454221399058512  0.4069850205203876  0.920534608966932  1.0000
  H   H30       1.0  0.5545776343375763  0.5930131919671097  0.07946466043696185  1.0000
  H   H31       1.0  0.9286556387526873  0.10246203396638978  0.08695771625987449  1.0000
  H   H32       1.0  0.071343778266396  0.8975371295086774  0.9130422637666057  1.0000
  H   H33       1.0  0.9109602255820306  0.2210186558200888  0.9700773521224306  1.0000
  H   H34       1.0  0.08903975185506142  0.7789814567867379  0.029923264796259747  1.0000
  H   H35       1.0  0.8782610673059635  0.4498292884354525  0.009032456574161133  1.0000
  H   H36       1.0  0.12173926865268216  0.5501698733969744  0.9909666275988728  1.0000
  H   H37       1.0  0.9024951270573994  0.5419397176142836  0.20403267907049377  1.0000
  H   H38       1.0  0.0975055635311648  0.45805849280424116  0.7959673387261076  1.0000
  H   H39       1.0  0.9246651421020788  0.16105887533151278  0.28434148078518007  1.0000
  H   H40       1.0  0.07533427361978805  0.8389402879303843  0.7156593213643702  1.0000
  C   C1        1.0  0.42541975227216966  0.29545971056379006  0.4252767192042128  1.0000
  C   C2        1.0  0.5745820630440548  0.7045403987577642  0.5747221060075844  1.0000
  C   C3        1.0  0.3276752430632259  0.41756604342197784  0.4297408259817814  1.0000
  C   C4        1.0  0.6723260079433474  0.5824331161283068  0.5702598287070302  1.0000
  C   C5        1.0  0.35891763412379873  0.5265857134608966  0.39320314005026097  1.0000
  C   C6        1.0  0.6410826953487858  0.4734134473056955  0.6068000547381373  1.0000
  C   C7        1.0  0.4876473631401553  0.5108276836162489  0.3529405244448967  1.0000
  C   C8        1.0  0.5123540936545086  0.48917337647970516  0.6470598335125642  1.0000
  C   C9        1.0  0.5837804927568726  0.39071262290859476  0.34980887664404037  1.0000
  C   C10       1.0  0.4162196930627289  0.6092893906702487  0.650189799297152  1.0000
  C   C11       1.0  0.5529816476432786  0.2825685475206682  0.3856170270590979  1.0000
  C   C12       1.0  0.4470198143402442  0.7174325134279655  0.6143800424060686  1.0000
  C   C13       1.0  0.3924786744898867  0.17774544677581613  0.46029106554284027  1.0000
  C   C14       1.0  0.6075231408263381  0.822254662545738  0.5397077596689571  1.0000
  C   C15       1.0  0.32952289363294807  0.16774953048071237  0.5741757959407181  1.0000
  C   C16       1.0  0.670479480804076  0.832251527759439  0.4258244882863664  1.0000
  C   C17       1.0  0.2208202217707438  0.12838421538669556  0.597784756637985  1.0000
  C   C18       1.0  0.7791796068245064  0.871618749179717  0.4022146299257869  1.0000
  C   C19       1.0  0.15716180395423152  0.1396770653652979  0.7035412431694681  1.0000
  C   C20       1.0  0.8428407219190461  0.8603211413416076  0.2964586271663805  1.0000
  C   C21       1.0  0.2078212960786132  0.18045719279012215  0.7856981385952293  1.0000
  C   C22       1.0  0.7921790385828231  0.819541968829135  0.2143017677008814  1.0000
  C   C23       1.0  0.3219819784979592  0.20812010341484202  0.7650918693182973  1.0000
  C   C24       1.0  0.6780199856601001  0.7918771539471335  0.23490818624841842  1.0000
  C   C25       1.0  0.3804380351083267  0.2049444088359849  0.6586250644785565  1.0000
  C   C26       1.0  0.6195646952558321  0.7950556982034273  0.3413753312490186  1.0000
  C   C27       1.0  0.19051512878709081  0.42218840591991114  0.4642207137826873  1.0000
  C   C28       1.0  0.809485201982703  0.5778107550598506  0.535781658882641  1.0000
  C   C29       1.0  0.26130870740076534  0.6597852314122007  0.3945112162145464  1.0000
  C   C30       1.0  0.7386921863814635  0.34021487912565357  0.6054901490968448  1.0000
  C   C31       1.0  0.170119403243369  0.0820536021944491  0.5082968535579795  1.0000
  C   C32       1.0  0.8298804253518882  0.9179493623719636  0.4917025330057925  1.0000
  C   C33       1.0  0.03237317497887911  0.11234882097350857  0.7304272494619966  1.0000
  C   C34       1.0  0.9676273667678573  0.8876522414045949  0.2695715379796866  1.0000
  C   C35       1.0  0.23528251668165717  0.14504467463279266  0.21319557243366924  1.0000
  C   C36       1.0  0.7647165444102839  0.8549554400430139  0.7868042960923134  1.0000
  C   C37       1.0  0.32357029915170443  0.06744522708876839  0.056205116112892  1.0000
  C   C38       1.0  0.6764285561521464  0.9325529870413688  0.9437950491444551  1.0000
  C   C39       1.0  0.2908741311919485  0.9773373044897368  0.12767071438344862  1.0000
  C   C40       1.0  0.709125284529918  0.022661858772160294  0.8723300877661018  1.0000
  C   C41       1.0  0.3117506884371366  0.2900514811211749  0.0726409455381329  1.0000
  C   C42       1.0  0.6882483739520209  0.7099486337678015  0.9273581008647866  1.0000
  C   C43       1.0  0.45718651399584326  0.26777789185967993  0.06626829080961022  1.0000
  C   C44       1.0  0.5428127502897624  0.7322241229354631  0.933732925231169  1.0000
  C   C45       1.0  0.5403359403442779  0.17823310030196635  0.1454019518874645  1.0000
  C   C46       1.0  0.45966255903243786  0.8217660650289035  0.8545981018693852  1.0000
  C   C47       1.0  0.6738713719214432  0.15816574600394515  0.1401824933981857  1.0000
  C   C48       1.0  0.32612768787328855  0.8418343684586914  0.8598181972508742  1.0000
  C   C49       1.0  0.7272765546027813  0.22582528724873888  0.05651472080693053  1.0000
  C   C50       1.0  0.2727250549253598  0.7741729215271459  0.9434844011362244  1.0000
  C   C51       1.0  0.6437699702245753  0.31624769336903563  0.9780801370274118  1.0000
  C   C52       1.0  0.35622924230362674  0.6837495697735321  0.0219193176073489  1.0000
  C   C53       1.0  0.5094041405973401  0.3369508175754773  0.9828166499347474  1.0000
  C   C54       1.0  0.49059563494329694  0.6630473951251827  0.01718179734608335  1.0000
  C   C55       1.0  0.8726317430691141  0.20197101440223264  0.05475206279299976  1.0000
  C   C56       1.0  0.12736802987709694  0.7980271978720949  0.9452480287339708  1.0000
  C   C57       1.0  0.8903367397137104  0.40629919855246743  0.09510024672888312  1.0000
  C   C58       1.0  0.10966267600815635  0.5936999647094368  0.9049005554206745  1.0000
  C   C59       1.0  0.9028447709292776  0.4500905677053239  0.1909383722297235  1.0000
  C   C60       1.0  0.09715556373215158  0.5499085939139405  0.8090615340663802  1.0000
  C   C61       1.0  0.9141725540823131  0.2535024092862272  0.23745173327083793  1.0000
  C   C62       1.0  0.08582686293677007  0.7464967541888397  0.7625482467556425  1.0000
  N   N1        1.0  0.23638322287595054  0.0268097945537633  0.2249341175883046  1.0000
  N   N2        1.0  0.7636154822888559  0.9731912713227827  0.7750656394371944  1.0000
  N   N3        1.0  0.28648465578508103  0.17347820616718934  0.1113446951209056  1.0000
  N   N4        1.0  0.7135162431859996  0.8265219052233448  0.8886533816981981  1.0000
  N   N5        1.0  0.8979649235369964  0.2821550431290305  0.12620499253096537  1.0000
  N   N6        1.0  0.10203357583972675  0.717844122201839  0.8737950612258844  1.0000
  N   N7        1.0  0.9176671049256273  0.3537087810121874  0.27867874388299896  1.0000
  N   N8        1.0  0.08233287380867446  0.6462913318078093  0.7213210509126142  1.0000
  O   O1        1.0  0.13918471933439489  0.3838111743267448  0.39386832555641144  1.0000
  O   O2        1.0  0.8608152581026902  0.6161889382800823  0.6061322913622789  1.0000
  O   O3        1.0  0.13830704071601474  0.45340715940929505  0.5574793149009382  1.0000
  O   O4        1.0  0.8616920190787173  0.5465929550533485  0.4425213757481287  1.0000
  O   O5        1.0  0.14534199027724537  0.6826328569656681  0.4359127093345805  1.0000
  O   O6        1.0  0.8546579897542658  0.31736725606749866  0.5640862633379697  1.0000
  O   O7        1.0  0.30143214904037324  0.7491525535339959  0.3504455271554576  1.0000
  O   O8        1.0  0.6985681843238469  0.2508466078720915  0.6495552012637231  1.0000
  O   O9        1.0  0.417392948470976  0.09619133044974153  0.3978585148382052  1.0000
  O   O10       1.0  0.5826088642508297  0.90380877844548  0.6021419546197393  1.0000
  O   O11       1.0  0.08337580552188942  0.16003321601078818  0.4433190219375689  1.0000
  O   O12       1.0  0.9166223379276983  0.8399669005208279  0.5566809203187901  1.0000
  O   O13       1.0  0.22472880887320926  0.9644931522013205  0.49716437199229807  1.0000
  O   O14       1.0  0.7752719347699755  0.035509810082949386  0.5028365850872447  1.0000
  O   O15       1.0  0.010119295570739  0.045848708664109894  0.662551697932173  1.0000
  O   O16       1.0  0.9898812461759977  0.9541523537139867  0.337447089509503  1.0000
  O   O17       1.0  0.9604558744409175  0.15238626191957388  0.8123996859311758  1.0000
  O   O18       1.0  0.03954410429338404  0.847613850900423  0.18760010886443718  1.0000
