data_image0
_chemical_formula_structural       Li8H16C24N8O16
_chemical_formula_sum              "Li8 H16 C24 N8 O16"
_cell_length_a       9.85239818329365
_cell_length_b       9.852420282919129
_cell_length_c       10.160788752082095
_cell_angle_alpha    113.40527554056877
_cell_angle_beta     113.40467644518446
_cell_angle_gamma    100.40921961709691

_space_group_name_H-M_alt    "P 1"
_space_group_IT_number       1

loop_
  _space_group_symop_operation_xyz
  'x, y, z'

loop_
  _atom_site_type_symbol
  _atom_site_label
  _atom_site_symmetry_multiplicity
  _atom_site_fract_x
  _atom_site_fract_y
  _atom_site_fract_z
  _atom_site_occupancy
  Li  Li1       1.0  0.6321342072622118  0.4685717577361573  0.26919458262700163  1.0000
  Li  Li2       1.0  0.1993827012080018  0.36293997858147964  0.7308075394802672  1.0000
  Li  Li3       1.0  0.7185695371140925  0.38212603762816133  0.7691948592167821  1.0000
  Li  Li4       1.0  0.6129323127167795  0.9493732960782423  0.23080302276548545  1.0000
  Li  Li5       1.0  0.5059215643091336  0.2683124551844429  0.8842962971207415  1.0000
  Li  Li6       1.0  0.3840173269912699  0.6216235008531897  0.11570305521134841  1.0000
  Li  Li7       1.0  0.5183171563378366  0.25592317985824303  0.38430083676043847  1.0000
  Li  Li8       1.0  0.8716211580182647  0.13401549244005648  0.6156997531054104  1.0000
  H   H1        1.0  0.32595155262087167  0.9228352604197313  0.4007653125513715  1.0000
  H   H2        1.0  0.5220728025740158  0.925186951901253  0.5992356519646621  1.0000
  H   H3        1.0  0.17283793152067523  0.0759535654614893  0.9007676659633931  1.0000
  H   H4        1.0  0.17518464707477932  0.2720709610664828  0.09923106006148436  1.0000
  H   H5        1.0  0.15144834320721398  0.9687455989720489  0.5128438207401445  1.0000
  H   H6        1.0  0.45590468775693443  0.6386018978506414  0.48715484946196613  1.0000
  H   H7        1.0  0.21875259242852954  0.90145793790073  0.012853026735690706  1.0000
  H   H8        1.0  0.8886076141222008  0.20590312386407555  0.9871491335173489  1.0000
  H   H9        1.0  0.04410638375983193  0.7867031716379881  0.4932154228923408  1.0000
  H   H10       1.0  0.2934860625991861  0.5508874941335905  0.5067829642595002  1.0000
  H   H11       1.0  0.03670315608769671  0.7941129169741501  0.9932138390293235  1.0000
  H   H12       1.0  0.8008998898733708  0.04348886426118529  0.006787429803921368  1.0000
  H   H13       1.0  0.9390661277858712  0.8580821558554631  0.36577687619642774  1.0000
  H   H14       1.0  0.4923091664645511  0.5732948915671514  0.6342266981453691  1.0000
  H   H15       1.0  0.10808596144068622  0.6890660933490977  0.8657724794120372  1.0000
  H   H16       1.0  0.8232938308188907  0.24231374778965178  0.13422657268603194  1.0000
  C   C1        1.0  0.8249367144770475  0.5140001264315828  0.1199534930082322  1.0000
  C   C2        1.0  0.39404995698403417  0.704983104607969  0.8800477509754646  1.0000
  C   C3        1.0  0.764004557506148  0.5749341759435324  0.6199710651211491  1.0000
  C   C4        1.0  0.9549650728198743  0.14403856041053587  0.3800327667445203  1.0000
  C   C5        1.0  0.9885112307038714  0.6029961806070714  0.15807105016762796  1.0000
  C   C6        1.0  0.44493020282049417  0.8304392888573702  0.841930727143094  1.0000
  C   C7        1.0  0.853008994929752  0.7385044087942987  0.6580738511947999  1.0000
  C   C8        1.0  0.0804316814529429  0.194939949477174  0.34192864869643813  1.0000
  C   C9        1.0  0.0806596032216832  0.5642154966871831  0.08492557596206046  1.0000
  C   C10       1.0  0.4792889962484707  0.9957329091190268  0.9150721593558373  1.0000
  C   C11       1.0  0.8142189282536805  0.8306496130642812  0.5849250594587331  1.0000
  C   C12       1.0  0.2457249110258957  0.22929669048061638  0.4150753628208578  1.0000
  C   C13       1.0  0.050370831291758074  0.42224028463961355  0.9318007183361419  1.0000
  C   C14       1.0  0.4904391606209941  0.11856892429979381  0.06819715134912488  1.0000
  C   C15       1.0  0.6722447302796227  0.8003642914821325  0.43180091904469725  1.0000
  C   C16       1.0  0.3685628557357462  0.24044453348849262  0.5682002564583187  1.0000
  C   C17       1.0  0.22999818819182136  0.8035126518506884  0.30630398957555366  1.0000
  C   C18       1.0  0.49720284895397543  0.923691022237783  0.6936907787126573  1.0000
  C   C19       1.0  0.053515608987318275  0.9800007253405381  0.8063038541559423  1.0000
  C   C20       1.0  0.173696306483258  0.24721053575539997  0.19369365341311354  1.0000
  C   C21       1.0  0.053559731603115814  0.8481424884958741  0.4261879366724345  1.0000
  C   C22       1.0  0.42195368062026267  0.627369815222437  0.5738100237838922  1.0000
  C   C23       1.0  0.09815018250092318  0.8035655641146917  0.9261897757749014  1.0000
  C   C24       1.0  0.8773770238799159  0.1719602560903368  0.07381027171698651  1.0000
  N   N1        1.0  0.2310125199510082  0.6901069552292824  0.18153911852245133  1.0000
  N   N2        1.0  0.5085635835262536  0.0494711219609556  0.8184564715930451  1.0000
  N   N3        1.0  0.9401062774029043  0.9810046593230906  0.6815359944312291  1.0000
  N   N4        1.0  0.29946974077154215  0.2585705921716653  0.3184628547763922  1.0000
  N   N5        1.0  0.08808854319666885  0.7551310148342053  0.3000359979766928  1.0000
  N   N6        1.0  0.45509263962504315  0.7880512123757055  0.6999608981802653  1.0000
  N   N7        1.0  0.005138589488794282  0.8380895716146028  0.8000365862929115  1.0000
  N   N8        1.0  0.0380538502958743  0.20510387563020765  0.19996361203970991  1.0000
  O   O1        1.0  0.7103200965803398  0.428726903375768  0.9666686162965094  1.0000
  O   O2        1.0  0.46206022207440606  0.7436512422643274  0.03333153987716038  1.0000
  O   O3        1.0  0.6787270149568345  0.46031474189207  0.46666990561013943  1.0000
  O   O4        1.0  0.9936467133492289  0.21206494807199044  0.5333365905559122  1.0000
  O   O5        1.0  0.8127186264218763  0.5298395305207392  0.24363789943488695  1.0000
  O   O6        1.0  0.2862061519928502  0.5690782255136567  0.7563625014962412  1.0000
  O   O7        1.0  0.7798331852464387  0.5627059939792287  0.7436364546542863  1.0000
  O   O8        1.0  0.8190760282288354  0.0362048868090667  0.256372435953928  1.0000
  O   O9        1.0  0.9064296344773981  0.32124851270722843  0.8148255836734182  1.0000
  O   O10       1.0  0.5064197616682693  0.09160050154333278  0.18516982275056662  1.0000
  O   O11       1.0  0.5712460586436662  0.6564203909130838  0.3148249419132725  1.0000
  O   O12       1.0  0.3415936030656185  0.25642234186879875  0.6851756857253337  1.0000
  O   O13       1.0  0.1770627919520251  0.4130908264019553  0.9279916365402272  1.0000
  O   O14       1.0  0.4850981757595818  0.24906993257202692  0.07200712890714553  1.0000
  O   O15       1.0  0.6630990844441131  0.9270517714834837  0.4279932537738702  1.0000
  O   O16       1.0  0.49905518232552754  0.23510621316862063  0.5720072235089121  1.0000
