data_image0
_chemical_formula_structural       Ag4H24C40N16
_chemical_formula_sum              "Ag4 H24 C40 N16"
_cell_length_a       5.2305036568727115
_cell_length_b       7.796992388837763
_cell_length_c       24.34808740823463
_cell_angle_alpha    97.14111739471505
_cell_angle_beta     93.12335458540548
_cell_angle_gamma    103.95651673280432

_space_group_name_H-M_alt    "P 1"
_space_group_IT_number       1

loop_
  _space_group_symop_operation_xyz
  'x, y, z'

loop_
  _atom_site_type_symbol
  _atom_site_label
  _atom_site_symmetry_multiplicity
  _atom_site_fract_x
  _atom_site_fract_y
  _atom_site_fract_z
  _atom_site_occupancy
  Ag  Ag1       1.0  0.7273698739871434  0.35766000855966956  0.5443853782502616  1.0000
  Ag  Ag2       1.0  0.27262855602259606  0.6423415425530337  0.4556154646141693  1.0000
  Ag  Ag3       1.0  0.20297627494042558  0.3296680360095723  0.9545174088647318  1.0000
  Ag  Ag4       1.0  0.7970221551886993  0.6703334969275334  0.045482201161476624  1.0000
  H   H1        1.0  0.2579601425241975  0.025777327214491705  0.4836729827792397  1.0000
  H   H2        1.0  0.7420372532030868  0.9742215418716428  0.5163269235157344  1.0000
  H   H3        1.0  0.9553172253646949  0.9175197554140696  0.3964234151104551  1.0000
  H   H4        1.0  0.0446782615035843  0.08247913525632102  0.6035768798944333  1.0000
  H   H5        1.0  0.5680755394425959  0.21204791133954606  0.3079054817515755  1.0000
  H   H6        1.0  0.43192463952127713  0.7879482628441609  0.6920947652845018  1.0000
  H   H7        1.0  0.8529785268984185  0.29758955725574054  0.3985196067233617  1.0000
  H   H8        1.0  0.14701696000965814  0.702409327356122  0.6014802773354547  1.0000
  H   H9        1.0  0.6464480516235155  0.9769969005109331  0.10900263382993812  1.0000
  H   H10       1.0  0.3535548731901486  0.023011297732743706  0.8909976960717575  1.0000
  H   H11       1.0  0.7756814924247522  0.09884252111601911  0.02110333434561081  1.0000
  H   H12       1.0  0.22431693766458238  0.9011590178796213  0.9788966866266763  1.0000
  H   H13       1.0  0.5363625765859014  0.34002603248447383  0.09056744845768351  1.0000
  H   H14       1.0  0.46363915396084115  0.6599741405049573  0.9094325596482663  1.0000
  H   H15       1.0  0.4377179051366297  0.23029636130942072  0.18212305757731434  1.0000
  H   H16       1.0  0.5622862513705512  0.7697051371675698  0.8178774410495253  1.0000
  H   H17       1.0  0.27249367834293287  0.7168221110793385  0.16508669517362762  1.0000
  H   H18       1.0  0.7275021659606651  0.28317273496693224  0.8349118062671792  1.0000
  H   H19       1.0  0.8471344345727231  0.49189517617919176  0.16816744485354462  1.0000
  H   H20       1.0  0.15286280113031125  0.5080983557378076  0.8318334871612197  1.0000
  H   H21       1.0  0.057312306635964184  0.4178517136114408  0.32846468653150407  1.0000
  H   H22       1.0  0.9426958273349301  0.5821551212759033  0.6715368855782488  1.0000
  H   H23       1.0  0.48852416783969227  0.642768675622108  0.332494856734023  1.0000
  H   H24       1.0  0.5114796315107243  0.3572368250692649  0.6675045588343878  1.0000
  C   C1        1.0  0.3508334562450486  0.37036275487745485  0.553498559435525  1.0000
  C   C2        1.0  0.649164973764698  0.6296387962352485  0.446502283428906  1.0000
  C   C3        1.0  0.8193517819828314  0.3343807052918137  0.9444400292998767  1.0000
  C   C4        1.0  0.1806456137046624  0.6656181698528556  0.05556028794117651  1.0000
  C   C5        1.0  0.3221993208054527  0.061529657054258315  0.44375126368616696  1.0000
  C   C6        1.0  0.6777951317405735  0.9384665576480984  0.5562485056953507  1.0000
  C   C7        1.0  0.1524412007992382  0.0027596068589872008  0.39554789007052454  1.0000
  C   C8        1.0  0.8475551605660031  0.9972365923176413  0.604451901547158  1.0000
  C   C9        1.0  0.23933473406524539  0.05579262769882119  0.34545686507295414  1.0000
  C   C10       1.0  0.7606654449782154  0.9442035343678157  0.6545425600709721  1.0000
  C   C11       1.0  0.4953204277975304  0.1652066384847757  0.3459171514667361  1.0000
  C   C12       1.0  0.5046797511663499  0.8347895356989312  0.654083095569341  1.0000
  C   C13       1.0  0.6520834472692343  0.21345712035048342  0.3962612195187277  1.0000
  C   C14       1.0  0.34791534009624303  0.7865403982551697  0.6037386516737656  1.0000
  C   C15       1.0  0.06022992199820709  0.9975546870674208  0.29386193814951883  1.0000
  C   C16       1.0  0.9397707741864847  0.0024428160125041006  0.7061379552791324  1.0000
  C   C17       1.0  0.6687567198037739  0.8334413251088434  0.24906385582853835  1.0000
  C   C18       1.0  0.33124640246074216  0.16655748528304312  0.75093529528278  1.0000
  C   C19       1.0  0.9616820351716057  0.018139970642053502  0.203556018615565  1.0000
  C   C20       1.0  0.03831742935935978  0.9818642261460226  0.7964432951418702  1.0000
  C   C21       1.0  0.033833684426817  0.09231951350103881  0.1519086077229517  1.0000
  C   C22       1.0  0.9661676888835656  0.907684673819844  0.8480911392167202  1.0000
  C   C23       1.0  0.845836186453944  0.05586563878370041  0.10606432366613212  1.0000
  C   C24       1.0  0.1541676128168844  0.9441398740247422  0.8939359137944295  1.0000
  C   C25       1.0  0.9184177561359376  0.12372123200240995  0.057425211521533015  1.0000
  C   C26       1.0  0.08158170843482541  0.8762829587271314  0.9425736912898304  1.0000
  C   C27       1.0  0.3412532539711037  0.2577978140177777  0.096267124521269  1.0000
  C   C28       1.0  0.6587503854346438  0.742202337387397  0.903732494874774  1.0000
  C   C29       1.0  0.28744671415181955  0.19743944949195225  0.14700549134174423  1.0000
  C   C30       1.0  0.7125555335759443  0.8025620584522316  0.8529945741028585  1.0000
  C   C31       1.0  0.4147446113046343  0.6987231592325575  0.24887985780796382  1.0000
  C   C32       1.0  0.5852566021804647  0.3012756606265158  0.7511188601211175  1.0000
  C   C33       1.0  0.2302854982066407  0.6541535963553144  0.20220012121450284  1.0000
  C   C34       1.0  0.7697132891588369  0.3458439222503387  0.7977997499779906  1.0000
  C   C35       1.0  0.9935401463055482  0.5273360461704186  0.20416003893619467  1.0000
  C   C36       1.0  0.00645864098034815  0.47266148455230456  0.7958406541484424  1.0000
  C   C37       1.0  0.10947531251332522  0.4867666294408794  0.2926970352541148  1.0000
  C   C38       1.0  0.8905288439540582  0.5132348750946462  0.7073038743187965  1.0000
  C   C39       1.0  0.35135049303716653  0.6123580454994194  0.2952923621837869  1.0000
  C   C40       1.0  0.6486555724086075  0.38764341927623763  0.7047069258409878  1.0000
  N   N1        1.0  0.12601584684487932  0.3687533064423719  0.5519907036820442  1.0000
  N   N2        1.0  0.8739825831648673  0.6312482446703315  0.44801013918237953  1.0000
  N   N3        1.0  0.5952177413389422  0.33302905449864534  0.9456428714810984  1.0000
  N   N4        1.0  0.40478172311243543  0.6669751544064938  0.05435726416848752  1.0000
  N   N5        1.0  0.5693663509855682  0.16434883648678783  0.4445651391037871  1.0000
  N   N6        1.0  0.43063052752090397  0.8356487037031288  0.5554351207986201  1.0000
  N   N7        1.0  0.8291891146094912  0.87841591079426  0.29633546478998346  1.0000
  N   N8        1.0  0.1708115816149984  0.12158158622712992  0.7036640176925957  1.0000
  N   N9        1.0  0.7235216445493294  0.9030002479094323  0.20197685670081003  1.0000
  N   N10       1.0  0.27647678554000527  0.09700129108620102  0.7980231642714701  1.0000
  N   N11       1.0  0.1388687685518306  0.0681233260383323  0.24818147200345927  1.0000
  N   N12       1.0  0.8611329619551142  0.9318768530096336  0.7518189470485696  1.0000
  N   N13       1.0  0.16234253241104568  0.2214016942922541  0.05197369149524181  1.0000
  N   N14       1.0  0.837659715316711  0.7785998136519297  0.9480263739493612  1.0000
  N   N15       1.0  0.9304533693111381  0.4429251549740344  0.24830468981319606  1.0000
  N   N16       1.0  0.0695464523367946  0.5570750456581949  0.7516961179487398  1.0000
