data_image0
_chemical_formula_structural       Li4H32C36O18
_chemical_formula_sum              "Li4 H32 C36 O18"
_cell_length_a       7.036016706693228
_cell_length_b       10.310802296696732
_cell_length_c       13.620727603231598
_cell_angle_alpha    108.02325215993577
_cell_angle_beta     104.97151997613408
_cell_angle_gamma    89.97354027120174

_space_group_name_H-M_alt    "P 1"
_space_group_IT_number       1

loop_
  _space_group_symop_operation_xyz
  'x, y, z'

loop_
  _atom_site_type_symbol
  _atom_site_label
  _atom_site_symmetry_multiplicity
  _atom_site_fract_x
  _atom_site_fract_y
  _atom_site_fract_z
  _atom_site_occupancy
  Li  Li1       1.0  0.9584115677214415  0.8947479769023444  0.04102912402201759  1.0000
  Li  Li2       1.0  0.9174339848769151  0.6053005711246795  0.9589891520210904  1.0000
  Li  Li3       1.0  0.04158810120343049  0.10525264691543154  0.9589703991056172  1.0000
  Li  Li4       1.0  0.0825656840479567  0.3947000526930892  0.04101037110655172  1.0000
  H   H1        1.0  0.6084602715567939  0.7206566268981259  0.9368319105779224  1.0000
  H   H2        1.0  0.671654684334989  0.7791607744807718  0.06309112199476631  1.0000
  H   H3        1.0  0.39153939736807797  0.2793439969196497  0.06316761254971943  1.0000
  H   H4        1.0  0.3283449845898758  0.220839849337004  0.9369084011328754  1.0000
  H   H5        1.0  0.2133065226067643  0.5091426237649015  0.24757517849327834  1.0000
  H   H6        1.0  0.9654889443183237  0.9908013844940339  0.7525645386297769  1.0000
  H   H7        1.0  0.7866928894806406  0.4908559525740016  0.752423829643867  1.0000
  H   H8        1.0  0.0345121880227381  0.009199238043230197  0.2474359174491952  1.0000
  H   H9        1.0  0.4375237325130144  0.5027312269902211  0.41763236850999164  1.0000
  H   H10       1.0  0.019418079237567533  0.9973409704923453  0.5825038020863148  1.0000
  H   H11       1.0  0.5624758002884747  0.49726837227944287  0.5823676300699463  1.0000
  H   H12       1.0  0.9805801108618157  0.0026596529885764995  0.4174962539850854  1.0000
  H   H13       1.0  0.662893958934383  0.7113425016495112  0.5405612675300234  1.0000
  H   H14       1.0  0.12220690152265952  0.7888417601550656  0.4595143439714918  1.0000
  H   H15       1.0  0.33710410274626673  0.28865709809198137  0.4594385310461322  1.0000
  H   H16       1.0  0.8777896813325017  0.2111578392495729  0.5404859875484292  1.0000
  H   H17       1.0  0.6634625539797484  0.9193081721899216  0.4845288366757787  1.0000
  H   H18       1.0  0.17896673851800673  0.5807548978209593  0.5153632344310639  1.0000
  H   H19       1.0  0.33653551540555077  0.08069142836024669  0.515470228952829  1.0000
  H   H20       1.0  0.8210298597464601  0.4192447032010447  0.4846356311937542  1.0000
  H   H21       1.0  0.5573318909315077  0.07202230492758588  0.13258698655288734  1.0000
  H   H22       1.0  0.4245367843003578  0.42796428523281077  0.8674970978668316  1.0000
  H   H23       1.0  0.44266886385800325  0.9279752472000592  0.8674119640928027  1.0000
  H   H24       1.0  0.575463005338591  0.5720373615157113  0.1325034157035958  1.0000
  H   H25       1.0  0.5198039387022533  0.16023649245323662  0.26087111076561353  1.0000
  H   H26       1.0  0.2587770726622125  0.3396905160090568  0.7392373443110005  1.0000
  H   H27       1.0  0.48019840792217394  0.839762082133326  0.7391290303266589  1.0000
  H   H28       1.0  0.7412227015674446  0.6603111291221068  0.26076463515452997  1.0000
  H   H29       1.0  0.31702984314526356  0.06690604343449988  0.15402107825006794  1.0000
  H   H30       1.0  0.1627978605399676  0.43319788071097076  0.8460646270983079  1.0000
  H   H31       1.0  0.6829707678162151  0.933090483336343  0.8459790807954735  1.0000
  H   H32       1.0  0.8372017929756054  0.5668027414894395  0.15393636192442986  1.0000
  C   C1        1.0  0.17805324641045664  0.7122751573526923  0.1596780333446901  1.0000
  C   C2        1.0  0.01826497182309339  0.7875508321033279  0.8402874361263603  1.0000
  C   C3        1.0  0.8219478936352473  0.2877254659932476  0.8403216897867339  1.0000
  C   C4        1.0  0.9817345763876945  0.2124487687837017  0.15971109655848892  1.0000
  C   C5        1.0  0.3123181350820659  0.715386484515001  0.2665915199702199  1.0000
  C   C6        1.0  0.045608721331660704  0.7845204837962  0.7333904120478467  1.0000
  C   C7        1.0  0.6876813977194232  0.2846131147546557  0.7334084786097252  1.0000
  C   C8        1.0  0.9543922825906607  0.21547911500162084  0.26660978653588074  1.0000
  C   C9        1.0  0.31304581188299363  0.5989571149898083  0.29933861886230073  1.0000
  C   C10       1.0  0.013482045547917185  0.9010073290183768  0.7007371448154204  1.0000
  C   C11       1.0  0.6869522497976561  0.40104248475167736  0.7006611797138549  1.0000
  C   C12       1.0  0.9865204371998929  0.09899227011629817  0.29926252082454863  1.0000
  C   C13       1.0  0.43817828561612515  0.596224491093288  0.396288997515157  1.0000
  C   C14       1.0  0.0416098143839818  0.9038366914786805  0.6038034173006609  1.0000
  C   C15       1.0  0.5618211264712798  0.40377408524561514  0.6037100106219955  1.0000
  C   C16       1.0  0.958391197242989  0.09616290812783025  0.39619604833551864  1.0000
  C   C17       1.0  0.563943644939549  0.7114221222691197  0.4643198693024219  1.0000
  C   C18       1.0  0.09947455055456797  0.7886753799282499  0.5357374938026498  1.0000
  C   C19       1.0  0.4360544090364584  0.2885774766636898  0.5356806622212816  1.0000
  C   C20       1.0  0.9005264610724028  0.21132421967826073  0.4642619718335298  1.0000
  C   C21       1.0  0.5654453599507931  0.828549142172477  0.43375979882220167  1.0000
  C   C22       1.0  0.1316496687411188  0.6714689950501976  0.566200093114283  1.0000
  C   C23       1.0  0.4345540444319625  0.17144943335774332  0.5662399422624989  1.0000
  C   C24       1.0  0.8683500001837459  0.32853162876757114  0.4337994300133588  1.0000
  C   C25       1.0  0.4426140534414458  0.8294001977142852  0.3358861682239223  1.0000
  C   C26       1.0  0.10669325569504905  0.6705151639511581  0.6640423972952051  1.0000
  C   C27       1.0  0.5573841366579374  0.17060042576663642  0.6641138878474779  1.0000
  C   C28       1.0  0.8933064132298227  0.3294854598666176  0.3359571258324295  1.0000
  C   C29       1.0  0.5112829773201639  0.9424988379782986  0.22063722212835304  1.0000
  C   C30       1.0  0.29044905549365296  0.5574113024262742  0.7793604585663874  1.0000
  C   C31       1.0  0.48871666849075984  0.05750178341342858  0.7793644998419327  1.0000
  C   C32       1.0  0.7095487416448876  0.44258624902766985  0.22063955796682688  1.0000
  C   C33       1.0  0.4763126039743852  0.06841587896716556  0.19025223057975185  1.0000
  C   C34       1.0  0.28585499961113203  0.4315662015044166  0.8098133040308256  1.0000
  C   C35       1.0  0.5236896142313155  0.9315816718799607  0.8097476530172758  1.0000
  C   C36       1.0  0.7141447823231744  0.5684354444354225  0.19018794248715662  1.0000
  O   O1        1.0  0.12994843367943787  0.8238838006056493  0.1439967451829816  1.0000
  O   O2        1.0  0.985704701988361  0.6759094945342594  0.8558522130686373  1.0000
  O   O3        1.0  0.8700527063662663  0.17611682274029045  0.8560029779484426  1.0000
  O   O4        1.0  0.014293624234397789  0.3240921534947815  0.14414736755045962  1.0000
  O   O5        1.0  0.11676960641260337  0.5946254070251695  0.0896134532462227  1.0000
  O   O6        1.0  0.027132450774097035  0.9051787092273781  0.9104316322164936  1.0000
  O   O7        1.0  0.8832300625122613  0.4053752167925991  0.910386069881419  1.0000
  O   O8        1.0  0.9728670820273919  0.09482089004227837  0.08956836636344434  1.0000
  O   O9        1.0  0.4535772977140482  0.9503875647575692  0.3106297121813242  1.0000
  O   O10       1.0  0.142979318744203  0.5494931746727331  0.6892461472710425  1.0000
  O   O11       1.0  0.5464234493708203  0.04960998656138568  0.689369971411914  1.0000
  O   O12       1.0  0.8570203501806617  0.4505074491450428  0.3107533758565922  1.0000
  O   O13       1.0  0.5837511953485331  0.8413125973007566  0.17448644797345034  1.0000
  O   O14       1.0  0.408977118594997  0.6585936047746654  0.8255561613363299  1.0000
  O   O15       1.0  0.4162523655592736  0.15868392933510478  0.825513378132115  1.0000
  O   O16       1.0  0.5910256132856304  0.341408041030192  0.17444475224166928  1.0000
  O   O17       1.0  0.7258012398958725  0.7499221785933085  0.9999407278256387  1.0000
  O   O18       1.0  0.27419842902899927  0.2500784452244673  5.879530199591483e-05  1.0000
