data_image0
_chemical_formula_structural       Zn8H96C60N12O32
_chemical_formula_sum              "Zn8 H96 C60 N12 O32"
_cell_length_a       15.503546885183535
_cell_length_b       15.537780705094717
_cell_length_c       17.424157310278538
_cell_angle_alpha    91.83695597919005
_cell_angle_beta     117.26251456882666
_cell_angle_gamma    116.36380715731764

_space_group_name_H-M_alt    "P 1"
_space_group_IT_number       1

loop_
  _space_group_symop_operation_xyz
  'x, y, z'

loop_
  _atom_site_type_symbol
  _atom_site_label
  _atom_site_symmetry_multiplicity
  _atom_site_fract_x
  _atom_site_fract_y
  _atom_site_fract_z
  _atom_site_occupancy
  Zn  Zn1       1.0  0.8400846404413467  0.8272044958436024  0.9998590302929738  1.0000
  Zn  Zn2       1.0  0.8693548322946966  0.7887075635776739  0.837836253623415  1.0000
  Zn  Zn3       1.0  0.08455089253340702  0.871479776918818  0.04098255314742955  1.0000
  Zn  Zn4       1.0  0.9927644437285036  0.013648600833079193  0.9537011369186033  1.0000
  Zn  Zn5       1.0  0.05646177803929918  0.4195783435386956  0.42158290178991803  1.0000
  Zn  Zn6       1.0  0.04552415837901688  0.41402697480977213  0.5949653190820996  1.0000
  Zn  Zn7       1.0  0.8467709987672619  0.22885307451873152  0.4107416809867032  1.0000
  Zn  Zn8       1.0  0.8699082542776179  0.4506528301793366  0.43031375920279646  1.0000
  H   H1        1.0  0.5677286989581911  0.5098057277939458  0.7447840500069629  1.0000
  H   H2        1.0  0.5408899684138929  0.517713861947108  0.8334064472429359  1.0000
  H   H3        1.0  0.4202420721846919  0.581456959484754  0.7581070981775679  1.0000
  H   H4        1.0  0.48697533256340336  0.633598788417643  0.697751632573535  1.0000
  H   H5        1.0  0.35399600068723885  0.4054092681993992  0.6600424705567887  1.0000
  H   H6        1.0  0.3792216233221877  0.5077231830941071  0.5265448730070544  1.0000
  H   H7        1.0  0.3367352167545688  0.29705847477239183  0.4161765573328252  1.0000
  H   H8        1.0  0.319804232443296  0.42905193895891364  0.3381996462588432  1.0000
  H   H9        1.0  0.24324296308116528  0.3907764515079747  0.38384919043945587  1.0000
  H   H10       1.0  0.5554282470847622  0.5004699037007753  0.49658309593255007  1.0000
  H   H11       1.0  0.46155153269724974  0.4724640592699599  0.33206020721062396  1.0000
  H   H12       1.0  0.5635428427535699  0.436345409901314  0.3637020252228211  1.0000
  H   H13       1.0  0.41818690116131296  0.3426848054049572  0.3124304509338102  1.0000
  H   H14       1.0  0.5689182277074493  0.3616580939109468  0.5647851840222626  1.0000
  H   H15       1.0  0.6410438028639188  0.395954881422618  0.5049619782540304  1.0000
  H   H16       1.0  0.5061986321722213  0.2838762871871764  0.4558549543908085  1.0000
  H   H17       1.0  0.12969225058827027  0.8340987999035644  0.2944324079789736  1.0000
  H   H18       1.0  0.0014171039768768466  0.8153341102457998  0.28325912095451855  1.0000
  H   H19       1.0  0.9071911427050734  0.6347174375367146  0.2239529028933872  1.0000
  H   H20       1.0  0.011321021950649891  0.6436145998341303  0.20233541885813366  1.0000
  H   H21       1.0  0.07091056153276272  0.7241920519905771  0.3927542760813194  1.0000
  H   H22       1.0  0.19469135221203238  0.6896886238886278  0.3194027451528924  1.0000
  H   H23       1.0  0.42245062885450546  0.7449979664335796  0.5425623281033295  1.0000
  H   H24       1.0  0.4294514039892544  0.6758699382041653  0.4154814940348927  1.0000
  H   H25       1.0  0.32272280995672964  0.592996918211014  0.4199008570726049  1.0000
  H   H26       1.0  0.3864110408977549  0.8359964945553454  0.3856238294783266  1.0000
  H   H27       1.0  0.55404428670748  0.8155977071127295  0.44104950668496185  1.0000
  H   H28       1.0  0.5987810684492129  0.9437580130910558  0.47448411273952457  1.0000
  H   H29       1.0  0.6052108995602408  0.8747158389324594  0.5544530188497276  1.0000
  H   H30       1.0  0.3560139403312943  0.9123066358930314  0.49276313873457395  1.0000
  H   H31       1.0  0.4855687228560225  0.999407160907374  0.5023651988855562  1.0000
  H   H32       1.0  0.48619459114194524  0.935725260217154  0.585398120216503  1.0000
  H   H33       1.0  0.8355631526955984  0.15114299516054067  0.022536651544513064  1.0000
  H   H34       1.0  0.7207968951744517  0.042985535359676384  0.01768599396785927  1.0000
  H   H35       1.0  0.8321229781772882  0.055832835938197385  0.17269254832567058  1.0000
  H   H36       1.0  0.9620562947243482  0.12712386581225127  0.17800385409401534  1.0000
  H   H37       1.0  0.8074490932233399  0.21125699286730532  0.1440271872210984  1.0000
  H   H38       1.0  0.054449979027687244  0.3297868673439197  0.22111677353351666  1.0000
  H   H39       1.0  0.020156295963403115  0.5047245531741708  0.11315778898037364  1.0000
  H   H40       1.0  0.21370529645812286  0.5494009531949968  0.24167634262791884  1.0000
  H   H41       1.0  0.12016537548375071  0.5088947391847681  0.2713980707125501  1.0000
  H   H42       1.0  0.11427448491711795  0.37397759507557987  0.09672511904470577  1.0000
  H   H43       1.0  0.2555111271367421  0.5580131723957533  0.1432553132653424  1.0000
  H   H44       1.0  0.20303791749960692  0.5003446820537076  0.029951225178457636  1.0000
  H   H45       1.0  0.15147666525476902  0.573347689331001  0.052959054358709  1.0000
  H   H46       1.0  0.9151331055913513  0.29804256641092036  0.9678007778364233  1.0000
  H   H47       1.0  0.010840033760537373  0.35418139810629856  0.9304987322216575  1.0000
  H   H48       1.0  0.9446898366692903  0.4157389595496709  0.9469912858996138  1.0000
  H   H49       1.0  0.11894501259599344  0.835685334504397  0.804685082643182  1.0000
  H   H50       1.0  0.19009346874952354  0.7772105866123693  0.8678897412354941  1.0000
  H   H51       1.0  0.019956432806921286  0.6079926444394342  0.7685471389052052  1.0000
  H   H52       1.0  0.9395137022976738  0.6627305506324035  0.7117168739657344  1.0000
  H   H53       1.0  0.1575424132919634  0.7134601331662648  0.7167890219288465  1.0000
  H   H54       1.0  0.966909118136726  0.7255533662965942  0.5738301776807829  1.0000
  H   H55       1.0  0.14372003294482025  0.8576110312896289  0.5056723615686137  1.0000
  H   H56       1.0  0.9359254029805368  0.8111324583597364  0.4172051087889201  1.0000
  H   H57       1.0  0.9553754813065249  0.7167406419892187  0.438970071206718  1.0000
  H   H58       1.0  0.08219392695016124  0.9668282419745537  0.6008225693974366  1.0000
  H   H59       1.0  0.9652367873072261  0.9509986261169341  0.4392808982811117  1.0000
  H   H60       1.0  0.08661281816731757  0.07360763587400498  0.49483991433483243  1.0000
  H   H61       1.0  0.08237065994402552  0.9840271999811487  0.425460437222  1.0000
  H   H62       1.0  0.288819981093866  0.0219302265767354  0.6718912708215116  1.0000
  H   H63       1.0  0.2608238796496208  0.11564902813002925  0.6284270216357228  1.0000
  H   H64       1.0  0.27907362346312675  0.0373105834248975  0.5684995772429032  1.0000
  H   H65       1.0  0.06343652568273227  0.04074762427784149  0.7380443576260518  1.0000
  H   H66       1.0  0.9398613157233977  0.9362637106591758  0.6448043275428075  1.0000
  H   H67       1.0  0.8423278360668572  0.028133315201110086  0.6051937044215092  1.0000
  H   H68       1.0  0.9278426418914163  0.11042915853900576  0.7169164226922221  1.0000
  H   H69       1.0  0.02383424233258318  0.10732889485879578  0.5979360433015086  1.0000
  H   H70       1.0  0.11995453346216309  0.2511918849763503  0.7723215395062722  1.0000
  H   H71       1.0  0.3799887133133096  0.38785508042241174  0.7876038838597594  1.0000
  H   H72       1.0  0.34910436524212657  0.45171756913914135  0.9032639291447849  1.0000
  H   H73       1.0  0.26706466159810555  0.4473164952622568  0.7992476976920884  1.0000
  H   H74       1.0  0.30790453840744186  0.25741687573736977  0.8979771024030185  1.0000
  H   H75       1.0  0.4757808468500852  0.4318986791287357  0.9932368802246783  1.0000
  H   H76       1.0  0.5165903292245912  0.34047555395951423  0.007621913681496953  1.0000
  H   H77       1.0  0.5436077943142619  0.41712769428244195  0.9387021248375901  1.0000
  H   H78       1.0  0.300485093197153  0.15264733766608868  0.7834221934491764  1.0000
  H   H79       1.0  0.42973424513552044  0.19357686933813056  0.8877028908117593  1.0000
  H   H80       1.0  0.4296321527434797  0.2512954161821667  0.8012158275120811  1.0000
  H   H81       1.0  0.3709667796631421  0.15481107895182328  0.07501504056508419  1.0000
  H   H82       1.0  0.356457731309689  0.24421672039053274  0.12367138557037546  1.0000
  H   H83       1.0  0.45856514456990966  0.23418589565361703  0.27266126767236176  1.0000
  H   H84       1.0  0.4152896897756476  0.10708061802374397  0.23208615432163524  1.0000
  H   H85       1.0  0.564552297635856  0.2710052111210074  0.18317069045506418  1.0000
  H   H86       1.0  0.5563943542111929  0.07826528958161559  0.2002948477257149  1.0000
  H   H87       1.0  0.6118347072589568  0.07692089164584097  0.03340822314240193  1.0000
  H   H88       1.0  0.6061139184261459  0.9457181509705559  0.11777141171800291  1.0000
  H   H89       1.0  0.6865232674734681  0.06197353571867837  0.185668660959621  1.0000
  H   H90       1.0  0.38129894910667134  0.929273946871589  0.004330229646384861  1.0000
  H   H91       1.0  0.4712030213393062  0.8299298464745987  0.010559283492824466  1.0000
  H   H92       1.0  0.3743208576839122  0.8090455660424708  0.8960112829146779  1.0000
  H   H93       1.0  0.5209429875921143  0.8907911514659901  0.9418646699367911  1.0000
  H   H94       1.0  0.37856922239502194  0.047527157334521085  0.9112541077010974  1.0000
  H   H95       1.0  0.319639458218411  0.9263630691315752  0.8404431132467491  1.0000
  H   H96       1.0  0.45907505749919125  0.022641116284880494  0.8778584227987024  1.0000
  C   C1        1.0  0.6667069776622153  0.6552816051713601  0.8366465338582855  1.0000
  C   C2        1.0  0.5573148917214679  0.5555409322187826  0.7854940767000257  1.0000
  C   C3        1.0  0.4576730568807006  0.5682213010873693  0.7220376534441185  1.0000
  C   C4        1.0  0.3673844898617275  0.4744089008354351  0.6392256683063876  1.0000
  C   C5        1.0  0.400643291252315  0.3900950360200354  0.5425278811840357  1.0000
  C   C6        1.0  0.38553189317146036  0.3793538892820506  0.44821401327678245  1.0000
  C   C7        1.0  0.5003661569386108  0.4213134614829455  0.45417892383690617  1.0000
  C   C8        1.0  0.48462486115752745  0.41839164235824444  0.36034778898554976  1.0000
  C   C9        1.0  0.5577794324110598  0.3627058419075055  0.4980455064048996  1.0000
  C   C10       1.0  0.25259310652729267  0.4668063640367278  0.5944814461471353  1.0000
  C   C11       1.0  0.000857051896900835  0.8035782025531829  0.16016489170827694  1.0000
  C   C12       1.0  0.03666246700650771  0.78875048075146  0.2527219265722706  1.0000
  C   C13       1.0  0.9981672186267825  0.6781113034157895  0.24907205854777445  1.0000
  C   C14       1.0  0.0657726622100866  0.6725181635077319  0.3440029623485613  1.0000
  C   C15       1.0  0.25786996663642714  0.7169351500252716  0.45496488393469287  1.0000
  C   C16       1.0  0.37279490501850865  0.7406158537708546  0.4708565570860798  1.0000
  C   C17       1.0  0.4353513725045557  0.8436494981573828  0.4581938906884985  1.0000
  C   C18       1.0  0.5546459026017483  0.8702690717411198  0.4832724368664214  1.0000
  C   C19       1.0  0.4407485230597244  0.927186692182694  0.512612877554673  1.0000
  C   C20       1.0  0.0066076772326296405  0.5691637088428008  0.3556364074596202  1.0000
  C   C21       1.0  0.8431093337564871  0.018281074604431093  0.011587237338282819  1.0000
  C   C22       1.0  0.8123948241718039  0.08399902829552267  0.04544854916686349  1.0000
  C   C23       1.0  0.8764815010468322  0.11523542068726297  0.14939376673782323  1.0000
  C   C24       1.0  0.8889468913509257  0.21481591412454992  0.18444553245511489  1.0000
  C   C25       1.0  0.9435806242628856  0.35838173972636156  0.12415529257525286  1.0000
  C   C26       1.0  0.048018427620220835  0.45072139426748936  0.1350122211128166  1.0000
  C   C27       1.0  0.08268920358606374  0.424577264916067  0.07129233776421975  1.0000
  C   C28       1.0  0.17875588843460105  0.5195111683412248  0.07520118717799555  1.0000
  C   C29       1.0  0.9824481785448991  0.3698442460151766  0.9737291691615367  1.0000
  C   C30       1.0  0.9202929550516  0.2349331485615238  0.2826732169966276  1.0000
  C   C31       1.0  0.062428907661995735  0.7719529456915735  0.8887434536879438  1.0000
  C   C32       1.0  0.10583509980535395  0.7679531551688114  0.8277185520927759  1.0000
  C   C33       1.0  0.025315844158868044  0.6746121724031723  0.7462087860689051  1.0000
  C   C34       1.0  0.0656098352143315  0.6833185757460922  0.6794598310852676  1.0000
  C   C35       1.0  0.13162355704964288  0.8190944674262323  0.6163053420275374  1.0000
  C   C36       1.0  0.09003725351954013  0.8547565624626401  0.5322422393970143  1.0000
  C   C37       1.0  0.11601697852100278  0.9637422158601789  0.5577469069156463  1.0000
  C   C38       1.0  0.0582638390407693  0.9936297306493668  0.4742094542843771  1.0000
  C   C39       1.0  0.24387069385337404  0.03911767917543329  0.6105371006016966  1.0000
  C   C40       1.0  0.010168521789282148  0.5782760699653763  0.6188555074676501  1.0000
  C   C41       1.0  0.9390875059001184  0.9561962752724963  0.7666408588729748  1.0000
  C   C42       1.0  0.9698702875204923  0.9981659335934263  0.7000932488789712  1.0000
  C   C43       1.0  0.928998551254608  0.0700649666762914  0.664691679903676  1.0000
  C   C44       1.0  0.008937459210521555  0.14642875918700324  0.6399239897693221  1.0000
  C   C45       1.0  0.21273338997285401  0.2644446885078082  0.7169946147726661  1.0000
  C   C46       1.0  0.3168559267618107  0.3441823965964872  0.8055233181796738  1.0000
  C   C47       1.0  0.3679592037843447  0.2959491001668295  0.8759222347414519  1.0000
  C   C48       1.0  0.4819251423338142  0.37635955547357  0.9585209596635307  1.0000
  C   C49       1.0  0.38237361528506125  0.21868298713636838  0.8345943758342783  1.0000
  C   C50       1.0  0.9574682540967455  0.20261245023004182  0.5828710901434845  1.0000
  C   C51       1.0  0.23184118784710242  0.09025794791151036  0.08878260132697585  1.0000
  C   C52       1.0  0.35306180690123756  0.1723588441450872  0.12613877933551265  1.0000
  C   C53       1.0  0.4431559288152369  0.1803059878233241  0.21874709439395443  1.0000
  C   C54       1.0  0.5527490423138487  0.21363994763497365  0.21886343076869244  1.0000
  C   C55       1.0  0.5451003645226319  0.12842040450848904  0.09214737095525993  1.0000
  C   C56       1.0  0.5568035966931074  0.04270995845082129  0.060961425729658465  1.0000
  C   C57       1.0  0.44192181555073495  0.9551637467556728  0.9815086128261966  1.0000
  C   C58       1.0  0.4535824153548728  0.8667301848737947  0.9570892298176119  1.0000
  C   C59       1.0  0.3966910237240738  0.9899356947324093  0.8982997746378771  1.0000
  C   C60       1.0  0.6593947986973915  0.26202924591952836  0.3132664595606727  1.0000
  N   N1        1.0  0.3997358342197897  0.4714994924529917  0.5737424628639828  1.0000
  N   N2        1.0  0.32489222336281626  0.42911110670191  0.39866435939978817  1.0000
  N   N3        1.0  0.1800497631917749  0.7039439722889255  0.36830372860252675  1.0000
  N   N4        1.0  0.35381519494796965  0.6604273612231706  0.4068598678798593  1.0000
  N   N5        1.0  0.9703105259050627  0.2980356350724377  0.17374664397431153  1.0000
  N   N6        1.0  0.14132779037024068  0.48753262659565166  0.22964055360648666  1.0000
  N   N7        1.0  0.0469774861401715  0.7501087253624303  0.6267217395499002  1.0000
  N   N8        1.0  0.968613923798315  0.7831748268344894  0.46797210653599536  1.0000
  N   N9        1.0  0.1172803869044826  0.2150717308969731  0.7205519353532565  1.0000
  N   N10       1.0  0.28407619226965847  0.404158419263794  0.8402260811478823  1.0000
  N   N11       1.0  0.5450588629452608  0.1308570122797619  0.17022896158929507  1.0000
  N   N12       1.0  0.6051378928246364  0.007364631897317496  0.13789796543728977  1.0000
  O   O1        1.0  0.9481515448149049  0.8762567297702116  0.9599316808397446  1.0000
  O   O2        1.0  0.7116773072328754  0.6931922920421982  0.7910127563550872  1.0000
  O   O3        1.0  0.7048659621926059  0.6948433296954587  0.9189073227303266  1.0000
  O   O4        1.0  0.4118581357002212  0.32987048204990527  0.58488205938351  1.0000
  O   O5        1.0  0.2042165496390779  0.45124880017095836  0.6393501317800129  1.0000
  O   O6        1.0  0.21358937038162637  0.47611061301539326  0.5149967385918612  1.0000
  O   O7        1.0  0.05982445225471607  0.8029148736174746  0.12778236090569803  1.0000
  O   O8        1.0  0.9152487839301949  0.8141385216766818  0.12224990490710727  1.0000
  O   O9        1.0  0.23630121463622772  0.7110086480201968  0.5153415371799922  1.0000
  O   O10       1.0  0.9311263501178569  0.5530416574493129  0.3736949902707351  1.0000
  O   O11       1.0  0.03766984242491836  0.5079436445248504  0.34635259024629045  1.0000
  O   O12       1.0  0.9150362297307167  0.0614894171083904  0.9882831986463714  1.0000
  O   O13       1.0  0.7981266672772589  0.9269486334307329  0.01231819859815167  1.0000
  O   O14       1.0  0.8457790260902552  0.3396082573331043  0.07398635247000832  1.0000
  O   O15       1.0  0.8409031845921857  0.18618630539428685  0.2973963867263761  1.0000
  O   O16       1.0  0.022659010763938166  0.29989713472821217  0.3432969384104823  1.0000
  O   O17       1.0  0.9558764243946879  0.720086890123717  0.8561266638379692  1.0000
  O   O18       1.0  0.13583082879053165  0.8304117143342394  0.9697447279530705  1.0000
  O   O19       1.0  0.2328402014905746  0.8496264583105597  0.6693230316141124  1.0000
  O   O20       1.0  0.05488549566297947  0.5272876160831215  0.6552226973974838  1.0000
  O   O21       1.0  0.9245992040287727  0.5493770674686116  0.5395856971236054  1.0000
  O   O22       1.0  0.9593473451419354  0.0187269538230126  0.8305801251176987  1.0000
  O   O23       1.0  0.8978816274624744  0.8617104270834088  0.7546636905178515  1.0000
  O   O24       1.0  0.2153686810582584  0.24499571353710783  0.6489132798975986  1.0000
  O   O25       1.0  0.8913241382119849  0.15858370710471795  0.497824151395875  1.0000
  O   O26       1.0  0.9836334738390061  0.28775764365929035  0.6234959524655537  1.0000
  O   O27       1.0  0.2134782844275023  0.010952592326844998  0.11370667702837521  1.0000
  O   O28       1.0  0.15675609080488326  0.1060963988357031  0.030534746783835883  1.0000
  O   O29       1.0  0.5369316415885591  0.1897744639557075  0.049773660864040815  1.0000
  O   O30       1.0  0.7084366741724464  0.35724138021984686  0.34470441962550763  1.0000
  O   O31       1.0  0.6920619511957113  0.20526079104899952  0.35259069238458113  1.0000
  O   O32       1.0  0.9503003535603225  0.3763613807449174  0.4622412903054069  1.0000
