data_image0
_chemical_formula_structural       Cu4Mo8H36C46N12O26
_chemical_formula_sum              "Cu4 Mo8 H36 C46 N12 O26"
_cell_length_a       9.417491692333313
_cell_length_b       12.376817761996916
_cell_length_c       13.0146
_cell_angle_alpha    80.6395568873017
_cell_angle_beta     85.7989819290955
_cell_angle_gamma    76.25222795161375

_space_group_name_H-M_alt    "P 1"
_space_group_IT_number       1

loop_
  _space_group_symop_operation_xyz
  'x, y, z'

loop_
  _atom_site_type_symbol
  _atom_site_label
  _atom_site_symmetry_multiplicity
  _atom_site_fract_x
  _atom_site_fract_y
  _atom_site_fract_z
  _atom_site_occupancy
  Cu  Cu1       1.0  0.1576211396201757  0.7797357157460993  0.2957864041661722  1.0000
  Cu  Cu2       1.0  0.8423734466027355  0.22026926971591373  0.7042106529108594  1.0000
  Cu  Cu3       1.0  0.3114450169637664  0.7280638867159227  0.8093585147469469  1.0000
  Cu  Cu4       1.0  0.6885553946978008  0.27193941614530104  0.19063849378638048  1.0000
  Mo  Mo1       1.0  0.6919362816118094  0.925906611772085  0.47967966724488054  1.0000
  Mo  Mo2       1.0  0.3080603120743106  0.0740916432867635  0.5203175560721505  1.0000
  Mo  Mo3       1.0  0.5320222569316257  0.81491973961284  0.2977356931752126  1.0000
  Mo  Mo4       1.0  0.46797721898234096  0.18507599154482085  0.7022633044771567  1.0000
  Mo  Mo5       1.0  0.5592087081471249  0.9067241214398225  0.7134687856254587  1.0000
  Mo  Mo6       1.0  0.4407886993206632  0.0932749749194244  0.2865282644264581  1.0000
  Mo  Mo7       1.0  0.6229497140339788  0.1943496458114069  0.46601927027144535  1.0000
  Mo  Mo8       1.0  0.3770453130717685  0.805650291848231  0.5339793125684267  1.0000
  H   H1        1.0  0.3472871771352004  0.3844355812152074  0.4761308572950326  1.0000
  H   H2        1.0  0.6527248174196884  0.6155752933495791  0.5238712814062438  1.0000
  H   H3        1.0  0.09827139149459185  0.38372636498127133  0.18651768618855155  1.0000
  H   H4        1.0  0.9017307696962577  0.6162853508839135  0.8134802334319529  1.0000
  H   H5        1.0  0.004024376701110592  0.5835436220671539  0.111950097199994  1.0000
  H   H6        1.0  0.9959798529359176  0.416464728596445  0.8880474649174558  1.0000
  H   H7        1.0  0.13249376454132286  0.672489265148073  0.9576373128092397  1.0000
  H   H8        1.0  0.8675083356665569  0.3275190855155259  0.0423572887151451  1.0000
  H   H9        1.0  0.3220444145382615  0.2695585360242418  0.10737692076646252  1.0000
  H   H10       1.0  0.6779525520466974  0.7304456081373802  0.8926201402582804  1.0000
  H   H11       1.0  0.6465038891610533  0.3444376364817927  0.8373575675195254  1.0000
  H   H12       1.0  0.35348850664975356  0.6555639837786416  0.16262860066132837  1.0000
  H   H13       1.0  0.5476288047995225  0.5455462896757481  0.7577082420488351  1.0000
  H   H14       1.0  0.4523631501284485  0.4544603783870613  0.242280242208345  1.0000
  H   H15       1.0  0.6852472624861221  0.16382895004044684  0.031664826400358885  1.0000
  H   H16       1.0  0.3147537800082176  0.8361650985164247  0.9683289698900024  1.0000
  H   H17       1.0  0.6829662512273202  0.014807728272359103  0.9257174353905668  1.0000
  H   H18       1.0  0.3170274672319806  0.9851787485809425  0.07428790906762833  1.0000
  H   H19       1.0  0.8357122712738557  0.8216257450704276  0.9728865891258492  1.0000
  H   H20       1.0  0.1642713628885062  0.1783624143836704  0.027131323517913607  1.0000
  H   H21       1.0  0.9975949297450415  0.7772076080557184  0.12576367168384905  1.0000
  H   H22       1.0  0.0023914576782005006  0.2227855992007548  0.8742471673048441  1.0000
  H   H23       1.0  0.09299208984226938  0.9844442933351161  0.3685195851216392  1.0000
  H   H24       1.0  0.9070068232229289  0.015549755221755402  0.6314820077253173  1.0000
  H   H25       1.0  0.9432615943601378  0.17653006212088945  0.32092547294198676  1.0000
  H   H26       1.0  0.05673681683925478  0.8234656690367715  0.6790774229886763  1.0000
  H   H27       1.0  0.8500941211805753  0.33684574170707293  0.38904170837530216  1.0000
  H   H28       1.0  0.1499208235861502  0.6631516720513773  0.610970039659108  1.0000
  H   H29       1.0  0.09879120959990222  0.2829326884215888  0.4592545797544999  1.0000
  H   H30       1.0  0.9012264274447332  0.7170664079376508  0.5407567653105545  1.0000
  H   H31       1.0  0.40027141967411944  0.5787078273901756  0.41456553615655867  1.0000
  H   H32       1.0  0.5997323690800727  0.4213055710758056  0.5854289634623909  1.0000
  H   H33       1.0  0.8934621952097361  0.6760378702189698  0.2787208913709094  1.0000
  H   H34       1.0  0.106541037696708  0.3239595435394805  0.7212799519764701  1.0000
  H   H35       1.0  0.7500087231048339  0.5289651001683353  0.29871980401065196  1.0000
  H   H36       1.0  0.24999895860982957  0.47102810708813797  0.7012876010918844  1.0000
  C   C1        1.0  0.15581763689468184  0.4211095480834999  0.11939202049273939  1.0000
  C   C2        1.0  0.8441892240372794  0.5788971199793096  0.880605662398402  1.0000
  C   C3        1.0  0.10277546524932998  0.5354321763134209  0.0771747257604716  1.0000
  C   C4        1.0  0.8972298291022655  0.4645761743501851  0.9228212431821842  1.0000
  C   C5        1.0  0.17285879126616527  0.5848341768748284  0.9921235495648233  1.0000
  C   C6        1.0  0.8271411795125729  0.41517417378877763  0.007871164837830217  1.0000
  C   C7        1.0  0.2995818712172635  0.5212453277334035  0.9465901745540392  1.0000
  C   C8        1.0  0.7004172857797997  0.47876218162980433  0.053406249849395175  1.0000
  C   C9        1.0  0.3550944618125271  0.40583658069208184  0.9895083801404494  1.0000
  C   C10       1.0  0.6449068246136846  0.5941709286711259  0.010486394649049704  1.0000
  C   C11       1.0  0.2786948029208459  0.3572178307994705  0.07585124818682229  1.0000
  C   C12       1.0  0.7213046050091236  0.642788837263339  0.9241429879390848  1.0000
  C   C13       1.0  0.546123069343743  0.3933760805249307  0.8698262650839013  1.0000
  C   C14       1.0  0.4538760876533204  0.606631428838277  0.13016401237686637  1.0000
  C   C15       1.0  0.49184665491705465  0.5060110601601977  0.8244416633934362  1.0000
  C   C16       1.0  0.5081503116678974  0.49399308400141717  0.17555078742430646  1.0000
  C   C17       1.0  0.8441063804927398  0.05544169610525532  0.13814381242440985  1.0000
  C   C18       1.0  0.15589572671616744  0.9445523524516091  0.8618568427373174  1.0000
  C   C19       1.0  0.7537996861106393  0.07920759099565801  0.05137664892383499  1.0000
  C   C20       1.0  0.24619734845831684  0.9207856162608082  0.9486213317882031  1.0000
  C   C21       1.0  0.7516992711279045  0.995898598228486  0.9931303051373418  1.0000
  C   C22       1.0  0.2482894966573781  0.004093767727589201  0.0068751592242293  1.0000
  C   C23       1.0  0.8392474484530367  0.8862140590824623  0.019790315433788088  1.0000
  C   C24       1.0  0.1607455172075589  0.1137749416720339  0.9802208254891338  1.0000
  C   C25       1.0  0.9284781985523908  0.8610793684475484  0.10402091999494434  1.0000
  C   C26       1.0  0.07151269866203339  0.13891299750852681  0.895988273327532  1.0000
  C   C27       1.0  0.9332697610852135  0.9445582415543827  0.16489019794148152  1.0000
  C   C28       1.0  0.06672764638257431  0.0554408548048642  0.8351122306852687  1.0000
  C   C29       1.0  0.0237754846522122  0.0030042837145956005  0.3017388090294872  1.0000
  C   C30       1.0  0.9762205461851324  0.9969922887434635  0.6982625462177978  1.0000
  C   C31       1.0  0.9376517593951874  0.11174740771734551  0.2750016070602186  1.0000
  C   C32       1.0  0.06234690273710445  0.8882474821399171  0.7249991005929244  1.0000
  C   C33       1.0  0.9183048088543586  0.3978770376442498  0.3781443168925732  1.0000
  C   C34       1.0  0.081704310473711  0.6021220587149969  0.621865174582041  1.0000
  C   C35       1.0  0.0577516304522234  0.3669272786712554  0.4179947225250871  1.0000
  C   C36       1.0  0.9422554204296745  0.63307518288957  0.5820112846134151  1.0000
  C   C37       1.0  0.1390100809411052  0.4493276046702448  0.4035975789419908  1.0000
  C   C38       1.0  0.8610030463123479  0.5506723329893931  0.59640849647878  1.0000
  C   C39       1.0  0.08191987332894263  0.5595379565638581  0.3522967013459277  1.0000
  C   C40       1.0  0.9180879303516534  0.4404619810957797  0.6477058144313403  1.0000
  C   C41       1.0  0.3007113387264725  0.5542688921828685  0.4008656447354184  1.0000
  C   C42       1.0  0.6992973397187682  0.4457352519787534  0.5991315638266954  1.0000
  C   C43       1.0  0.9404880129181875  0.5903034707501007  0.3145969835434953  1.0000
  C   C44       1.0  0.0595207944940199  0.4096931017079585  0.6854090730090263  1.0000
  C   C45       1.0  0.8605245313362107  0.5075952288061245  0.3273195816377452  1.0000
  C   C46       1.0  0.13948433705896693  0.4924047088535205  0.6726867195395554  1.0000
  N   N1        1.0  0.8460306377594123  0.1385958272591878  0.19665972033251924  1.0000
  N   N2        1.0  0.15396915007042375  0.8614024277996606  0.8033404071384422  1.0000
  N   N3        1.0  0.022173997975059565  0.9194075662119445  0.24924715558566385  1.0000
  N   N4        1.0  0.9778225957110607  0.0805906888469039  0.7507531412027006  1.0000
  N   N5        1.0  0.4811827237130686  0.3433944239905884  0.951104661989774  1.0000
  N   N6        1.0  0.5188139919389911  0.6566105614714318  0.048886903634162565  1.0000
  N   N7        1.0  0.3717235985450813  0.5700180355985012  0.8626313652098286  1.0000
  N   N8        1.0  0.6282739308886462  0.4299877911639101  0.13736310062032686  1.0000
  N   N9        1.0  0.1864732057599809  0.6230191192545789  0.3513170974874669  1.0000
  N   N10       1.0  0.813533533206048  0.376980818405066  0.6486808645219355  1.0000
  N   N11       1.0  0.2775074684502601  0.4497011420461305  0.4328109633523738  1.0000
  N   N12       1.0  0.7225014609278801  0.5503021608150931  0.5671909722427129  1.0000
  O   O1        1.0  0.6448613913718617  0.7243444976646103  0.22585518777982827  1.0000
  O   O2        1.0  0.3551371487944976  0.2756436617894806  0.7741481040950828  1.0000
  O   O3        1.0  0.7129401548061692  0.8376281199052968  0.3822426743310459  1.0000
  O   O4        1.0  0.2870593820907601  0.16237097645394272  0.617753494474769  1.0000
  O   O5        1.0  0.5671161389958642  0.0412110999046433  0.5751782593265273  1.0000
  O   O6        1.0  0.4328802037573567  0.9587879964545964  0.4248203839001903  1.0000
  O   O7        1.0  0.5086010533837708  0.7277652250752951  0.43666214504303  1.0000
  O   O8        1.0  0.49139848351315873  0.2722338712839516  0.5633370972341182  1.0000
  O   O9        1.0  0.5437886277185839  0.9621388959324051  0.23100807124342984  1.0000
  O   O10       1.0  0.45620658933709285  0.0378568352252557  0.7689926889011289  1.0000
  O   O11       1.0  0.6659518579050925  0.0667613929352484  0.38649717375808007  1.0000
  O   O12       1.0  0.3340426063518791  0.9332368621236002  0.6135009308050454  1.0000
  O   O13       1.0  0.4829527514947287  0.805078207578859  0.7913231767644149  1.0000
  O   O14       1.0  0.5170477891338051  0.19491752357880196  0.20867269097748678  1.0000
  O   O15       1.0  0.6080952184086783  0.8290300298568101  0.5884402777039027  1.0000
  O   O16       1.0  0.39190081242866637  0.17096654260124922  0.4115572357042224  1.0000
  O   O17       1.0  0.6202107267831636  0.30037032173227374  0.36035004651903785  1.0000
  O   O18       1.0  0.3797884981978967  0.6996262507257854  0.6396480659395178  1.0000
  O   O19       1.0  0.787630694513851  0.1785878828898291  0.5218340901833044  1.0000
  O   O20       1.0  0.212363267877322  0.8214120547698087  0.4781645490957017  1.0000
  O   O21       1.0  0.3557456048829266  0.8165880382983772  0.2614981325656203  1.0000
  O   O22       1.0  0.6442520535177678  0.1834102167604712  0.7385021077836099  1.0000
  O   O23       1.0  0.729795879215679  0.8864210189799097  0.7605493552274751  1.0000
  O   O24       1.0  0.2702002126046423  0.1135789186797354  0.23944917117326264  1.0000
  O   O25       1.0  0.8639611384894224  0.9094255370118065  0.5214050451345212  1.0000
  O   O26       1.0  0.1360335767004557  0.09057187674664392  0.4785931762545842  1.0000
