data_image0
_chemical_formula_structural       Al2H12C42N6O12F12
_chemical_formula_sum              "Al2 H12 C42 N6 O12 F12"
_cell_length_a       3.967468031278173
_cell_length_b       27.966710930806066
_cell_length_c       27.96774086343365
_cell_angle_alpha    120.01345583293566
_cell_angle_beta     90.00266622023904
_cell_angle_gamma    90.01020571154434

_space_group_name_H-M_alt    "P 1"
_space_group_IT_number       1

loop_
  _space_group_symop_operation_xyz
  'x, y, z'

loop_
  _atom_site_type_symbol
  _atom_site_label
  _atom_site_symmetry_multiplicity
  _atom_site_fract_x
  _atom_site_fract_y
  _atom_site_fract_z
  _atom_site_occupancy
  Al  Al1       1.0  0.9872657414056009  0.49999995336789743  0.5000128915023225  1.0000
  Al  Al2       1.0  0.9951983303263602  0.16667877792693983  0.8333294849172219  1.0000
  H   H1        1.0  0.3168838704045315  0.1831490876868287  0.6937979645020959  1.0000
  H   H2        1.0  0.3433009956100577  0.23749350613742595  0.6444718640409804  1.0000
  H   H3        1.0  0.5643272405991836  0.2846827272635508  0.5362212007958007  1.0000
  H   H4        1.0  0.44086764200010015  0.43362370545376194  0.6943591021281819  1.0000
  H   H5        1.0  0.3167892163633966  0.010669804129911026  0.8168299657193003  1.0000
  H   H6        1.0  0.3433386385873192  0.9069948523415622  0.7625045220756236  1.0000
  H   H7        1.0  0.5645312732457272  0.7515636317814797  0.7153214949101709  1.0000
  H   H8        1.0  0.44106473814741065  0.7607177825306052  0.5663725897026167  1.0000
  H   H9        1.0  0.3168808888549178  0.306175477833186  0.9893612612862626  1.0000
  H   H10       1.0  0.3433940465121522  0.35550383689945875  0.09303556330862506  1.0000
  H   H11       1.0  0.5642378635528191  0.46375893105066274  0.2484611959082557  1.0000
  H   H12       1.0  0.44099589988515925  0.3056268399415529  0.23927476085221847  1.0000
  C   C1        1.0  0.48823046634677064  0.4629151095626086  0.4154410970715148  1.0000
  C   C2        1.0  0.4882475900219275  0.4525258082488435  0.5371024339056518  1.0000
  C   C3        1.0  0.4884148462101194  0.5845682921679299  0.5474904969670504  1.0000
  C   C4        1.0  0.495086506672429  0.21569362369982054  0.7978712745380747  1.0000
  C   C5        1.0  0.49493837458613393  0.08219986288069953  0.7842991126817581  1.0000
  C   C6        1.0  0.4950765784401057  0.20211874270859204  0.9178031197517741  1.0000
  C   C7        1.0  0.4951379211357789  0.2500273821712752  0.7708968894471225  1.0000
  C   C8        1.0  0.39829805515310573  0.22611798076466272  0.715098268394783  1.0000
  C   C9        1.0  0.4119526519414336  0.2558742611751868  0.6878287559244428  1.0000
  C   C10       1.0  0.5113656381375691  0.31174611375337974  0.7161001598916529  1.0000
  C   C11       1.0  0.5965964687897055  0.3363105447001616  0.7723067393843907  1.0000
  C   C12       1.0  0.5947245342990046  0.3053906838929663  0.7989811087923471  1.0000
  C   C13       1.0  0.5372376070994563  0.32935867898684285  0.5604187755997643  1.0000
  C   C14       1.0  0.5037767116804305  0.35577790518978947  0.6179657107494022  1.0000
  C   C15       1.0  0.4637820699395475  0.4133343751682901  0.64965739071625  1.0000
  C   C16       1.0  0.4564333872555011  0.44314609796202115  0.6225197852620709  1.0000
  C   C17       1.0  0.4937214954726771  0.41878482131233596  0.5649049418792771  1.0000
  C   C18       1.0  0.5366451850224792  0.36133366499517905  0.5352823540391185  1.0000
  C   C19       1.0  0.4949758315450338  0.020882454267550067  0.7499551742503171  1.0000
  C   C20       1.0  0.3982093379742508  0.989004435102359  0.7738676838228216  1.0000
  C   C21       1.0  0.4119660209389552  0.9319657105210197  0.744123003421528  1.0000
  C   C22       1.0  0.5113803260646039  0.9043631205040443  0.6882581548200192  1.0000
  C   C23       1.0  0.596567922142377  0.9360019418218927  0.6636985962166974  1.0000
  C   C24       1.0  0.594582372138909  0.993611520693243  0.6946056536965202  1.0000
  C   C25       1.0  0.5374338530511552  0.7310787959998779  0.6706446868247015  1.0000
  C   C26       1.0  0.5039433050707204  0.7621872152246852  0.6442217457496255  1.0000
  C   C27       1.0  0.464015116097201  0.7363143178607245  0.5866674318009615  1.0000
  C   C28       1.0  0.4567130636261467  0.6793524216084992  0.5568564529220126  1.0000
  C   C29       1.0  0.4939276016118369  0.646116110778408  0.5812288844617441  1.0000
  C   C30       1.0  0.5368562252043816  0.6739509036451707  0.6386783114675296  1.0000
  C   C31       1.0  0.4950910329644245  0.22907550280861236  0.9791197433642935  1.0000
  C   C32       1.0  0.39830644706646  0.2848779600189459  0.011018453372805888  1.0000
  C   C33       1.0  0.4120523941161379  0.3121472142271173  0.06805676057238227  1.0000
  C   C34       1.0  0.5114228431306672  0.2838749736414101  0.09563831254416039  1.0000
  C   C35       1.0  0.5966863795344183  0.22767404217449186  0.06399033172301927  1.0000
  C   C36       1.0  0.5947013500970402  0.20099410435253867  0.006385284991246505  1.0000
  C   C37       1.0  0.5371438591198013  0.4395698813387341  0.26893805917178776  1.0000
  C   C38       1.0  0.5037643008541153  0.3820227592749674  0.23782536763359016  1.0000
  C   C39       1.0  0.46388780135746543  0.3503363910900248  0.263681843031577  1.0000
  C   C40       1.0  0.4565925479383566  0.37748139346889076  0.3206419084883194  1.0000
  C   C41       1.0  0.49370266509477284  0.43510884128854604  0.3538924049541308  1.0000
  C   C42       1.0  0.536554601840393  0.46472177602553444  0.3260625572047502  1.0000
  N   N1        1.0  0.520342535835873  0.34621188096225813  0.6930479149744286  1.0000
  N   N2        1.0  0.5114498634127571  0.32067215382087266  0.6407017739825278  1.0000
  N   N3        1.0  0.5203801724636038  0.8468320065034192  0.6537907036720226  1.0000
  N   N4        1.0  0.5115436930878446  0.8200423765432987  0.679331619417674  1.0000
  N   N5        1.0  0.5204330802892231  0.3069325547150045  0.1531603934858836  1.0000
  N   N6        1.0  0.51142226469576  0.3592760147984819  0.17998194882807889  1.0000
  O   O1        1.0  0.72313574696755  0.558618807239128  0.5557689973540505  1.0000
  O   O2        1.0  0.7230555920172391  0.4971489904618524  0.4414021055616005  1.0000
  O   O3        1.0  0.7229845012133823  0.4442461441451115  0.5028677087569378  1.0000
  O   O4        1.0  0.24988291039185384  0.5626786488160179  0.5128790877868212  1.0000
  O   O5        1.0  0.24978507811569983  0.48713481919376295  0.5498310787815726  1.0000
  O   O6        1.0  0.24974087245975343  0.4501814295100602  0.43731535157273527  1.0000
  O   O7        1.0  0.7316127328608034  0.16831889293824517  0.8914466073359861  1.0000
  O   O8        1.0  0.7316245055874828  0.22315367505812148  0.8316796127415317  1.0000
  O   O9        1.0  0.7314502958196768  0.1085572087888308  0.7768487490404539  1.0000
  O   O10       1.0  0.26038593589694153  0.2160408450397355  0.8960395581967404  1.0000
  O   O11       1.0  0.26019367125277876  0.10396404669179313  0.8199739600615673  1.0000
  O   O12       1.0  0.2602842909653518  0.18001479550938618  0.78396161005859  1.0000
  F   F1        1.0  0.6820856671454862  0.3312216421073088  0.8528094374859094  1.0000
  F   F2        1.0  0.6876149651568397  0.3897747153745856  0.8013052735370537  1.0000
  F   F3        1.0  0.5689950832295524  0.3356229576144827  0.4797156813988224  1.0000
  F   F4        1.0  0.4215390349180196  0.4986739594258225  0.6528095470429919  1.0000
  F   F5        1.0  0.6818519056252936  0.021598034652193107  0.6687819104579589  1.0000
  F   F6        1.0  0.6876714936767101  0.9115277259568231  0.6102457571350256  1.0000
  F   F7        1.0  0.5692282894433233  0.6441081652409438  0.664389260475545  1.0000
  F   F8        1.0  0.4218944277968859  0.6541025939830831  0.5013302720422032  1.0000
  F   F9        1.0  0.6819724290578009  0.14716543641501548  0.9783745979369769  1.0000
  F   F10       1.0  0.6878141552979358  0.1986892527054067  0.08843650203977658  1.0000
  F   F11       1.0  0.5688491864692011  0.5202961532597074  0.3559204231648607  1.0000
  F   F12       1.0  0.4219392265345476  0.347206417593  0.34588122332561266  1.0000
