data_image0
_chemical_formula_structural       Zn16H32C100S16O68
_chemical_formula_sum              "Zn16 H32 C100 S16 O68"
_cell_length_a       19.643776887256298
_cell_length_b       19.682541616497875
_cell_length_c       33.27567688532011
_cell_angle_alpha    79.20732735345251
_cell_angle_beta     79.32447657076233
_cell_angle_gamma    64.0332517957027

_space_group_name_H-M_alt    "P 1"
_space_group_IT_number       1

loop_
  _space_group_symop_operation_xyz
  'x, y, z'

loop_
  _atom_site_type_symbol
  _atom_site_label
  _atom_site_symmetry_multiplicity
  _atom_site_fract_x
  _atom_site_fract_y
  _atom_site_fract_z
  _atom_site_occupancy
  Zn  Zn1       1.0  0.05585100553550859  0.40074431510990394  0.47928871115812655  1.0000
  Zn  Zn2       1.0  0.9845619536837447  0.4834855434315208  0.5601518753805481  1.0000
  Zn  Zn3       1.0  0.05701550511086851  0.5641965318355491  0.481923024204619  1.0000
  Zn  Zn4       1.0  0.8998459846069835  0.5561350145560626  0.4788769631474425  1.0000
  Zn  Zn5       1.0  0.6932232699285024  0.35084138664054654  0.2713913905365217  1.0000
  Zn  Zn6       1.0  0.6865277089522124  0.19355406066833336  0.2667632456930349  1.0000
  Zn  Zn7       1.0  0.7699887591434232  0.26560566794645274  0.1894961949592897  1.0000
  Zn  Zn8       1.0  0.8469875055249929  0.19609388922215504  0.272638890357925  1.0000
  Zn  Zn9       1.0  0.26748061033039516  0.767226810738457  0.6893224377251671  1.0000
  Zn  Zn10      1.0  0.34997531148169253  0.6960313512761334  0.7707793515848921  1.0000
  Zn  Zn11      1.0  0.1921145985957367  0.8479252348676956  0.7719876491929014  1.0000
  Zn  Zn12      1.0  0.1927756951334132  0.6867633117917579  0.7666607782067063  1.0000
  Zn  Zn13      1.0  0.5613495972188217  0.05921599428717893  0.9829402048096226  1.0000
  Zn  Zn14      1.0  0.4013266037279024  0.05578064715110292  0.9779873155881803  1.0000
  Zn  Zn15      1.0  0.5546747306188493  0.9011562544502785  0.9778872371891367  1.0000
  Zn  Zn16      1.0  0.48476090909721137  0.9817404300703322  0.06024138880819413  1.0000
  H   H1        1.0  0.9551928889483534  0.2529928888796963  0.34842385038136575  1.0000
  H   H2        1.0  0.7407336735562994  0.4487616181816137  0.35710291363307795  1.0000
  H   H3        1.0  0.002994362711945099  0.3021925731038096  0.39667138733567253  1.0000
  H   H4        1.0  0.0931036482588894  0.603017307685569  0.6992867535957005  1.0000
  H   H5        1.0  0.21363846262642028  0.6901881787436042  0.597550353609094  1.0000
  H   H6        1.0  0.0457990844222351  0.55593284650503  0.6497138919688866  1.0000
  H   H7        1.0  0.46240648327219697  0.24187875905043668  0.3418538358936729  1.0000
  H   H8        1.0  0.4807841433849873  0.6941832937896569  0.5998581264699538  1.0000
  H   H9        1.0  0.2059616451048143  0.9801049575105057  0.6021590292774164  1.0000
  H   H10       1.0  0.9461644545186303  0.9695114930759137  0.34449590598910623  1.0000
  H   H11       1.0  0.5574172034199946  0.043140034523105567  0.15267620013680985  1.0000
  H   H12       1.0  0.6406682065683073  0.1630646755595749  0.048785460794306304  1.0000
  H   H13       1.0  0.6054373381484267  0.0936131826103905  0.2000874096167209  1.0000
  H   H14       1.0  0.5491139362490571  0.7689088349692527  0.1477607356691166  1.0000
  H   H15       1.0  0.16329618002687601  0.14478873776139525  0.041483294962453995  1.0000
  H   H16       1.0  0.4963903032369572  0.7942724191629655  0.9019912032366121  1.0000
  H   H17       1.0  0.3006074994453058  0.008739630471595218  0.8936210416530912  1.0000
  H   H18       1.0  0.4469331884384502  0.7478150018329832  0.8532463782044103  1.0000
  H   H19       1.0  0.3029235714561338  0.2809806293503103  0.9012150961781344  1.0000
  H   H20       1.0  0.786298715002296  0.009428853332750071  0.9060521442808921  1.0000
  H   H21       1.0  0.7909200545287689  0.5733617765189792  0.36277863542639477  1.0000
  H   H22       1.0  0.10432645895633637  0.7446770531863864  0.531907872168297  1.0000
  H   H23       1.0  0.7873785000034061  0.14886615993548005  0.07658714079829562  1.0000
  H   H24       1.0  0.17608433638476126  0.9623812074663154  0.8886783372415437  1.0000
  H   H25       1.0  0.3250080898223189  0.5407515188686035  0.4051530254599811  1.0000
  H   H26       1.0  0.756974835600694  0.5439330134047895  0.6843387881967261  1.0000
  H   H27       1.0  0.0427549233490723  0.2564547277909455  0.6851351245137709  1.0000
  H   H28       1.0  0.7373292868884675  0.8177951112148352  0.3909658269501434  1.0000
  H   H29       1.0  0.7042551715285512  0.48924709582185955  0.06546158864843929  1.0000
  H   H30       1.0  0.15016018459964897  0.07126924754861363  0.22174934394669069  1.0000
  H   H31       1.0  0.5092117660304254  0.4350466004189857  0.8637786625050765  1.0000
  H   H32       1.0  0.9253761810134903  0.7028426449808125  0.8536844653621358  1.0000
  C   C1        1.0  0.0609823274683308  0.3166490666501432  0.5627912587729256  1.0000
  C   C2        1.0  0.07159153178482572  0.569703583158699  0.567950841127896  1.0000
  C   C3        1.0  0.18180418039408153  0.44050935960937215  0.4385484538158978  1.0000
  C   C4        1.0  0.9338011434187905  0.6865435270538147  0.43850341623416966  1.0000
  C   C5        1.0  0.9304577383684748  0.4309262429413608  0.4313063738032881  1.0000
  C   C6        1.0  0.8177508967693116  0.5606389367042869  0.5621825072559119  1.0000
  C   C7        1.0  0.5649072743124037  0.313020274104801  0.3127034252057825  1.0000
  C   C8        1.0  0.6796921977324928  0.18285851687564064  0.1803809252694536  1.0000
  C   C9        1.0  0.6886016780967097  0.43280657547657625  0.18761258348997256  1.0000
  C   C10       1.0  0.9369164361699801  0.1883958133426235  0.19090371141092535  1.0000
  C   C11       1.0  0.8170224867713641  0.3204772750324169  0.3205331295715369  1.0000
  C   C12       1.0  0.8076553298508173  0.06674235221408524  0.30975957001690807  1.0000
  C   C13       1.0  0.4342825244834359  0.6864506007855559  0.6872320740613844  1.0000
  C   C14       1.0  0.31818460821090605  0.8210112482614991  0.8184148950221655  1.0000
  C   C15       1.0  0.1915715637130617  0.9338114868384229  0.689032145231657  1.0000
  C   C16       1.0  0.06494606907595818  0.8070226099582885  0.8100102844754177  1.0000
  C   C17       1.0  0.1828908070794952  0.679421943809423  0.6800407245970421  1.0000
  C   C18       1.0  0.3158675114069638  0.5672274877985474  0.8126629698110436  1.0000
  C   C19       1.0  0.4395976692227491  0.18395437013035845  0.9384784553646952  1.0000
  C   C20       1.0  0.4294259044120991  0.9320393232265192  0.9299531064358535  1.0000
  C   C21       1.0  0.6844045512774599  0.9378263109436561  0.9384145501430653  1.0000
  C   C22       1.0  0.5617769421646841  0.8147457958482962  0.06077453982347692  1.0000
  C   C23       1.0  0.5698817735467684  0.06921274400227172  0.06934683821144465  1.0000
  C   C24       1.0  0.3169823476320488  0.060588495746912954  0.06152590278044561  1.0000
  C   C25       1.0  0.8990530891596508  0.40244513603177284  0.4037175436304495  1.0000
  C   C26       1.0  0.8455664732325018  0.3486946592559693  0.3496770080624358  1.0000
  C   C27       1.0  0.8242722857341249  0.4444357581585339  0.39301084510298523  1.0000
  C   C28       1.0  0.9193419934029236  0.3064584533795628  0.3609877322507701  1.0000
  C   C29       1.0  0.7983793697615696  0.41733681761438407  0.36575674020361504  1.0000
  C   C30       1.0  0.945635085250089  0.33355450225099775  0.3877046859217189  1.0000
  C   C31       1.0  0.10309672657511017  0.5966369808104377  0.5962523037316956  1.0000
  C   C32       1.0  0.1552603615558539  0.6500717195409964  0.6510471804730643  1.0000
  C   C33       1.0  0.15107442340718077  0.6342150652467853  0.5809685764284326  1.0000
  C   C34       1.0  0.1086509227656407  0.6115319496711181  0.6661853089464529  1.0000
  C   C35       1.0  0.1763295123262765  0.6611297080583755  0.6086034740387449  1.0000
  C   C36       1.0  0.08273177791033959  0.5853884443197261  0.6388178227601885  1.0000
  C   C37       1.0  0.30270196736062616  0.4561582591019758  0.4024678295899734  1.0000
  C   C38       1.0  0.4453347476273777  0.2984608287651938  0.3501213622727947  1.0000
  C   C39       1.0  0.25660313919880207  0.4165331723320948  0.4141879716299783  1.0000
  C   C40       1.0  0.490524104070701  0.33810301595998044  0.33792122904490185  1.0000
  C   C41       1.0  0.37700181488450113  0.34111605838305104  0.3736484248239407  1.0000
  C   C42       1.0  0.3716371233837705  0.41264693939049146  0.3790645787957985  1.0000
  C   C43       1.0  0.7272934804811015  0.5765909712214993  0.6299673525397439  1.0000
  C   C44       1.0  0.5252597291793037  0.6677022314947012  0.6202185184773797  1.0000
  C   C45       1.0  0.7435803076528699  0.5838611852626415  0.5871325438613795  1.0000
  C   C46       1.0  0.5092454108328467  0.6606901056918417  0.6626660190417013  1.0000
  C   C47       1.0  0.6046440778375199  0.6366196260503616  0.6080986692534864  1.0000
  C   C48       1.0  0.6475150587055012  0.6068013545849739  0.6418308286459152  1.0000
  C   C49       1.0  0.07697369616435168  0.22653240199499444  0.6309135859554332  1.0000
  C   C50       1.0  0.1767654593526871  0.024752065616773712  0.6221941866405274  1.0000
  C   C51       1.0  0.08638431951813888  0.24267229932354448  0.5880621908625798  1.0000
  C   C52       1.0  0.1669177992975648  0.009030286559081438  0.6646377145212341  1.0000
  C   C53       1.0  0.1442934669049336  0.10388091447588728  0.6097550926087649  1.0000
  C   C54       1.0  0.11023234791819188  0.14687304992474998  0.6431965353843339  1.0000
  C   C55       1.0  0.8383083860320468  0.8024432899714786  0.3972054421657062  1.0000
  C   C56       1.0  0.9012765883470664  0.9495833808930462  0.34975965259141634  1.0000
  C   C57       1.0  0.9081369099052594  0.7601841550994808  0.4129302366324765  1.0000
  C   C58       1.0  0.8321111145450643  0.9916092201781768  0.33422433985757044  1.0000
  C   C59       1.0  0.9039887738194423  0.8804718327815384  0.37245255063490385  1.0000
  C   C60       1.0  0.8363152846837422  0.8713627163950411  0.37389273740267737  1.0000
  C   C61       1.0  0.6498354185220377  0.15610043070633872  0.15111626292709704  1.0000
  C   C62       1.0  0.5972574153673591  0.09956721294462059  0.09799930092238904  1.0000
  C   C63       1.0  0.6598438670947004  0.1766503160977707  0.10825187937205534  1.0000
  C   C64       1.0  0.5862944133612871  0.08027306343081629  0.1406605676236552  1.0000
  C   C65       1.0  0.633794002214053  0.1477222618174282  0.08202349497128131  1.0000
  C   C66       1.0  0.612669393624529  0.10835218020044118  0.16684108817491253  1.0000
  C   C67       1.0  0.6734760592160994  0.5219801400413787  0.11929970179294716  1.0000
  C   C68       1.0  0.577331583820623  0.724164954690082  0.12773774905291896  1.0000
  C   C69       1.0  0.6643245336567958  0.5065391425834422  0.16220218503326586  1.0000
  C   C70       1.0  0.5865742434657192  0.7397219499601423  0.08528499404130228  1.0000
  C   C71       1.0  0.6087349813950311  0.6450460497562747  0.1402334696656453  1.0000
  C   C72       1.0  0.6414400352630593  0.6016750096851315  0.10686948508210042  1.0000
  C   C73       1.0  0.0840285645175811  0.12243305054902012  0.17967278016790542  1.0000
  C   C74       1.0  0.171283544960886  0.12653162433554146  0.07385242824653912  1.0000
  C   C75       1.0  0.011819556485420398  0.16331706984658476  0.16647848054188333  1.0000
  C   C76       1.0  0.24274041980502398  0.08572379436191112  0.0869947674475355  1.0000
  C   C77       1.0  0.11329176312823111  0.14009849785330186  0.10746632473954783  1.0000
  C   C78       1.0  0.1419843570292656  0.1092525903515523  0.14571313181208012  1.0000
  C   C79       1.0  0.3465787604884696  0.8518802350792145  0.8463119404497234  1.0000
  C   C80       1.0  0.40075067182029034  0.9039135748396852  0.9008512962452215  1.0000
  C   C81       1.0  0.304567677124588  0.9261636784118539  0.8573502951600247  1.0000
  C   C82       1.0  0.4428446674480425  0.8304559475004968  0.8893839040474774  1.0000
  C   C83       1.0  0.3319006502294073  0.9513765603331807  0.8848058268737803  1.0000
  C   C84       1.0  0.4155861455634025  0.804887411609734  0.8623826481178796  1.0000
  C   C85       1.0  0.40990429739537865  0.4504810993131444  0.8545290181731746  1.0000
  C   C86       1.0  0.34743114041111056  0.30115714182758085  0.8973766365898967  1.0000
  C   C87       1.0  0.3413014413336626  0.49288219087313945  0.8375845453674702  1.0000
  C   C88       1.0  0.4155570032108713  0.25907149408698166  0.9139800670480795  1.0000
  C   C89       1.0  0.3451554683291249  0.37083037122801  0.8756574043279599  1.0000
  C   C90       1.0  0.41185704616736973  0.3804915176386885  0.8762932902459184  1.0000
  C   C91       1.0  0.945167514576305  0.7911648021836653  0.8488133652099068  1.0000
  C   C92       1.0  0.8034290940977371  0.951901666083359  0.8991880845309906  1.0000
  C   C93       1.0  0.9903616896350584  0.8312085512947366  0.8346867042425429  1.0000
  C   C94       1.0  0.7587495926448183  0.9121187812633742  0.9131718222302397  1.0000
  C   C95       1.0  0.871296284235953  0.9081764534460679  0.8756625068895191  1.0000
  C   C96       1.0  0.8768986824989895  0.8356021492183675  0.8722701385206832  1.0000
  C   C97       1.0  0.7673198355569326  0.5149176449230809  0.41197092805239066  1.0000
  C   C98       1.0  0.1823007375514294  0.6422320147959513  0.5361926557779811  1.0000
  C   C99       1.0  0.6919702328589069  0.23377875871267415  0.0887673278654404  1.0000
  C   C100      1.0  0.2339028435525279  0.9831180056587883  0.8384055032037168  1.0000
  S   S1        1.0  0.29750304346041634  0.3270385396194229  0.39694167839951433  1.0000
  S   S2        1.0  0.4504224977788808  0.42751835161715973  0.3549792373210182  1.0000
  S   S3        1.0  0.6619940606491426  0.6267143248996664  0.5617450514998411  1.0000
  S   S4        1.0  0.5903629028603987  0.6162247265060331  0.6883265795609861  1.0000
  S   S5        1.0  0.1358732252484174  0.16093433345561448  0.5632268554122888  1.0000
  S   S6        1.0  0.1184622083873066  0.09008807843333241  0.6898850692247651  1.0000
  S   S7        1.0  0.9705155019515314  0.8043825099759594  0.39925760831135193  1.0000
  S   S8        1.0  0.7697318415505093  0.9474988092963063  0.3469576903819985  1.0000
  S   S9        1.0  0.6170860158473345  0.5885274787554952  0.1869065150279638  1.0000
  S   S10       1.0  0.6335590677280437  0.6583601845555903  0.060155391645672324  1.0000
  S   S11       1.0  0.015178663216204296  0.18530324442710377  0.11301982471498921  1.0000
  S   S12       1.0  0.2401675639358416  0.06363307045635484  0.1403082416609962  1.0000
  S   S13       1.0  0.28008815916046353  0.4472614043040154  0.8482235418582464  1.0000
  S   S14       1.0  0.47743132245082615  0.303755994475253  0.9034447025092547  1.0000
  S   S15       1.0  0.9494878512995018  0.9222889584351679  0.8499704578888584  1.0000
  S   S16       1.0  0.7986124324863227  0.8213171324403136  0.8978261025775609  1.0000
  O   O1        1.0  0.9998432526438419  0.5006875029255655  0.49967713093737137  1.0000
  O   O2        1.0  0.07979217713003808  0.3153555385388814  0.5237409669953266  1.0000
  O   O3        1.0  0.04175320908193209  0.5237733259676532  0.584370080177365  1.0000
  O   O4        1.0  0.15378442742190399  0.5058520433147039  0.4510168664132836  1.0000
  O   O5        1.0  0.022600691958878396  0.37554984119243084  0.581448020308173  1.0000
  O   O6        1.0  0.1511898288969959  0.3928905292752136  0.4450818005469729  1.0000
  O   O7        1.0  0.076400169250725  0.5961820733928179  0.5300162171027835  1.0000
  O   O8        1.0  0.0021707278007880994  0.6594548996606308  0.4478340398443946  1.0000
  O   O9        1.0  0.8925009308516109  0.500419390409491  0.4375297496476874  1.0000
  O   O10       1.0  0.8867231253799872  0.6560743540622417  0.44925674503002005  1.0000
  O   O11       1.0  0.9924023479541759  0.3840561836773023  0.44549887872170046  1.0000
  O   O12       1.0  0.8768619707605367  0.533981589556028  0.5810624730909383  1.0000
  O   O13       1.0  0.8161265981981246  0.5698875583317361  0.5230922458602265  1.0000
  O   O14       1.0  0.7488118372869864  0.2515290460042296  0.2500129115361744  1.0000
  O   O15       1.0  0.5960151789529887  0.3599712141072264  0.3042470482655731  1.0000
  O   O16       1.0  0.6548225789206867  0.17509574931992966  0.21833915752579708  1.0000
  O   O17       1.0  0.7234162214954907  0.37345658158015765  0.16907921829115938  1.0000
  O   O18       1.0  0.5917815798534534  0.24660965176731522  0.3013787497973581  1.0000
  O   O19       1.0  0.6723453804944767  0.4350966894650342  0.2267245448723969  1.0000
  O   O20       1.0  0.7283646962484482  0.20987219252427294  0.1647026622746139  1.0000
  O   O21       1.0  0.8794998657373937  0.2238494802219011  0.17023782816630736  1.0000
  O   O22       1.0  0.860309330416328  0.25435876209434866  0.3100519918660183  1.0000
  O   O23       1.0  0.9348284232753558  0.17320457187807392  0.22999651208391475  1.0000
  O   O24       1.0  0.752165265525889  0.36477857836451494  0.30856108419671113  1.0000
  O   O25       1.0  0.741946962859913  0.09365787132293245  0.2970810413742272  1.0000
  O   O26       1.0  0.8539113481888734  0.09825640096030959  0.3034992567504418  1.0000
  O   O27       1.0  0.25043080236463305  0.7498720659029846  0.7497394824593046  1.0000
  O   O28       1.0  0.3759168847995796  0.7218307847735805  0.6676657072706647  1.0000
  O   O29       1.0  0.36641302707613477  0.7609871953595689  0.803061136707271  1.0000
  O   O30       1.0  0.1753309931357165  0.9331641138754069  0.7281504438554762  1.0000
  O   O31       1.0  0.43464493682037636  0.6709779678619092  0.7263835406744691  1.0000
  O   O32       1.0  0.2265527892596637  0.8761355726163916  0.669035631386592  1.0000
  O   O33       1.0  0.24790547332172963  0.8569411979528285  0.8131067575182627  1.0000
  O   O34       1.0  0.09298746737695039  0.8567213769415364  0.8013197461803473  1.0000
  O   O35       1.0  0.168230919568586  0.6610877930738397  0.7184314884270722  1.0000
  O   O36       1.0  0.09538911819576872  0.7399538511227423  0.7994781741858787  1.0000
  O   O37       1.0  0.2186416954399562  0.7204235705500113  0.6638432162263541  1.0000
  O   O38       1.0  0.3595242848672413  0.6017582072379569  0.806308999253261  1.0000
  O   O39       1.0  0.25092749104271656  0.590966488599108  0.7994241350269535  1.0000
  O   O40       1.0  0.5002566028853721  0.9997237668501319  0.9997883803731753  1.0000
  O   O41       1.0  0.5063734509503987  0.15582059737985804  0.9499031754096876  1.0000
  O   O42       1.0  0.3860958030674695  0.9976753061608583  0.9410706250888267  1.0000
  O   O43       1.0  0.6527994481208025  0.8912877296905826  0.946364380751227  1.0000
  O   O44       1.0  0.3921616034860164  0.15360559586159195  0.9461688286877248  1.0000
  O   O45       1.0  0.658140935690767  0.0037823684761875745  0.9501473204996033  1.0000
  O   O46       1.0  0.4948904594475891  0.8878577319453457  0.9412141538486766  1.0000
  O   O47       1.0  0.5758394705961365  0.8150680295246033  0.021587111540235182  1.0000
  O   O48       1.0  0.5328520746928618  0.02953321471871832  0.08580021242085681  1.0000
  O   O49       1.0  0.5286267733050494  0.8727641386025484  0.08057576323191283  1.0000
  O   O50       1.0  0.5860258795982533  0.08551169039502332  0.03085667125171201  1.0000
  O   O51       1.0  0.31626334423869906  0.07730824629497593  0.022567342620462207  1.0000
  O   O52       1.0  0.37569751342793717  0.024041212677751465  0.0809641752647465  1.0000
  O   O53       1.0  0.753633004232448  0.582375488586557  0.38731688339525044  1.0000
  O   O54       1.0  0.7300758846903505  0.5130250854087781  0.4452123332795211  1.0000
  O   O55       1.0  0.1493666881161744  0.7129520872978363  0.5149633252958097  1.0000
  O   O56       1.0  0.2375354346568628  0.5923070727320056  0.5203470651165674  1.0000
  O   O57       1.0  0.7650783721636785  0.204155859552323  0.0699025421650887  1.0000
  O   O58       1.0  0.6543312968035692  0.30203233080104763  0.08620801007284484  1.0000
  O   O59       1.0  0.16675154912054066  0.9982320294534693  0.863537416392198  1.0000
  O   O60       1.0  0.23541642114292924  0.018889267875096104  0.8046338501907115  1.0000
  O   O61       1.0  0.2820394231526818  0.5267716432729302  0.4122443172428802  1.0000
  O   O62       1.0  0.7816577028875784  0.544591974555658  0.6561252075827184  1.0000
  O   O63       1.0  0.040583636798856994  0.2808353601551802  0.6567795413448466  1.0000
  O   O64       1.0  0.7813102274609208  0.7789956278180626  0.40380903170026994  1.0000
  O   O65       1.0  0.708994608066142  0.466865500787229  0.09407031165305571  1.0000
  O   O66       1.0  0.09563195482798649  0.09888246973709873  0.219819309382757  1.0000
  O   O67       1.0  0.4664158571145834  0.4742488794742672  0.8501685060869164  1.0000
  O   O68       1.0  0.9652520781236049  0.7193318201013242  0.8407532051754744  1.0000
