data_image0
_chemical_formula_structural       La2H26C42N12O40
_chemical_formula_sum              "La2 H26 C42 N12 O40"
_cell_length_a       9.49382865551312
_cell_length_b       12.087461447706781
_cell_length_c       14.117
_cell_angle_alpha    114.50599801478917
_cell_angle_beta     102.34282144291802
_cell_angle_gamma    97.41230653584482

_space_group_name_H-M_alt    "P 1"
_space_group_IT_number       1

loop_
  _space_group_symop_operation_xyz
  'x, y, z'

loop_
  _atom_site_type_symbol
  _atom_site_label
  _atom_site_symmetry_multiplicity
  _atom_site_fract_x
  _atom_site_fract_y
  _atom_site_fract_z
  _atom_site_occupancy
  La  La1       1.0  0.7307464464053837  0.035586094547206  0.508346011793499  1.0000
  La  La2       1.0  0.2692532993439656  0.9644124203231996  0.49165455758870286  1.0000
  H   H1        1.0  0.2294245739855896  0.2193944433405122  0.4267105123856254  1.0000
  H   H2        1.0  0.7705730263904158  0.7806078225675819  0.5732896640585708  1.0000
  H   H3        1.0  0.2791381051560222  0.5286684384855107  0.3472430857975938  1.0000
  H   H4        1.0  0.7208630022696383  0.4713347651820001  0.6527565111261353  1.0000
  H   H5        1.0  0.6379751335663356  0.3462301562077883  0.3738966173617301  1.0000
  H   H6        1.0  0.3620216498038857  0.6537692964220341  0.6261024424796278  1.0000
  H   H7        1.0  0.15446294937876098  0.6779878712553895  0.11183912629276452  1.0000
  H   H8        1.0  0.8455394975173717  0.3220125191338568  0.8881646225955181  1.0000
  H   H9        1.0  0.3525490072329021  0.5291701397762978  0.8511841444481477  1.0000
  H   H10       1.0  0.6474528949927033  0.4708283750941078  0.14881744330664054  1.0000
  H   H11       1.0  0.6306347386260568  0.7732445355857962  0.18112424596048277  1.0000
  H   H12       1.0  0.36936581302615673  0.2267530415251784  0.8188768145899702  1.0000
  H   H13       1.0  0.24874297378013208  0.8844271681805509  0.7299141711157304  1.0000
  H   H14       1.0  0.7512546154929537  0.1155713466898547  0.270085379893878  1.0000
  H   H15       1.0  0.2713588371817153  0.0426183524530117  0.0710883750625015  1.0000
  H   H16       1.0  0.728641986805762  0.9573801624173938  0.9289095158598926  1.0000
  H   H17       1.0  0.9674199896939369  0.128659654943128  0.8509239916398244  1.0000
  H   H18       1.0  0.0325805730611961  0.8713416732055421  0.14907627761360942  1.0000
  H   H19       1.0  0.7149753946101143  0.7467640850265127  0.37677171632322637  1.0000
  H   H20       1.0  0.28502407880396413  0.253233492084469  0.6232270641264321  1.0000
  H   H21       1.0  0.9640256908821738  0.323544818029454  0.6722397901237827  1.0000
  H   H22       1.0  0.03597432720243179  0.6764546346003684  0.32775973472776343  1.0000
  H   H23       1.0  0.8915649448892822  0.7934898237480112  0.4188814137186582  1.0000
  H   H24       1.0  0.1084348008600671  0.20650869112239428  0.5811205723951433  1.0000
  H   H25       1.0  0.9225656032831393  0.2986107327570977  0.5503504105652723  1.0000
  H   H26       1.0  0.07743495947199358  0.7013905953915724  0.4496505670539648  1.0000
  C   C1        1.0  0.5109698700989894  0.18180623242727018  0.4325178508158984  1.0000
  C   C2        1.0  0.489028808515151  0.8181960334808167  0.5674846057290921  1.0000
  C   C3        1.0  0.4402464987564159  0.2715610622286349  0.401772717021565  1.0000
  C   C4        1.0  0.559751907522454  0.7284402659200353  0.5982286589566783  1.0000
  C   C5        1.0  0.2957846679937717  0.2804772788132937  0.4050008735433864  1.0000
  C   C6        1.0  0.7042123877117135  0.7195231115759526  0.5949971417673225  1.0000
  C   C7        1.0  0.24091430509418635  0.37312697195046235  0.38549299147062754  1.0000
  C   C8        1.0  0.759084373519947  0.6268752939576316  0.61450733997696  1.0000
  C   C9        1.0  0.3234252397780253  0.45658287171404766  0.36161924838028636  1.0000
  C   C10       1.0  0.6765731665008515  0.5434184564346225  0.6383792941347579  1.0000
  C   C11       1.0  0.4659540593712777  0.4435686464551125  0.35750498188639307  1.0000
  C   C12       1.0  0.5340454251457274  0.5564326816935576  0.6424937156320425  1.0000
  C   C13       1.0  0.5255661180636649  0.3527888456054669  0.3765558249033845  1.0000
  C   C14       1.0  0.47443120997707666  0.6472124825431962  0.6234446877056641  1.0000
  C   C15       1.0  0.41725927545812164  0.8220727309314952  0.27799584976629893  1.0000
  C   C16       1.0  0.5827418208646193  0.1779267216983342  0.7220052468202454  1.0000
  C   C17       1.0  0.3947856315720201  0.7363108807491372  0.15899494543268833  1.0000
  C   C18       1.0  0.605214931183113  0.263690447399533  0.841004615454949  1.0000
  C   C19       1.0  0.2534393519753948  0.6714554391215231  0.08480515228987431  1.0000
  C   C20       1.0  0.7465598602063466  0.3285449512677232  0.9151952981250207  1.0000
  C   C21       1.0  0.2420209270685234  0.5972739800418196  0.9755213690028556  1.0000
  C   C22       1.0  0.757978546345562  0.4027235970691621  0.024479536544198783  1.0000
  C   C23       1.0  0.3654321564274028  0.5859364686294768  0.9370853099860456  1.0000
  C   C24       1.0  0.6345683952248109  0.4140611084815049  0.06291575056440024  1.0000
  C   C25       1.0  0.5039889606526984  0.6494921756981569  0.01362847075633771  1.0000
  C   C26       1.0  0.4960110574319144  0.3505072769316726  0.9863710540952085  1.0000
  C   C27       1.0  0.5208134436209875  0.7236877011691902  0.12328284353794328  1.0000
  C   C28       1.0  0.47918765270175356  0.2763117514606392  0.8767161279511982  1.0000
  C   C29       1.0  0.04167162556209551  0.9989819836569254  0.6692728325908847  1.0000
  C   C30       1.0  0.9583256913757265  0.0010155934540563  0.33072634621778013  1.0000
  C   C31       1.0  0.10394939824158199  0.007910938484244  0.7800962613305841  1.0000
  C   C32       1.0  0.8960492692696318  0.9920875763861544  0.21990415304821914  1.0000
  C   C33       1.0  0.2109030207970974  0.9432593810404626  0.7971095236184454  1.0000
  C   C34       1.0  0.7891007766724271  0.0567419471082076  0.2028905022793808  1.0000
  C   C35       1.0  0.2662294957786883  0.9551623613842962  0.9013730589981677  1.0000
  C   C36       1.0  0.7337729511174444  0.044838029004957  0.09862573132951269  1.0000
  C   C37       1.0  0.22440087168146047  0.0330035050989324  0.990059606789707  1.0000
  C   C38       1.0  0.775605354599584  0.9669987608091616  0.009940392950049703  1.0000
  C   C39       1.0  0.116285212183584  0.09413979285877619  0.9693817632899596  1.0000
  C   C40       1.0  0.8837201970916766  0.9058596597710533  0.030618536578558102  1.0000
  C   C41       1.0  0.0533383312139364  0.0813403145074858  0.8656367725334208  1.0000
  C   C42       1.0  0.9466641156821893  0.9186600758817675  0.13436343452585928  1.0000
  N   N1        1.0  0.5608945752927568  0.5328264637627953  0.3383357774946986  1.0000
  N   N2        1.0  0.43910624869472054  0.4671720511076103  0.6616628217934988  1.0000
  N   N3        1.0  0.0900917259794412  0.38506464939290913  0.3921694924205  1.0000
  N   N4        1.0  0.9099080308728276  0.614937616515185  0.607830285664683  1.0000
  N   N5        1.0  0.6380021282651781  0.6395753698101885  0.9779301524223455  1.0000
  N   N6        1.0  0.36199681158129937  0.360424082819641  0.022069925791605292  1.0000
  N   N7        1.0  0.09499712642254109  0.5251133925165945  0.8960784698548423  1.0000
  N   N8        1.0  0.9050023469915373  0.4748841845943872  0.1039203105948161  1.0000
  N   N9        1.0  0.36936925674996957  0.8800590847927339  0.9192114203904964  1.0000
  N   N10       1.0  0.6306318395727644  0.11994036783708849  0.0807875510986449  1.0000
  N   N11       1.0  0.06255054922669248  0.1711410945205216  0.05943879090070679  1.0000
  N   N12       1.0  0.9374527035723047  0.8288583581093006  0.9405633240584236  1.0000
  O   O1        1.0  0.647095671650625  0.18840524548009796  0.43821596331339663  1.0000
  O   O2        1.0  0.3529019287253803  0.8115970204279961  0.5617842131307995  1.0000
  O   O3        1.0  0.4332397274816486  0.1061431134607602  0.4538643675053038  1.0000
  O   O4        1.0  0.5667584064619646  0.893857276928486  0.5461352195403962  1.0000
  O   O5        1.0  0.6850760558788521  0.5166116655964643  0.3304784324236394  1.0000
  O   O6        1.0  0.3149236787675704  0.4833830982362457  0.6695193864265789  1.0000
  O   O7        1.0  0.5140619985370803  0.6225822313235767  0.33375050936313505  1.0000
  O   O8        1.0  0.4859426048353086  0.3774181590656696  0.6662485909713356  1.0000
  O   O9        1.0  0.04786144496231507  0.4739454874129335  0.3830466637130385  1.0000
  O   O10       1.0  0.9521375059870819  0.5260577162545772  0.6169540399355  1.0000
  O   O11       1.0  0.014667304556816403  0.3051816130272584  0.4067859443487123  1.0000
  O   O12       1.0  0.9853300234839253  0.6948197151214117  0.5932131515287439  1.0000
  O   O13       1.0  0.5472418396118214  0.8925190942332506  0.3309941599688528  1.0000
  O   O14       1.0  0.4527595290461832  0.1074812961559957  0.6690066004528319  1.0000
  O   O15       1.0  0.3076225138243416  0.8179203322107398  0.3151782150392109  1.0000
  O   O16       1.0  0.692378037827872  0.18207724490024188  0.6848214287796424  1.0000
  O   O17       1.0  0.7585199329781531  0.671868991026642  0.049258435799060925  1.0000
  O   O18       1.0  0.2414803685446358  0.3281351504002927  0.9507427950538131  1.0000
  O   O19       1.0  0.6239420666433872  0.6001979139197147  0.8793403742037499  1.0000
  O   O20       1.0  0.3760579514412257  0.3998015387101148  0.12066056737939589  1.0000
  O   O21       1.0  0.0945531637729644  0.4447914847414367  0.8049738341423379  1.0000
  O   O22       1.0  0.9054490218908242  0.5552117189260741  0.19502450105318306  1.0000
  O   O23       1.0  0.9825592963030729  0.5464943073388824  0.9232763405646054  1.0000
  O   O24       1.0  0.017441255349140806  0.4535032697720993  0.07672330325424782  1.0000
  O   O25       1.0  0.9261617559913019  0.0389601529476664  0.6544594674377819  1.0000
  O   O26       1.0  0.0738358332817839  0.9610383619227321  0.34554008357183363  1.0000
  O   O27       1.0  0.1087973945637941  0.952646352854984  0.5993571729457586  1.0000
  O   O28       1.0  0.8911999223740281  0.04735122425599769  0.4006412974971028  1.0000
  O   O29       1.0  0.4053457500104897  0.8092076094206603  0.8404057276193626  1.0000
  O   O30       1.0  0.5946494104510691  0.1907899676903213  0.1595903077193128  1.0000
  O   O31       1.0  0.41405205580065996  0.8914669281617335  0.012967565541956124  1.0000
  O   O32       1.0  0.5859468840458177  0.10853252446809589  0.9870318043061916  1.0000
  O   O33       1.0  0.1310219292179724  0.1931878185324507  0.1531345315984538  1.0000
  O   O34       1.0  0.8689869982098627  0.8068163228944839  0.8468679392815801  1.0000
  O   O35       1.0  0.948854557528861  0.2060482512461732  0.035812388707192604  1.0000
  O   O36       1.0  0.05114653879387277  0.7939512013836492  0.964192249708347  1.0000
  O   O37       1.0  0.797900399906439  0.8191187887520996  0.42686849152727296  1.0000
  O   O38       1.0  0.20210069641630207  0.1808806638777298  0.5731318966934681  1.0000
  O   O39       1.0  0.940706001807605  0.25730618125435  0.5968308208193349  1.0000
  O   O40       1.0  0.05929401627700057  0.7426932713754724  0.40316941239801457  1.0000
