data_image0
_chemical_formula_structural       Ag4H84C112S4N12O36F12
_chemical_formula_sum              "Ag4 H84 C112 S4 N12 O36 F12"
_cell_length_a       14.106937575175435
_cell_length_b       15.780349698704875
_cell_length_c       17.578128950919247
_cell_angle_alpha    65.24908941808498
_cell_angle_beta     67.43584046281943
_cell_angle_gamma    74.24655770854379

_space_group_name_H-M_alt    "P 1"
_space_group_IT_number       1

loop_
  _space_group_symop_operation_xyz
  'x, y, z'

loop_
  _atom_site_type_symbol
  _atom_site_label
  _atom_site_symmetry_multiplicity
  _atom_site_fract_x
  _atom_site_fract_y
  _atom_site_fract_z
  _atom_site_occupancy
  Ag  Ag1       1.0  0.37947392061893487  0.7920298554771674  0.19368371364961945  1.0000
  Ag  Ag2       1.0  0.6205244986541347  0.2079701613862213  0.8063158349701354  1.0000
  Ag  Ag3       1.0  0.04941415978145612  0.24750016627341856  0.3251065372262474  1.0000
  Ag  Ag4       1.0  0.9505872303578046  0.7525005480830983  0.674891829385487  1.0000
  H   H1        1.0  0.5054435755795412  0.6172573654506053  0.2918787840132849  1.0000
  H   H2        1.0  0.49455648112044776  0.3827419455997473  0.7081210937494475  1.0000
  H   H3        1.0  0.48475819700652073  0.47693958259850433  0.4323860147463278  1.0000
  H   H4        1.0  0.5152416585014024  0.5230611364025038  0.5676133935146338  1.0000
  H   H5        1.0  0.17397844530816536  0.6058656713959325  0.529445724982338  1.0000
  H   H6        1.0  0.8260215107957906  0.3941343436297445  0.47055391802950886  1.0000
  H   H7        1.0  0.20372386162404146  0.7366174154894767  0.3816242414614948  1.0000
  H   H8        1.0  0.7962769629414979  0.2633818939403271  0.6183753994869505  1.0000
  H   H9        1.0  0.2925004430660394  0.29076197281001004  0.6896160532027622  1.0000
  H   H10       1.0  0.7075002798036963  0.7092380391917247  0.31038278497413774  1.0000
  H   H11       1.0  0.4284836257312606  0.26293934240931804  0.6713775033327423  1.0000
  H   H12       1.0  0.5715170971384751  0.7370606695924169  0.32862133484415773  1.0000
  H   H13       1.0  0.35714360605567924  0.023326013341957705  0.09827419548881977  1.0000
  H   H14       1.0  0.6428557866741188  0.9766725995638056  0.9017278579010791  1.0000
  H   H15       1.0  0.3366814523316038  0.1664188696624223  0.1311576174183102  1.0000
  H   H16       1.0  0.6633186076677192  0.8335804455981163  0.8688439644064232  1.0000
  H   H17       1.0  0.3650210938802872  0.9842312869663346  0.38787546408529755  1.0000
  H   H18       1.0  0.6349806046457331  0.015767323884567502  0.6121270149030806  1.0000
  H   H19       1.0  0.38150939678071444  0.8476837127110672  0.345913618490357  1.0000
  H   H20       1.0  0.6184906621188304  0.15231560114607842  0.6540873953137165  1.0000
  H   H21       1.0  0.280461495584163  0.2735491009775046  0.38300380354887403  1.0000
  H   H22       1.0  0.7195384605197932  0.7264509140481793  0.6169958394629802  1.0000
  H   H23       1.0  0.4177796696745092  0.26551152306545595  0.336440993775156  1.0000
  H   H24       1.0  0.5822203881252578  0.7344877893882898  0.6635594520082435  1.0000
  H   H25       1.0  0.4080901343147831  0.6632183849990199  0.08633741696483803  1.0000
  H   H26       1.0  0.591909256215459  0.33678022509995037  0.9136635003837339  1.0000
  H   H27       1.0  0.4207193047254663  0.6803817549234595  0.9340506724856538  1.0000
  H   H28       1.0  0.579280551882242  0.31961896548094876  0.06594930379598199  1.0000
  H   H29       1.0  0.3834134194566873  0.9817276449881761  0.8666438878873919  1.0000
  H   H30       1.0  0.6165874062086375  0.0182716658450204  0.13335632108172038  1.0000
  H   H31       1.0  0.3756094418620961  0.9533296612618116  0.016793498535427852  1.0000
  H   H32       1.0  0.6243913838032287  0.04666964957139191  0.9832067104336845  1.0000
  H   H33       1.0  0.3252237611618157  0.923488480729084  0.666408186484837  1.0000
  H   H34       1.0  0.6747771661993198  0.07651012753218112  0.3335928252558277  1.0000
  H   H35       1.0  0.46206850407857314  0.9159746237682073  0.6254197406573777  1.0000
  H   H36       1.0  0.537931450925612  0.08402538985408368  0.3745793343338022  1.0000
  H   H37       1.0  0.35626335289740046  0.3256384695958232  0.47455627739260814  1.0000
  H   H38       1.0  0.6437358353409975  0.6743615470504098  0.5254436024335262  1.0000
  H   H39       1.0  0.3719158963631699  0.039965111199251196  0.49793322392203987  1.0000
  H   H40       1.0  0.628084059740793  0.9600349038264256  0.5020664190898073  1.0000
  H   H41       1.0  0.391375314443799  0.09745501373637923  0.7099159542891585  1.0000
  H   H42       1.0  0.6086254095257146  0.9025449996687486  0.29008345190840856  1.0000
  H   H43       1.0  0.21144590487682546  0.3462703258194324  0.151313097100541  1.0000
  H   H44       1.0  0.7885568176019363  0.6537317904398493  0.8486831903395211  1.0000
  H   H45       1.0  0.22428691413688284  0.4876859034622498  0.012637017969474498  1.0000
  H   H46       1.0  0.7757118695178423  0.5123169262785083  0.9873607868117984  1.0000
  H   H47       1.0  0.8931307166420128  0.5578474284002013  0.10958798273778556  1.0000
  H   H48       1.0  0.10686924056172131  0.4421525880288756  0.8904122282947284  1.0000
  H   H49       1.0  0.8928372988795915  0.41175251458985684  0.244045422258118  1.0000
  H   H50       1.0  0.10716439524731673  0.5882460906474662  0.7559547846475924  1.0000
  H   H51       1.0  0.11330960987258007  0.7528260890739419  0.8196547313809432  1.0000
  H   H52       1.0  0.886688613707314  0.2471753427570818  0.18034718784038253  1.0000
  H   H53       1.0  0.2469713817873043  0.7289561520504151  0.8116208291741103  1.0000
  H   H54       1.0  0.7530276030594865  0.2710452697396875  0.1883774451089265  1.0000
  H   H55       1.0  0.029384395813856684  0.3659410358801339  0.4350876260995094  1.0000
  H   H56       1.0  0.9706154574945177  0.6340596803140884  0.5649106461201183  1.0000
  H   H57       1.0  0.05427216389551861  0.3455878614839206  0.576669817352375  1.0000
  H   H58       1.0  0.9457285589742171  0.654412150517821  0.423329020824525  1.0000
  H   H59       1.0  0.1470138205995823  0.04921623064270621  0.6174613467572598  1.0000
  H   H60       1.0  0.8529876701357112  0.9507837797384869  0.38253725460535276  1.0000
  H   H61       1.0  0.12188899113174051  0.08080184994095423  0.476791298672005  1.0000
  H   H62       1.0  0.87811019600688  0.9191981653018786  0.5232080131334624  1.0000
  H   H63       1.0  0.0825663756037116  0.11579363900671075  0.8599635760108201  1.0000
  H   H64       1.0  0.9174316434847826  0.8842091965647824  0.14003616964673415  1.0000
  H   H65       1.0  0.21771034295400682  0.09322349634776832  0.8126349992295943  1.0000
  H   H66       1.0  0.7822886451921107  0.9067779296525202  0.18736497911544334  1.0000
  H   H67       1.0  0.0649674793997264  0.1992603116091232  0.16166066162997336  1.0000
  H   H68       1.0  0.9350334468616314  0.8007382952487487  0.8383397820900312  1.0000
  H   H69       1.0  0.0834530135819875  0.06271005441113431  0.11884789650063252  1.0000
  H   H70       1.0  0.9165479137791479  0.9372885538501309  0.881153115240032  1.0000
  H   H71       1.0  0.12301400573684872  0.8803842583726221  0.3719372062973604  1.0000
  H   H72       1.0  0.8769851858008835  0.11961576248379659  0.6280643775907749  1.0000
  H   H73       1.0  0.09871160743222163  0.022041660929311004  0.4065249586838107  1.0000
  H   H74       1.0  0.9012883508712904  0.9779583569031588  0.5934758203693774  1.0000
  H   H75       1.0  0.05903404726620208  0.7747439702889024  0.16086732459074682  1.0000
  H   H76       1.0  0.940967247775916  0.22525745505991782  0.8391336473734441  1.0000
  H   H77       1.0  0.19561274792516767  0.7660796799166648  0.13022546227396956  1.0000
  H   H78       1.0  0.8043883773286923  0.23391751618375875  0.8697743149064578  1.0000
  H   H79       1.0  0.15624986325592263  0.9222808608698473  0.7755983331231632  1.0000
  H   H80       1.0  0.843749793259498  0.07772126888860952  0.22440174167737587  1.0000
  H   H81       1.0  0.12232581904204665  0.9950098834173601  0.9959623518365603  1.0000
  H   H82       1.0  0.8776741403612434  0.004990135818509601  0.004038995237294924  1.0000
  H   H83       1.0  0.147527555621906  0.705327750540292  0.028019920995937683  1.0000
  H   H84       1.0  0.8524707652546866  0.2946729731052144  0.9719805289142656  1.0000
  C   C1        1.0  0.4326110855106791  0.6107343814777764  0.34559004414648337  1.0000
  C   C2        1.0  0.5673889722890877  0.389264930975976  0.654410401636916  1.0000
  C   C3        1.0  0.42116537921739905  0.5337695892459281  0.42401378193646616  1.0000
  C   C4        1.0  0.578834577986335  0.46623042718314883  0.5759864290960549  1.0000
  C   C5        1.0  0.3263033258481728  0.5304060365021285  0.4911122636715318  1.0000
  C   C6        1.0  0.6736967308518161  0.4695932745482239  0.5088876140912005  1.0000
  C   C7        1.0  0.24758832605674294  0.6056927804624763  0.47743682537006277  1.0000
  C   C8        1.0  0.7524123968129928  0.39430723153926545  0.522562012806837  1.0000
  C   C9        1.0  0.26460344446211803  0.6788531359198018  0.39640724496111795  1.0000
  C   C10       1.0  0.7353972795073956  0.32114687748533305  0.6035921612364419  1.0000
  C   C11       1.0  0.30364260775645846  0.44749246891093725  0.5748395250659115  1.0000
  C   C12       1.0  0.6963581151132772  0.5525075430908047  0.4251593131109886  1.0000
  C   C13       1.0  0.36797404384858373  0.28550204636285065  0.6395937077045133  1.0000
  C   C14       1.0  0.63202744688671  0.7144979640183351  0.3604048936580996  1.0000
  C   C15       1.0  0.35704682204758603  0.0164155443547926  0.16254633399098853  1.0000
  C   C16       1.0  0.6429525706822121  0.9835830685509634  0.8374557193989104  1.0000
  C   C17       1.0  0.34622783743410684  0.09697447601282512  0.18057936607871738  1.0000
  C   C18       1.0  0.6537707874301334  0.9030241385134873  0.8194229241254688  1.0000
  C   C19       1.0  0.3488548544050617  0.0867738889124539  0.2626627068798654  1.0000
  C   C20       1.0  0.651145971260263  0.91322542192075  0.7373375020892536  1.0000
  C   C21       1.0  0.36270830560672357  0.9958953239730092  0.3232011594440252  1.0000
  C   C22       1.0  0.6372932901237078  0.0041039880464311  0.6767999487521408  1.0000
  C   C23       1.0  0.37209633317785784  0.9194042177158935  0.2997496667090545  1.0000
  C   C24       1.0  0.6279036262254324  0.08059580151996931  0.7002516803647936  1.0000
  C   C25       1.0  0.3383876303032097  0.1725145567597154  0.28260436740651323  1.0000
  C   C26       1.0  0.6616139632276657  0.8274847524529393  0.7173956047483188  1.0000
  C   C27       1.0  0.3533607762819103  0.22593437149158999  0.38535964636609776  1.0000
  C   C28       1.0  0.6466391798220528  0.7740656435340937  0.6146399966457494  1.0000
  C   C29       1.0  0.4031093669421892  0.7324617879315485  0.035322731219601194  1.0000
  C   C30       1.0  0.5968899240917978  0.2675375275461463  0.9646785193987528  1.0000
  C   C31       1.0  0.4102351089320636  0.7419233983462379  0.9511059824754892  1.0000
  C   C32       1.0  0.5897657167332612  0.2580759124869658  0.04889422649362976  1.0000
  C   C33       1.0  0.40201485483351024  0.8324159452423388  0.8881956918786004  1.0000
  C   C34       1.0  0.5979866381013395  0.16758406794563996  0.11180404552535356  1.0000
  C   C35       1.0  0.3896223762174671  0.9095007012443047  0.912217151450271  1.0000
  C   C36       1.0  0.6103792173134154  0.09049860796834251  0.087782820704561  1.0000
  C   C37       1.0  0.38388787327416196  0.8936552885246273  0.9978804480865265  1.0000
  C   C38       1.0  0.6161128517951298  0.10634472628390061  0.0021195261317074653  1.0000
  C   C39       1.0  0.40499006115165065  0.8430824717169687  0.7987553304950765  1.0000
  C   C40       1.0  0.5950112305911335  0.15691894942167292  0.20124393740710633  1.0000
  C   C41       1.0  0.3916698581511399  0.9529444031581915  0.6595595650218514  1.0000
  C   C42       1.0  0.6083308669181522  0.047055611650336  0.3404404091963826  1.0000
  C   C43       1.0  0.3725969784219458  0.21866093398826084  0.5967981827219829  1.0000
  C   C44       1.0  0.6274038450438227  0.7813383740381497  0.40320089020580224  1.0000
  C   C45       1.0  0.3634765692174255  0.2504205876283265  0.5127144211567867  1.0000
  C   C46       1.0  0.6365219528512257  0.7495787280665241  0.4872864982551802  1.0000
  C   C47       1.0  0.3642798396696208  0.18640173700917023  0.4762401524076337  1.0000
  C   C48       1.0  0.6357193496685628  0.813598281040456  0.5237602954391674  1.0000
  C   C49       1.0  0.3734531522442809  0.09015845161737703  0.5249199426646811  1.0000
  C   C50       1.0  0.6265468038596753  0.909841563408307  0.4750797003471731  1.0000
  C   C51       1.0  0.38301172087275154  0.0573950957926002  0.6095664187121415  1.0000
  C   C52       1.0  0.6169883369270152  0.9426042166611455  0.3904340270712582  1.0000
  C   C53       1.0  0.38353907672106413  0.1216447171201054  0.6446591852289032  1.0000
  C   C54       1.0  0.616460879382892  0.8783552979055784  0.35534045778295104  1.0000
  C   C55       1.0  0.761432796753958  0.766178485736269  0.06892887601866711  1.0000
  C   C56       1.0  0.23856388779549328  0.23382294512566665  0.9310718127692184  1.0000
  C   C57       1.0  0.14266502234587364  0.3946603284273563  0.13912051931681896  1.0000
  C   C58       1.0  0.8573364683894198  0.6053396819538294  0.8608780820457937  1.0000
  C   C59       1.0  0.14957112537524608  0.47351650941326545  0.06250346075071889  1.0000
  C   C60       1.0  0.850429497998242  0.5264842079671938  0.9374957106959628  1.0000
  C   C61       1.0  0.05911966032699925  0.5340972713018458  0.05105882459672977  1.0000
  C   C62       1.0  0.940880194081146  0.46590344629576924  0.9489400156435722  1.0000
  C   C63       1.0  0.9647606195174632  0.512006949109157  0.1165888886937906  1.0000
  C   C64       1.0  0.0352400049557957  0.48799376967470215  0.883410850773565  1.0000
  C   C65       1.0  0.9645049250684465  0.43174514670059955  0.191295882604969  1.0000
  C   C66       1.0  0.03549743412843746  0.5682541580847059  0.8087027166942491  1.0000
  C   C67       1.0  0.060183148690107685  0.6227528162382115  0.9730101851738695  1.0000
  C   C68       1.0  0.9398143015253384  0.37724861019638206  0.02698913075839466  1.0000
  C   C69       1.0  0.1679124326429928  0.7342774983430261  0.8566112979429475  1.0000
  C   C70       1.0  0.832085120368042  0.26572322692302924  0.1433893887815357  1.0000
  C   C71       1.0  0.05593202965443571  0.2972172989001152  0.4775530368203817  1.0000
  C   C72       1.0  0.9440679242499641  0.7027827133187756  0.5224454701501315  1.0000
  C   C73       1.0  0.06975766058128843  0.28614798971996436  0.5554157928569197  1.0000
  C   C74       1.0  0.9302430611886692  0.7138520208783773  0.44458247729931344  1.0000
  C   C75       1.0  0.10269564729735949  0.19615705812282874  0.6078980052606794  1.0000
  C   C76       1.0  0.897305740642345  0.8038436534269024  0.392099225309721  1.0000
  C   C77       1.0  0.121742478641778  0.1209453982812576  0.5795449026798778  1.0000
  C   C78       1.0  0.8782574752626218  0.8790546139376334  0.4204536042906425  1.0000
  C   C79       1.0  0.106983651513147  0.13857171652171732  0.5001412754796135  1.0000
  C   C80       1.0  0.8930154339296694  0.8614290012930539  0.49985723355430156  1.0000
  C   C81       1.0  0.11410285784887016  0.18384863290127382  0.6929708961480897  1.0000
  C   C82       1.0  0.885895926905626  0.8161541982428774  0.3070274766538431  1.0000
  C   C83       1.0  0.14317916049646584  0.07210047705632412  0.8254585294695502  1.0000
  C   C84       1.0  0.8568166544916167  0.9279016579980921  0.1745415933610702  1.0000
  C   C85       1.0  0.07709401913549391  0.1274707412491765  0.2070116810826264  1.0000
  C   C86       1.0  0.9229075776947158  0.8725285721736568  0.7929899951342065  1.0000
  C   C87       1.0  0.08805434141258671  0.051033396939906994  0.18279943292636602  1.0000
  C   C88       1.0  0.9119465870483198  0.9489652127247582  0.8172021468349655  1.0000
  C   C89       1.0  0.10516450174618092  0.9601253451512691  0.24201947611417995  1.0000
  C   C90       1.0  0.8948347892878064  0.039873970326425506  0.7579817745041665  1.0000
  C   C91       1.0  0.10939185618222073  0.9495003292963844  0.32368692153414713  1.0000
  C   C92       1.0  0.8906082038171022  0.05049898596415401  0.6763146602905863  1.0000
  C   C93       1.0  0.09623414172651222  0.0295678321445578  0.342859502202792  1.0000
  C   C94       1.0  0.9037651504072528  0.9704314847365297  0.6571423164362286  1.0000
  C   C95       1.0  0.11851399890441884  0.8739963878987635  0.2221621191166889  1.0000
  C   C96       1.0  0.8814852921295682  0.12600292757893067  0.7778391315016647  1.0000
  C   C97       1.0  0.12580616366801678  0.8134826125620976  0.11740240496271764  1.0000
  C   C98       1.0  0.8741954320624147  0.18651669945734284  0.8825987032334481  1.0000
  C   C99       1.0  0.1526473471022456  0.8060301545717508  0.8977267539237205  1.0000
  C   C100      1.0  0.8473518422359306  0.19396986347787504  0.10227369392308823  1.0000
  C   C101      1.0  0.1501717933309621  0.9017135632571469  0.8444925984859067  1.0000
  C   C102      1.0  0.8498287327458202  0.0982878623088297  0.1555080422718903  1.0000
  C   C103      1.0  0.14007347313111745  0.9694299713935524  0.8796268298570238  1.0000
  C   C104      1.0  0.8599270529456648  0.030571454172424205  0.12037381090078007  1.0000
  C   C105      1.0  0.13049915910669094  0.9418944217647721  0.9687804517367552  1.0000
  C   C106      1.0  0.8695006975010173  0.0581062986396361  0.03121952454488048  1.0000
  C   C107      1.0  0.13292033184444557  0.8471051355479203  0.02209759414654408  1.0000
  C   C108      1.0  0.8670803943246241  0.15289488066400733  0.9779029480923571  1.0000
  C   C109      1.0  0.14431864725393242  0.7794736594751298  0.986098751568214  1.0000
  C   C110      1.0  0.855679774218693  0.22052636019504493  0.013901933092867658  1.0000
  C   C111      1.0  0.6664559907928407  0.21275178249795354  0.4357467728742606  1.0000
  C   C112      1.0  0.3335451344610264  0.7872454136024701  0.5642530043061668  1.0000
  S   S1        1.0  0.6309899358977589  0.8219454695504994  0.11866652067625685  1.0000
  S   S2        1.0  0.3690077177093017  0.17805455174023171  0.8813344007991119  1.0000
  S   S3        1.0  0.8078643701799495  0.1677207323800403  0.4058845523014725  1.0000
  S   S4        1.0  0.1921379912164838  0.832278575212065  0.5941151830390724  1.0000
  N   N1        1.0  0.35502639390444557  0.6813212901730807  0.33084484394069585  1.0000
  N   N2        1.0  0.6449736627955432  0.3186780208772716  0.6691550338220438  1.0000
  N   N3        1.0  0.3690749759262175  0.9288014560002296  0.22102882357936673  1.0000
  N   N4        1.0  0.6309250840731055  0.0711978592603089  0.7789727582453664  1.0000
  N   N5        1.0  0.38882024781153046  0.8070077471932394  0.05942337989706185  1.0000
  N   N6        1.0  0.6111796087961777  0.19299297321116873  0.9405765963845738  1.0000
  N   N7        1.0  0.052017145588827404  0.3743178312854312  0.20298241729765457  1.0000
  N   N8        1.0  0.947984345146466  0.6256821790957616  0.7970161840649581  1.0000
  N   N9        1.0  0.07416472596619172  0.22470855356785083  0.4496324118178734  1.0000
  N   N10       1.0  0.9258352290379863  0.7752914600544402  0.5503666631733066  1.0000
  N   N11       1.0  0.08086212872233033  0.11725275805865462  0.2858161306922539  1.0000
  N   N12       1.0  0.9191379301772145  0.8827465557984909  0.7141848831118124  1.0000
  O   O1        1.0  0.22157179767368973  0.44307822621908605  0.6342211175950466  1.0000
  O   O2        1.0  0.7784282612258553  0.5569210876380596  0.3657798962090196  1.0000
  O   O3        1.0  0.38501872869085213  0.3780539562391071  0.5734998762553403  1.0000
  O   O4        1.0  0.6149819941788834  0.621946055762628  0.42649896192155967  1.0000
  O   O5        1.0  0.3187443771954578  0.2534060075737301  0.23489264579512079  1.0000
  O   O6        1.0  0.6812557812003421  0.746592600904691  0.765108034739164  1.0000
  O   O7        1.0  0.35477177790170333  0.14926668600588042  0.36021791375161877  1.0000
  O   O8        1.0  0.6452281804018087  0.8507333318265964  0.6397828653015621  1.0000
  O   O9        1.0  0.41557086132218063  0.7767670818851969  0.7758162498785025  1.0000
  O   O10       1.0  0.5844307311089239  0.22323222592405761  0.22418315425566246  1.0000
  O   O11       1.0  0.3950315163963579  0.9344272499527977  0.7465277004975093  1.0000
  O   O12       1.0  0.604969209772712  0.0655727662591232  0.25347284174139156  1.0000
  O   O13       1.0  0.6508938651967996  0.8668220670195411  0.16771299886611485  1.0000
  O   O14       1.0  0.3491037873104901  0.13317795286779702  0.8322873545885869  1.0000
  O   O15       1.0  0.5748012432357967  0.7403097647810811  0.17360438724575994  1.0000
  O   O16       1.0  0.425195745301295  0.2596895569616535  0.8263981418361083  1.0000
  O   O17       1.0  0.5967243955516964  0.8863382504188879  0.04315701552204111  1.0000
  O   O18       1.0  0.4032710539549528  0.11366107035476603  0.9568442831263937  1.0000
  O   O19       1.0  0.9823030845261513  0.6741503973220447  0.9580698690681543  1.0000
  O   O20       1.0  0.017694565781589195  0.32584961975850046  0.041929348345213696  1.0000
  O   O21       1.0  0.15818797249941244  0.6405812910749447  0.922577664713721  1.0000
  O   O22       1.0  0.8418095805116226  0.35941943419111066  0.07742302201076254  1.0000
  O   O23       1.0  0.10702103560707603  0.24872992848275996  0.7164351988675293  1.0000
  O   O24       1.0  0.8929786176090103  0.751272197065511  0.2835631718710087  1.0000
  O   O25       1.0  0.12961388665809892  0.09165074435586723  0.7419350519229297  1.0000
  O   O26       1.0  0.8703834651608775  0.9083513888608438  0.25806516529979007  1.0000
  O   O27       1.0  0.13034783847665923  0.79356259711858  0.27407666580297985  1.0000
  O   O28       1.0  0.8696483810951038  0.20643672484131054  0.7259255320725088  1.0000
  O   O29       1.0  0.11513523882078401  0.8941227737479807  0.14073215307429615  1.0000
  O   O30       1.0  0.8848701973372073  0.1058765315721075  0.8592683390711147  1.0000
  O   O31       1.0  0.8541168300513676  0.2554571995575046  0.3559805947332321  1.0000
  O   O32       1.0  0.1458837933221133  0.7445435178229618  0.6440185767134493  1.0000
  O   O33       1.0  0.8176749743735243  0.11229347304183084  0.35372138960164523  1.0000
  O   O34       1.0  0.18232892275402438  0.8877058313091696  0.6462778721103319  1.0000
  O   O35       1.0  0.8262667790809106  0.11348277177878428  0.49065150320338075  1.0000
  O   O36       1.0  0.17373548281927498  0.8865172411920385  0.5093485654069524  1.0000
  F   F1        1.0  0.7565480454090762  0.7267203573659202  0.015277129802583833  1.0000
  F   F2        1.0  0.2434508410412307  0.27328177120629255  0.9847220457709014  1.0000
  F   F3        1.0  0.8002406234862323  0.6981957373232817  0.1322904723346593  1.0000
  F   F4        1.0  0.19975636065175453  0.3018035788058739  0.867709784664541  1.0000
  F   F5        1.0  0.8289858822799943  0.8309992189670864  0.020283271515019442  1.0000
  F   F6        1.0  0.1710115734343347  0.16900221448447889  0.9797188845205866  1.0000
  F   F7        1.0  0.6408386367927364  0.26348255889019623  0.48893505006517296  1.0000
  F   F8        1.0  0.3591627511469754  0.736518152659528  0.5110621805052274  1.0000
  F   F9        1.0  0.6373185229369371  0.26880601138156385  0.36318367052027867  1.0000
  F   F10       1.0  0.3626814667703898  0.7311883692518467  0.6368163832509167  1.0000
  F   F11       1.0  0.6089695895987506  0.1397266165872182  0.47988957586929354  1.0000
  F   F12       1.0  0.3910325124111724  0.8602691797657657  0.520114410143286  1.0000
