data_image0
_chemical_formula_structural       Ba2H28C20N8O24
_chemical_formula_sum              "Ba2 H28 C20 N8 O24"
_cell_length_a       6.631812795981525
_cell_length_b       9.567346081007384
_cell_length_c       14.999811193790602
_cell_angle_alpha    90.8249306366018
_cell_angle_beta     90.0222289276118
_cell_angle_gamma    110.22384403466064

_space_group_name_H-M_alt    "P 1"
_space_group_IT_number       1

loop_
  _space_group_symop_operation_xyz
  'x, y, z'

loop_
  _atom_site_type_symbol
  _atom_site_label
  _atom_site_symmetry_multiplicity
  _atom_site_fract_x
  _atom_site_fract_y
  _atom_site_fract_z
  _atom_site_occupancy
  Ba  Ba1       1.0  0.035047858369608824  0.9997390927739217  0.7502792398277832  1.0000
  Ba  Ba2       1.0  0.9649477691995401  0.00026418708025489137  0.24971679668499294  1.0000
  H   H1        1.0  0.20899481001828943  0.553669790171746  0.5696520201399338  1.0000
  H   H2        1.0  0.6539652572069413  0.44564186727901484  0.9305159583293445  1.0000
  H   H3        1.0  0.7910179166607065  0.4463465903847422  0.43034844011410917  1.0000
  H   H4        1.0  0.34603677571175234  0.5543591410635287  0.0694806732926452  1.0000
  H   H5        1.0  0.18513529870771342  0.8376698095813708  0.5490378385926321  1.0000
  H   H6        1.0  0.34677747114502466  0.1620760310247533  0.9506687906143085  1.0000
  H   H7        1.0  0.8148668248979475  0.1623374131863713  0.4509663305895799  1.0000
  H   H8        1.0  0.6532098027250299  0.8379044749539801  0.049334522372696206  1.0000
  H   H9        1.0  0.006498153669987506  0.8726348343296381  0.4946042054351878  1.0000
  H   H10       1.0  0.13332244200824314  0.12731651589133014  0.004996887026827302  1.0000
  H   H11       1.0  0.9934958550723748  0.12737123555817928  0.5054005932301351  1.0000
  H   H12       1.0  0.8666687441883454  0.8726718250046376  0.9950060098457314  1.0000
  H   H13       1.0  0.7086512108032395  0.9863152475379732  0.9245732450742852  1.0000
  H   H14       1.0  0.7223697236404617  0.013990433933244591  0.5759127066472516  1.0000
  H   H15       1.0  0.2913485707120671  0.013684266859541999  0.07542934295112501  1.0000
  H   H16       1.0  0.27763153177046007  0.9860180720481677  0.4240888348737499  1.0000
  H   H17       1.0  0.5986341207536868  0.042710180438554284  0.843579781855283  1.0000
  H   H18       1.0  0.5562070444803522  0.9572113445161533  0.6568849900755327  1.0000
  H   H19       1.0  0.4013638745930308  0.957282738810825  0.15642126068274112  1.0000
  H   H20       1.0  0.4437948643814167  0.04280148780657809  0.3431186913943236  1.0000
  H   H21       1.0  0.24917993785993522  0.6721812384526229  0.8614447244640147  1.0000
  H   H22       1.0  0.5767612624454018  0.32731095778999025  0.638704074910848  1.0000
  H   H23       1.0  0.7508170154559936  0.3278156264151235  0.13856445009568572  1.0000
  H   H24       1.0  0.4232288524676448  0.6726631632309931  0.36129436397609993  1.0000
  H   H25       1.0  0.14137579666913064  0.4058983696187467  0.9240947627051882  1.0000
  H   H26       1.0  0.7356638622144658  0.5935592138183664  0.576051235243348  1.0000
  H   H27       1.0  0.8586341062755664  0.5940882037897595  0.0759007407098125  1.0000
  H   H28       1.0  0.264321417585215  0.4064173052612573  0.42394461126313854  1.0000
  C   C1        1.0  0.15560940739680254  0.4333677521217679  0.8538879985979551  1.0000
  C   C2        1.0  0.7223155365438388  0.5659905038783536  0.6462535734942991  1.0000
  C   C3        1.0  0.8444003574588449  0.5666276015983128  0.1461097871844004  1.0000
  C   C4        1.0  0.27768220915261566  0.43400493889474484  0.3537428796511294  1.0000
  C   C5        1.0  0.22129780521530046  0.5734282566468777  0.7332846285887415  1.0000
  C   C6        1.0  0.6472657508770965  0.42603174443674874  0.766887974509615  1.0000
  C   C7        1.0  0.7787167413501378  0.426585726932899  0.2667184237866493  1.0000
  C   C8        1.0  0.3527355647795147  0.5739527323203787  0.23310545951803624  1.0000
  C   C9        1.0  0.16483804506667343  0.42265240678487  0.7101498954670404  1.0000
  C   C10       1.0  0.74181698515315  0.5767367910317416  0.7900121440908165  1.0000
  C   C11       1.0  0.8351715688563103  0.5773607617342973  0.2898484602484501  1.0000
  C   C12       1.0  0.2581852821951642  0.4232465719623306  0.2099812543969861  1.0000
  C   C13       1.0  0.26987200328511557  0.7111456345226583  0.6813111866071395  1.0000
  C   C14       1.0  0.5580088107508914  0.288374687596523  0.8188407030083911  1.0000
  C   C15       1.0  0.7301471010270645  0.2888714334654948  0.3186959678371437  1.0000
  C   C16       1.0  0.4419890324746517  0.711623968295818  0.18115785441648313  1.0000
  C   C17       1.0  0.1595207700164991  0.3524360897455239  0.6216508144870829  1.0000
  C   C18       1.0  0.8060988929370437  0.6468390209335411  0.8785740301909258  1.0000
  C   C19       1.0  0.8404705378010816  0.6475826948202013  0.3783470519614482  1.0000
  C   C20       1.0  0.19390435619636998  0.3531644256664492  0.12141934376854381  1.0000
  N   N1        1.0  0.12474850672700197  0.3375943245296256  0.7858858019960167  1.0000
  N   N2        1.0  0.7872489958849582  0.6617647699995429  0.7142637860439722  1.0000
  N   N3        1.0  0.8752541864846533  0.6624080088482813  0.2141075362940512  1.0000
  N   N4        1.0  0.21275501588347367  0.3382251034173649  0.285732489531739  1.0000
  N   N5        1.0  0.21652909293879916  0.5761970241822352  0.8247806755037248  1.0000
  N   N6        1.0  0.6399449084451659  0.42324315857049294  0.6753847786401721  1.0000
  N   N7        1.0  0.7834775872250858  0.42380120483775835  0.17522454070109458  1.0000
  N   N8        1.0  0.3600560114415002  0.5767435451717516  0.324608726596729  1.0000
  O   O1        1.0  0.3090619044146266  0.8332836753067951  0.722236463217442  1.0000
  O   O2        1.0  0.4746686054957294  0.16629203301642548  0.7779389168187267  1.0000
  O   O3        1.0  0.6909474521753508  0.16673198616645374  0.27777531538198735  1.0000
  O   O4        1.0  0.5253219352806511  0.8337010583883924  0.2220594618704865  1.0000
  O   O5        1.0  0.26666881419727406  0.696970718277292  0.5954418564866233  1.0000
  O   O6        1.0  0.5691989033003821  0.3024643447804394  0.9047080834471972  1.0000
  O   O7        1.0  0.733345350630337  0.3030485359562222  0.4045660345785222  1.0000
  O   O8        1.0  0.43077641522171456  0.6975284554954087  0.09529495454836483  1.0000
  O   O9        1.0  0.17371167045658348  0.4357155942531392  0.5513735437684061  1.0000
  O   O10       1.0  0.7360463396951573  0.5636670619505039  0.9488039333910336  1.0000
  O   O11       1.0  0.826296756156559  0.5643042552214155  0.4486250255748487  1.0000
  O   O12       1.0  0.2639621680379206  0.43632880066241597  0.0511858626586061  1.0000
  O   O13       1.0  0.14657033777334755  0.2199053021628003  0.6140323513789384  1.0000
  O   O14       1.0  0.9259414070441068  0.7792030688304336  0.8863256654535335  1.0000
  O   O15       1.0  0.8534065461719605  0.7801057359977362  0.3859645986766652  1.0000
  O   O16       1.0  0.07404136688895592  0.22079259116557642  0.1136674573950742  1.0000
  O   O17       1.0  0.13526960394431597  0.9198291948778134  0.531851590896629  1.0000
  O   O18       1.0  0.2146209878753353  0.08002044827019718  0.9676378125161023  1.0000
  O   O19       1.0  0.8647244256722927  0.08017691737266118  0.46815254196842915  1.0000
  O   O20       1.0  0.7853685445881098  0.919967596628133  0.03236974482875609  1.0000
  O   O21       1.0  0.7026668581470614  0.994723527419843  0.8590652653011049  1.0000
  O   O22       1.0  0.7080564827118607  0.005434247949594399  0.6414206488508326  1.0000
  O   O23       1.0  0.2973484590840272  0.005285959827020293  0.14093831045604335  1.0000
  O   O24       1.0  0.29194623856403706  0.9945741727655456  0.35858222440025145  1.0000
