data_image0
_chemical_formula_structural       Hg2H8C12I4N6
_chemical_formula_sum              "Hg2 H8 C12 I4 N6"
_cell_length_a       7.064558775494574
_cell_length_b       8.141524935112326
_cell_length_c       9.784983886603099
_cell_angle_alpha    84.67761060319357
_cell_angle_beta     79.08186877654481
_cell_angle_gamma    65.97057698500596

_space_group_name_H-M_alt    "P 1"
_space_group_IT_number       1

loop_
  _space_group_symop_operation_xyz
  'x, y, z'

loop_
  _atom_site_type_symbol
  _atom_site_label
  _atom_site_symmetry_multiplicity
  _atom_site_fract_x
  _atom_site_fract_y
  _atom_site_fract_z
  _atom_site_occupancy
  Hg  Hg1       1.0  0.25367411236722864  0.0929661174398646  0.1469201255400279  1.0000
  Hg  Hg2       1.0  0.7463271682676619  0.9070340449834616  0.8530841967947609  1.0000
  H   H1        1.0  0.10277708838637518  0.5310251649058699  0.11844406017513621  1.0000
  H   H2        1.0  0.8972419892256054  0.46898031513109123  0.8815655037240618  1.0000
  H   H3        1.0  0.014878033186057748  0.8119256280698439  0.24548253601994935  1.0000
  H   H4        1.0  0.9850990291061095  0.18809768619082942  0.7545094917284062  1.0000
  H   H5        1.0  0.12091182038286519  0.7838779355613639  0.48244439776611625  1.0000
  H   H6        1.0  0.8790670887819875  0.21613286900338838  0.5175614655049117  1.0000
  H   H7        1.0  0.30847055246598404  0.4769544799638865  0.5793342496368297  1.0000
  H   H8        1.0  0.6915193179738351  0.5230447567038753  0.4206533926688039  1.0000
  C   C1        1.0  0.14330905578421493  0.5242797348149325  0.22169241368468556  1.0000
  C   C2        1.0  0.8566882818633489  0.4757278372765867  0.7782874652216023  1.0000
  C   C3        1.0  0.09654237586192255  0.6809750714802901  0.2926040579835316  1.0000
  C   C4        1.0  0.9034785175872457  0.3190014164282645  0.7073825948061341  1.0000
  C   C5        1.0  0.15535209581168638  0.6655009728602933  0.42291700214580896  1.0000
  C   C6        1.0  0.8446592364212719  0.3344814349259977  0.5770972361889407  1.0000
  C   C7        1.0  0.2605807537401006  0.4948398885084941  0.4776581455936366  1.0000
  C   C8        1.0  0.7394290364280636  0.5051640486048186  0.5223569597416358  1.0000
  C   C9        1.0  0.29902047161082373  0.3452549417555346  0.40010948101638627  1.0000
  C   C10       1.0  0.7009698909691551  0.6547531429571763  0.5998989814236779  1.0000
  C   C11       1.0  0.4055884816305451  0.16172375904476877  0.4537589801124754  1.0000
  C   C12       1.0  0.5944085799519173  0.8382884315490742  0.5462482398815709  1.0000
  I   I1        1.0  0.8285074977496549  0.19925917907919202  0.18220180975610129  1.0000
  I   I2        1.0  0.17148557128169278  0.8007376953880864  0.8178223230376959  1.0000
  I   I3        1.0  0.5804401331464107  0.7486217128493635  0.10935653272557738  1.0000
  I   I4        1.0  0.4195751343134191  0.2513639183517853  0.8906395440799814  1.0000
  N   N1        1.0  0.2401017459883973  0.36009602302974036  0.2745990685454842  1.0000
  N   N2        1.0  0.759899107243136  0.6398980784523117  0.7253811758798463  1.0000
  N   N3        1.0  0.37266020894391266  0.027199481012054612  0.40559694265863305  1.0000
  N   N4        1.0  0.6273174569933743  0.9727824790481138  0.5943803114435866  1.0000
  N   N5        1.0  0.46866029537810056  0.8624951081635787  0.4513957678185108  1.0000
  N   N6        1.0  0.531358489237462  0.1375142462625334  0.5486197201258208  1.0000
