data_image0
_chemical_formula_structural       U2H36C28N4O16
_chemical_formula_sum              "U2 H36 C28 N4 O16"
_cell_length_a       6.441926970163741
_cell_length_b       9.639018538039554
_cell_length_c       14.167707766219092
_cell_angle_alpha    90.00029042954637
_cell_angle_beta     97.68496094213705
_cell_angle_gamma    90.00005764337823

_space_group_name_H-M_alt    "P 1"
_space_group_IT_number       1

loop_
  _space_group_symop_operation_xyz
  'x, y, z'

loop_
  _atom_site_type_symbol
  _atom_site_label
  _atom_site_symmetry_multiplicity
  _atom_site_fract_x
  _atom_site_fract_y
  _atom_site_fract_z
  _atom_site_occupancy
  U   U1        1.0  4.081659049896047e-06  1.7390285762999995e-06  0.5000005210669157  1.0000
  U   U2        1.0  0.4999969307988295  0.5000016213066516  0.9999944304147803  1.0000
  H   H1        1.0  0.4767260517063293  0.017823775777486603  0.3697837455400119  1.0000
  H   H2        1.0  0.023270059812233502  0.5178249641859765  0.130212521218759  1.0000
  H   H3        1.0  0.5232646869458081  0.9821770262629741  0.6302135185897058  1.0000
  H   H4        1.0  0.9767313265537682  0.48217791273006577  0.8697768386253132  1.0000
  H   H5        1.0  0.15759344459778643  0.49578380618465434  0.5627507140143067  1.0000
  H   H6        1.0  0.3424045020336449  0.9957862746167053  0.9372515556953687  1.0000
  H   H7        1.0  0.8424117052041211  0.5042180333420632  0.4372557885070165  1.0000
  H   H8        1.0  0.6575941726949566  0.004216602337351099  0.0627489546640447  1.0000
  H   H9        1.0  0.6237046253619809  0.7199453151975134  0.43335092090521943  1.0000
  H   H10       1.0  0.8762907767115068  0.2199450733125019  0.0666505329208249  1.0000
  H   H11       1.0  0.3763004455504628  0.2800534119717283  0.5666534596205182  1.0000
  H   H12       1.0  0.1237048182452369  0.7800546912949426  0.9333512253298295  1.0000
  H   H13       1.0  0.2344871524923207  0.3296422163999323  0.2025757966175874  1.0000
  H   H14       1.0  0.26551646013095354  0.8296301815825159  0.29743120003804785  1.0000
  H   H15       1.0  0.765519405736143  0.6703720725129897  0.7974265453297776  1.0000
  H   H16       1.0  0.7344872286454631  0.17035298385292924  0.7025780483855257  1.0000
  H   H17       1.0  0.4018316402188589  0.4208956424646572  0.29224919508776276  1.0000
  H   H18       1.0  0.09817701163274249  0.9208911882029723  0.20776052521945593  1.0000
  H   H19       1.0  0.5981797480087963  0.5791103468626203  0.7077569336366807  1.0000
  H   H20       1.0  0.9018346132320546  0.07910235174624351  0.7922519694497936  1.0000
  H   H21       1.0  0.17673665732769442  0.33030970111091307  0.3235592515790557  1.0000
  H   H22       1.0  0.3232670098097756  0.8303041197556879  0.1764491623198552  1.0000
  H   H23       1.0  0.8232652549472305  0.6696994005546202  0.6764442548742976  1.0000
  H   H24       1.0  0.676742996286322  0.16968942018786487  0.8235618343084211  1.0000
  H   H25       1.0  0.7241361503931075  0.2786083702469142  0.2761706904920658  1.0000
  H   H26       1.0  0.7758626312180681  0.7786062038775724  0.22383327804952557  1.0000
  H   H27       1.0  0.2758658144569353  0.7213903569233224  0.7238342306010425  1.0000
  H   H28       1.0  0.22413930732506768  0.2213842236900234  0.7761709356977349  1.0000
  H   H29       1.0  0.5796651827194522  0.19342296364824557  0.17723129293403866  1.0000
  H   H30       1.0  0.920331656839373  0.6934132681519357  0.3227687274325319  1.0000
  H   H31       1.0  0.42033665066600884  0.8065830256598118  0.8227700915237293  1.0000
  H   H32       1.0  0.07967166380258561  0.306566784898898  0.6772306183669343  1.0000
  H   H33       1.0  0.6976547423419818  0.0942825489247099  0.2780769739403723  1.0000
  H   H34       1.0  0.8023401677391674  0.5942793468984604  0.2219204591839201  1.0000
  H   H35       1.0  0.30233766766735937  0.9057172156763327  0.7219232028880569  1.0000
  H   H36       1.0  0.1976645350298796  0.4057100431860334  0.7780740187057235  1.0000
  C   C1        1.0  0.36761066282886645  0.1052330069947871  0.3548548415847179  1.0000
  C   C2        1.0  0.132388805520101  0.6052343613756364  0.1451412213030068  1.0000
  C   C3        1.0  0.6323831555921516  0.8947688324922324  0.6451411746497654  1.0000
  C   C4        1.0  0.8676173582669975  0.3947685155500196  0.8548505106744031  1.0000
  C   C5        1.0  0.2467066305100687  0.746958551454661  0.4965734859412692  1.0000
  C   C6        1.0  0.2532884407256902  0.24696506187800787  0.003420043412916093  1.0000
  C   C7        1.0  0.7532983878138637  0.25304121315966904  0.50342947992673  1.0000
  C   C8        1.0  0.7467019561003737  0.7530419648305083  0.9965680254405525  1.0000
  C   C9        1.0  0.3772732265698338  0.6194912568945128  0.4973630834984775  1.0000
  C   C10       1.0  0.1227216893327423  0.11949561260479408  0.0026356134928135987  1.0000
  C   C11       1.0  0.6227335682957715  0.38051058264034754  0.5026456243936934  1.0000
  C   C12       1.0  0.8772704840290402  0.8805093392241543  0.9973581973768189  1.0000
  C   C13       1.0  0.3081683638988295  0.49630144290801315  0.5358094698074254  1.0000
  C   C14       1.0  0.1918311503979737  0.9963050504666598  0.9641928852796013  1.0000
  C   C15       1.0  0.6918400234404699  0.5037003966300515  0.46420002879585104  1.0000
  C   C16       1.0  0.8081626943210196  0.0036988639228709985  0.035803838288742895  1.0000
  C   C17       1.0  0.5699639580072783  0.6231025504449191  0.4614715147780116  1.0000
  C   C18       1.0  0.9300343248897676  0.12310421845017322  0.03853044011055569  1.0000
  C   C19       1.0  0.43004750909942396  0.37689928908967835  0.5385367359280337  1.0000
  C   C20       1.0  0.0699595724177371  0.8768986584942765  0.9614676981155198  1.0000
  C   C21       1.0  0.30135866968444697  0.32908227505927096  0.2780878558299449  1.0000
  C   C22       1.0  0.1986449413405325  0.8290759015988982  0.22191913867972346  1.0000
  C   C23       1.0  0.6986463486528791  0.6709268266052604  0.7219151100560451  1.0000
  C   C24       1.0  0.8013618535087019  0.17091452598570808  0.7780895691904631  1.0000
  C   C25       1.0  0.6183852371281517  0.1914012553629689  0.2550869801697146  1.0000
  C   C26       1.0  0.8816116229337254  0.6913972209517281  0.2449137397501104  1.0000
  C   C27       1.0  0.3816119240117501  0.8086016215952866  0.7449148614681818  1.0000
  C   C28       1.0  0.11839172401514021  0.3085911317017462  0.7550863133952105  1.0000
  N   N1        1.0  0.4278177656496212  0.2048321829474276  0.2993192335358899  1.0000
  N   N2        1.0  0.0721821724953458  0.7048276646791363  0.20068216430063754  1.0000
  N   N3        1.0  0.5721793429047465  0.7951738063559615  0.7006811934482684  1.0000
  N   N4        1.0  0.9278227406411403  0.29516691267521367  0.7993179722379153  1.0000
  O   O1        1.0  0.173703130158529  0.061271871245253406  0.6033154223413459  1.0000
  O   O2        1.0  0.3262885295374005  0.5612771606425468  0.8966757282234497  1.0000
  O   O3        1.0  0.8262890431913519  0.9387247809835201  0.3966783885122993  1.0000
  O   O4        1.0  0.6736988138103114  0.4387257162718114  0.10331429584912398  1.0000
  O   O5        1.0  0.0757176054720929  0.7457053889992337  0.5327570763492986  1.0000
  O   O6        1.0  0.4242683449217495  0.24570899842282748  0.9672351584458596  1.0000
  O   O7        1.0  0.9242857940846319  0.2542954130594524  0.4672443914797242  1.0000
  O   O8        1.0  0.575706153468282  0.754302178056214  0.032745710634337406  1.0000
  O   O9        1.0  0.30540225820606537  0.8598527161409989  0.4603373286214349  1.0000
  O   O10       1.0  0.194596269270221  0.3598604826613609  0.0396568023603621  1.0000
  O   O11       1.0  0.6945994436939813  0.14014601100456758  0.5396605191730188  1.0000
  O   O12       1.0  0.8054022476913544  0.6401444691779332  0.9603394640238605  1.0000
  O   O13       1.0  0.1968743332425333  0.11032591889147618  0.3888797504264332  1.0000
  O   O14       1.0  0.3031188061219297  0.610330246140535  0.1111138765700801  1.0000
  O   O15       1.0  0.8031146814594194  0.8896738456834189  0.6111131863408588  1.0000
  O   O16       1.0  0.6968779868954157  0.3896778180332845  0.8888780624597031  1.0000
