data_image0
_chemical_formula_structural       Ti2Zn2P4H14C12N2O22
_chemical_formula_sum              "Ti2 Zn2 P4 H14 C12 N2 O22"
_cell_length_a       5.090600430891298
_cell_length_b       8.473973288606116
_cell_length_c       14.927019366074923
_cell_angle_alpha    83.74626562092764
_cell_angle_beta     83.07901219417685
_cell_angle_gamma    89.94004534568496

_space_group_name_H-M_alt    "P 1"
_space_group_IT_number       1

loop_
  _space_group_symop_operation_xyz
  'x, y, z'

loop_
  _atom_site_type_symbol
  _atom_site_label
  _atom_site_symmetry_multiplicity
  _atom_site_fract_x
  _atom_site_fract_y
  _atom_site_fract_z
  _atom_site_occupancy
  Ti  Ti1       1.0  0.2577192285884422  0.7431230591397482  0.0267748426482086  1.0000
  Ti  Ti2       1.0  0.7422816357057513  0.25687741062146324  0.9732245324550985  1.0000
  Zn  Zn1       1.0  0.12202752059617691  0.7530959455817053  0.7412010295458556  1.0000
  Zn  Zn2       1.0  0.8779733436980237  0.24690452417950584  0.2587983455574515  1.0000
  P   P1        1.0  0.2797370828121331  0.46081454014706946  0.8800455572934566  1.0000
  P   P2        1.0  0.7202617808702455  0.539184738564508  0.11995464229971729  1.0000
  P   P3        1.0  0.8135645808622983  0.9037143200577165  0.9031437645942686  1.0000
  P   P4        1.0  0.1864362819375032  0.09628614827241225  0.09685628058438309  1.0000
  H   H1        1.0  0.7488713174368016  0.8896569573908408  0.3958200379253539  1.0000
  H   H2        1.0  0.25112754923436836  0.11034232418290205  0.6041788215171235  1.0000
  H   H3        1.0  0.3459977855209218  0.5880132225418038  0.5002787454809265  1.0000
  H   H4        1.0  0.6540010969163957  0.41198724197278846  0.49972205074365633  1.0000
  H   H5        1.0  0.5607552906671174  0.8915239849353329  0.756439310627421  1.0000
  H   H6        1.0  0.43924557362707617  0.10847648482587861  0.2435600644758864  1.0000
  H   H7        1.0  0.28786657095188417  0.6522670630980087  0.2195296568718419  1.0000
  H   H8        1.0  0.7121362099680154  0.34772984591427303  0.7804705276680649  1.0000
  H   H9        1.0  0.9256240507159743  0.8242017501975668  0.23737759055706678  1.0000
  H   H10       1.0  0.07437677457395608  0.17579634652653206  0.7626212613587808  1.0000
  H   H11       1.0  0.5427290892658476  0.888945591341056  0.6530042410215129  1.0000
  H   H12       1.0  0.45726977740532243  0.11105369023268713  0.3469946184209646  1.0000
  H   H13       1.0  0.498317853663515  0.530998930907458  0.3358209875464837  1.0000
  H   H14       1.0  0.5016809867807409  0.4689991577078487  0.664180625641336  1.0000
  C   C1        1.0  0.9377398592662585  0.7771725939469221  0.5544285578182269  1.0000
  C   C2        1.0  0.062253089555568394  0.22282786627648227  0.4455711411673845  1.0000
  C   C3        1.0  0.33484627780300263  0.6084067302545295  0.35536416506640467  1.0000
  C   C4        1.0  0.6651525641356455  0.3915913597918604  0.6446367780460631  1.0000
  C   C5        1.0  0.24978661295900653  0.6400525932060435  0.4431571366033537  1.0000
  C   C6        1.0  0.750212230474034  0.35994549827143635  0.5568431364337626  1.0000
  C   C7        1.0  0.036456814483173595  0.741508874187339  0.4588650509923085  1.0000
  C   C8        1.0  0.9635400920748438  0.2584915908049723  0.541134486052151  1.0000
  C   C9        1.0  0.9139745739998517  0.8096368085282678  0.3853108426752384  1.0000
  C   C10       1.0  0.0860223325581586  0.19036365646404363  0.6146886943692207  1.0000
  C   C11       1.0  0.0070405925613386015  0.7755756421567526  0.2984585348865067  1.0000
  C   C12       1.0  0.9929602282454083  0.22442245027409066  0.7015423272553816  1.0000
  N   N1        1.0  0.21234547360788975  0.6768224910932334  0.2862399097053583  1.0000
  N   N2        1.0  0.7876573245725496  0.3231756022909805  0.7137615415413021  1.0000
  O   O1        1.0  0.25751778590505836  0.5503182162094761  0.786167321675819  1.0000
  O   O2        1.0  0.7424850760121655  0.4496834417392108  0.21383256908831066  1.0000
  O   O3        1.0  0.06999719100817708  0.3256148091540609  0.8993127794551226  1.0000
  O   O4        1.0  0.9300016914291331  0.6743856553605384  0.10068801676946039  1.0000
  O   O5        1.0  0.24467610454006916  0.5685777043575869  0.9568518192002953  1.0000
  O   O6        1.0  0.7553267371278238  0.43142276635699534  0.04314814500778399  1.0000
  O   O7        1.0  0.5602636418166043  0.3861791470252031  0.8764615763195707  1.0000
  O   O8        1.0  0.439737200733866  0.6138201340708279  0.12353854230303085  1.0000
  O   O9        1.0  0.5997401601895048  0.803646434724435  0.9654514134481287  1.0000
  O   O10       1.0  0.40026070410468856  0.1963540350367765  0.03454796165517849  1.0000
  O   O11       1.0  0.7415383110901884  0.08062898691313342  0.8979293951981757  1.0000
  O   O12       1.0  0.2584645043507834  0.9193702908430127  0.10207332275523837  1.0000
  O   O13       1.0  0.08659367388039389  0.8760986457311049  0.9368357906150775  1.0000
  O   O14       1.0  0.9134071686700763  0.12390063536492592  0.06316432800752382  1.0000
  O   O15       1.0  0.8255262357686631  0.8536772196609873  0.8055241412260654  1.0000
  O   O16       1.0  0.17447464728046916  0.14632443590324581  0.19447583050864378  1.0000
  O   O17       1.0  0.06796833176704098  0.7100744602951821  0.6161677420178149  1.0000
  O   O18       1.0  0.9320306129126622  0.2899295673528002  0.3838321637995889  1.0000
  O   O19       1.0  0.7403866733642201  0.8653229978737331  0.563567021036391  1.0000
  O   O20       1.0  0.259608258808889  0.13467746902737332  0.4364305867526069  1.0000
  O   O21       1.0  0.42832789709931524  0.9072768796467658  0.7112223007084139  1.0000
  O   O22       1.0  0.5716729454511549  0.09272240144926511  0.2887778179141804  1.0000
