data_image0
_chemical_formula_structural       Al4H60C88I8O20
_chemical_formula_sum              "Al4 H60 C88 I8 O20"
_cell_length_a       6.663985936114069
_cell_length_b       25.40850588827879
_cell_length_c       28.94961118699199
_cell_angle_alpha    90.00006848067432
_cell_angle_beta     89.99891115075371
_cell_angle_gamma    90.36596573870791

_space_group_name_H-M_alt    "P 1"
_space_group_IT_number       1

loop_
  _space_group_symop_operation_xyz
  'x, y, z'

loop_
  _atom_site_type_symbol
  _atom_site_label
  _atom_site_symmetry_multiplicity
  _atom_site_fract_x
  _atom_site_fract_y
  _atom_site_fract_z
  _atom_site_occupancy
  Al  Al1       1.0  0.8009511921257088  0.7497061854630404  0.7500008634632422  1.0000
  Al  Al2       1.0  0.19903995438979652  0.2502882480963962  0.2499995349377642  1.0000
  Al  Al3       1.0  0.3012923615322904  0.7510198798944643  0.7500010637903786  1.0000
  Al  Al4       1.0  0.6986987711956586  0.24897179866278663  0.2500014071759935  1.0000
  H   H1        1.0  0.2365111635149901  0.3266804945058793  0.3736436277137756  1.0000
  H   H2        1.0  0.7634844337408992  0.6733037121875683  0.6263629883712483  1.0000
  H   H3        1.0  0.7634816079905207  0.6733117546316693  0.8736495565507738  1.0000
  H   H4        1.0  0.2365215395697362  0.3266819077864015  0.1263536052424286  1.0000
  H   H5        1.0  0.7322463490656403  0.1201823221474356  0.1677590505353663  1.0000
  H   H6        1.0  0.2677312603239628  0.8798057962618415  0.8322437658904746  1.0000
  H   H7        1.0  0.2678499596439607  0.8798570022156014  0.6677890525895691  1.0000
  H   H8        1.0  0.7323142356093513  0.1202336929434722  0.33226799558737946  1.0000
  H   H9        1.0  0.2550401686107903  0.38852474585790026  0.44035262587255625  1.0000
  H   H10       1.0  0.7449389197011554  0.6114590452631248  0.5596546811086611  1.0000
  H   H11       1.0  0.7449748436541627  0.6114703822323407  0.9403613485239362  1.0000
  H   H12       1.0  0.25506285745397145  0.38853119762983107  0.0596469946044493  1.0000
  H   H13       1.0  0.7522485390950989  0.05348280020344731  0.10491460069439279  1.0000
  H   H14       1.0  0.247723061750186  0.9465041294921835  0.8950920154513327  1.0000
  H   H15       1.0  0.24787327198717427  0.9465537143036683  0.6049406225335545  1.0000
  H   H16       1.0  0.7523614394031385  0.05353431985381012  0.39511331661760346  1.0000
  H   H17       1.0  0.6808300294543486  0.4509809993233489  0.4013199912504106  1.0000
  H   H18       1.0  0.3191671001132619  0.549009506515013  0.5986772982838104  1.0000
  H   H19       1.0  0.3191712678450002  0.5490124810106565  0.9013152143322641  1.0000
  H   H20       1.0  0.6808574317353974  0.450989480417249  0.09868449312401138  1.0000
  H   H21       1.0  0.18371459710870405  0.1069753885888929  0.05312811861846  1.0000
  H   H22       1.0  0.8162915617599323  0.8930202456844755  0.9468681346126147  1.0000
  H   H23       1.0  0.8162349639272647  0.8929821092158932  0.5531049879073465  1.0000
  H   H24       1.0  0.1835726764380539  0.1069254944697775  0.4468387607482569  1.0000
  H   H25       1.0  0.7526701629299168  0.5044696599273664  0.5635261636164799  1.0000
  H   H26       1.0  0.2473134391954801  0.495516498622571  0.4364766527935656  1.0000
  H   H27       1.0  0.24735385759937148  0.49552297950642543  0.0635244934905472  1.0000
  H   H28       1.0  0.7527033537677282  0.5044790199274303  0.93648177702309  1.0000
  H   H29       1.0  0.2519497424215871  0.92837021875269  0.9884891053160203  1.0000
  H   H30       1.0  0.748062367721083  0.0716151906565941  0.0115161290176218  1.0000
  H   H31       1.0  0.7480992618925626  0.07161046062086028  0.4884707212080528  1.0000
  H   H32       1.0  0.2519863388330776  0.9283667817687303  0.5115144781283689  1.0000
  H   H33       1.0  0.5188338768315858  0.4271079812158192  0.3355153512746867  1.0000
  H   H34       1.0  0.6540172012302533  0.3956738821534245  0.2902777789120421  1.0000
  H   H35       1.0  0.5112886696027202  0.3574046640077598  0.32899884031864696  1.0000
  H   H36       1.0  0.48120528850517275  0.5728861227646149  0.6644701936127291  1.0000
  H   H37       1.0  0.48872798812766405  0.642589803544702  0.6709887771913116  1.0000
  H   H38       1.0  0.346044443890051  0.6043143482551727  0.7097167470392023  1.0000
  H   H39       1.0  0.4811360915142656  0.5728786736369357  0.8355063423553019  1.0000
  H   H40       1.0  0.34596505633005137  0.6043209900729636  0.7902708515761176  1.0000
  H   H41       1.0  0.4887072864721347  0.6425839841182966  0.8289946989983433  1.0000
  H   H42       1.0  0.5188655614761544  0.4271161674934447  0.1644916380254386  1.0000
  H   H43       1.0  0.5112868752821953  0.35741320844007873  0.170998445413133  1.0000
  H   H44       1.0  0.6540275811964379  0.39567147762369365  0.2097247108312672  1.0000
  H   H45       1.0  0.025819399363690803  0.1793005754331389  0.0816695155275227  1.0000
  H   H46       1.0  0.010298945907798902  0.1765245538805615  0.1430430883961407  1.0000
  H   H47       1.0  0.15948919779943788  0.2251426401943419  0.11694049302757752  1.0000
  H   H48       1.0  0.9742153090706863  0.8207025747027218  0.9183177565143055  1.0000
  H   H49       1.0  0.8405199779573991  0.7748561466555941  0.8830571419087292  1.0000
  H   H50       1.0  0.9896787032818111  0.8234714359560584  0.8569424566443756  1.0000
  H   H51       1.0  0.9739673047640095  0.8206079430579792  0.581628261067472  1.0000
  H   H52       1.0  0.9896710866633499  0.8234146005702601  0.6429989960405181  1.0000
  H   H53       1.0  0.8402651840176532  0.7748103584501678  0.6169399242054396  1.0000
  H   H54       1.0  0.025428543112212796  0.179174350265626  0.41826263809397796  1.0000
  H   H55       1.0  0.15911771624458745  0.22508487209493216  0.383067038778897  1.0000
  H   H56       1.0  0.0102489465652766  0.1764616673277289  0.3568853387429485  1.0000
  H   H57       1.0  0.5477184610181496  0.6804397252706806  0.7499834933327776  1.0000
  H   H58       1.0  0.45227869723936454  0.3195562905515672  0.24997856257027  1.0000
  H   H59       1.0  0.04876181813984459  0.8201101097817514  0.7499440362094774  1.0000
  H   H60       1.0  0.9512353336049841  0.17988393812047584  0.2499264813302133  1.0000
  C   C1        1.0  0.5536723995987031  0.812826626408139  0.6865073893677476  1.0000
  C   C2        1.0  0.44631728524176856  0.18717567659403755  0.3134992267408592  1.0000
  C   C3        1.0  0.4463383187380643  0.18717010487520724  0.18650304782968868  1.0000
  C   C4        1.0  0.5536587949714686  0.8128172523910778  0.8134994231197511  1.0000
  C   C5        1.0  0.050933194496806805  0.6857929534558451  0.8121147475296908  1.0000
  C   C6        1.0  0.9490369237186441  0.3141975163802968  0.18788150578797772  1.0000
  C   C7        1.0  0.9490384792044254  0.3141991805596973  0.3121146078080698  1.0000
  C   C8        1.0  0.0509676599500111  0.6857925179965819  0.6878850996989314  1.0000
  C   C9        1.0  0.1143532022459581  0.3539097152222725  0.3804184730351494  1.0000
  C   C10       1.0  0.8856364003398766  0.6460760577581226  0.619587452209906  1.0000
  C   C11       1.0  0.8856345874687152  0.64608371756043  0.8804213525937356  1.0000
  C   C12       1.0  0.11436706930351899  0.3539119107163203  0.1195804274929984  1.0000
  C   C13       1.0  0.6118460499280404  0.11651709656045031  0.1425023579340134  1.0000
  C   C14       1.0  0.38814808807016016  0.8834753731392411  0.8574976950308439  1.0000
  C   C15       1.0  0.388230983292047  0.883506423620027  0.6425220960320956  1.0000
  C   C16       1.0  0.6118654885012446  0.11654482432471978  0.3575093906369418  1.0000
  C   C17       1.0  0.1244603516124414  0.3883361272981745  0.4176365815133849  1.0000
  C   C18       1.0  0.8755277484559371  0.6116492501088331  0.5823672711685077  1.0000
  C   C19       1.0  0.875547280265259  0.61165777812559  0.9176415495124316  1.0000
  C   C20       1.0  0.12448440663203542  0.38834143230326396  0.0823647210629588  1.0000
  C   C21       1.0  0.6226841986878144  0.0793140275144211  0.1074949340798099  1.0000
  C   C22       1.0  0.3773024223591294  0.920675677182658  0.8925071914689652  1.0000
  C   C23       1.0  0.37739831724851314  0.9207035469320459  0.6075099266194215  1.0000
  C   C24       1.0  0.6227311372691561  0.07934144786086252  0.3925174148315378  1.0000
  C   C25       1.0  0.9656055907403315  0.4229952451393403  0.4259254756431901  1.0000
  C   C26       1.0  0.03437951007115461  0.5769905218385178  0.5740769953351759  1.0000
  C   C27       1.0  0.034405948683946995  0.5769986772102699  0.925927316666936  1.0000
  C   C28       1.0  0.9656317485928341  0.42300211550643513  0.0740786084665928  1.0000
  C   C29       1.0  0.4653470765509907  0.0748986198149595  0.07557261255295342  1.0000
  C   C30       1.0  0.5346500489622912  0.9250910988820352  0.9244284766864936  1.0000
  C   C31       1.0  0.5347000861736787  0.9250932803588867  0.5755726686183067  1.0000
  C   C32       1.0  0.46534206040469434  0.07489689191032771  0.4244249662321736  1.0000
  C   C33       1.0  0.8009777969689935  0.4226837080939704  0.3958087252016753  1.0000
  C   C34       1.0  0.19901782016211914  0.5773044343135965  0.6041899460462474  1.0000
  C   C35       1.0  0.19901939165879415  0.5773093654033944  0.8958059524139159  1.0000
  C   C36       1.0  0.8010032974925849  0.4226910137375627  0.1041954821953581  1.0000
  C   C37       1.0  0.3023206167773651  0.10923160641996793  0.0790621988424931  1.0000
  C   C38       1.0  0.6976885394386869  0.8907632447096959  0.9209340543807798  1.0000
  C   C39       1.0  0.697669179963853  0.8907417244627355  0.5790510516927014  1.0000
  C   C40       1.0  0.30223166720397643  0.1091998504313807  0.4209179129772878  1.0000
  C   C41       1.0  0.787397378794857  0.3883888413767592  0.3580842282507247  1.0000
  C   C42       1.0  0.21260574348377054  0.6115997046027175  0.6419137521232657  1.0000
  C   C43       1.0  0.21258749730672827  0.6116018009535936  0.858080731400797  1.0000
  C   C44       1.0  0.7874081550993778  0.3883934257486106  0.1419175944227646  1.0000
  C   C45       1.0  0.2881082180090573  0.14716772702658432  0.1139843107437883  1.0000
  C   C46       1.0  0.7118949435121708  0.8528286903904813  0.8860119424950882  1.0000
  C   C47       1.0  0.7118520646589701  0.8528060074678123  0.6139758192236684  1.0000
  C   C48       1.0  0.2880022706681302  0.14713707971254314  0.3859948727010405  1.0000
  C   C49       1.0  0.9478258345196907  0.3530385548198325  0.35080772310312375  1.0000
  C   C50       1.0  0.0521817895085093  0.6469499971626361  0.649194402393121  1.0000
  C   C51       1.0  0.0521610679477504  0.646952867062275  0.850805400344889  1.0000
  C   C52       1.0  0.947830070880258  0.35303999220668203  0.1491908529219685  1.0000
  C   C53       1.0  0.4462040662333068  0.149962640869937  0.1466323733630759  1.0000
  C   C54       1.0  0.5537960880710172  0.8500325918325159  0.8533659524493444  1.0000
  C   C55       1.0  0.5537975123789423  0.8500352025648612  0.6466364056650065  1.0000
  C   C56       1.0  0.44615312883156116  0.1499615384234332  0.3533633019817728  1.0000
  C   C57       1.0  0.8389248186216774  0.4648978345705643  0.5008021176162103  1.0000
  C   C58       1.0  0.16104678240940729  0.5350890951216557  0.499199317112776  1.0000
  C   C59       1.0  0.16109170497476552  0.535096674032154  0.0008036768257042999  1.0000
  C   C60       1.0  0.8389595175126843  0.46490807240604676  0.9992043208430205  1.0000
  C   C61       1.0  0.3384757490050561  0.99504530982167  0.0301406472836447  1.0000
  C   C62       1.0  0.6615303605656921  0.0049404851592101  0.9698645870650325  1.0000
  C   C63       1.0  0.6615761281520564  0.004937480292177601  0.5301250022557937  1.0000
  C   C64       1.0  0.33849147289116394  0.9950413123827672  0.46985812455922366  1.0000
  C   C65       1.0  0.8606130376996575  0.5027743598039152  0.5353058276391778  1.0000
  C   C66       1.0  0.1393615665311714  0.49721296746086824  0.4646962979381399  1.0000
  C   C67       1.0  0.13940701196268176  0.4972198087145189  0.035306420357755997  1.0000
  C   C68       1.0  0.8606502052567536  0.5027833714356048  0.9647005410120144  1.0000
  C   C69       1.0  0.3603642008402517  0.9601537580896178  0.9933621480301582  1.0000
  C   C70       1.0  0.639641910726681  0.03983243046251061  0.0066420500353601  1.0000
  C   C71       1.0  0.6396649652112529  0.03983083742916451  0.493347723137461  1.0000
  C   C72       1.0  0.3604011566742713  0.9601522825383598  0.5066374762500487  1.0000
  C   C73       1.0  0.022006456935251596  0.5386431061691113  0.5355866799977207  1.0000
  C   C74       1.0  0.9779711446182163  0.46134343795242233  0.46441613642736  1.0000
  C   C75       1.0  0.9780075837314045  0.46135380972344836  0.0355882698733438  1.0000
  C   C76       1.0  0.0220451315898131  0.5386493644264122  0.9644186915075678  1.0000
  C   C77       1.0  0.5223211722327293  0.9640022418894177  0.9624438902047601  1.0000
  C   C78       1.0  0.4776804472930962  0.035985908520999005  0.03755858073392909  1.0000
  C   C79       1.0  0.47768920995624603  0.035983859159252105  0.4624361350580913  1.0000
  C   C80       1.0  0.5223619211379003  0.9640023893854206  0.5375528640736533  1.0000
  C   C81       1.0  0.6081315925878812  0.3924055538092049  0.3266469457471999  1.0000
  C   C82       1.0  0.3919000575956346  0.6075861787435175  0.6733451622855  1.0000
  C   C83       1.0  0.39185103051650577  0.607583860356904  0.8266391037814599  1.0000
  C   C84       1.0  0.6081461167691062  0.39241018762729846  0.17335576775998618  1.0000
  C   C85       1.0  0.11159398884420568  0.18385162793564555  0.11381205163673509  1.0000
  C   C86       1.0  0.8884106911144726  0.8161483336257476  0.8861793656111843  1.0000
  C   C87       1.0  0.8882731205734089  0.8160924644209687  0.61378814279702  1.0000
  C   C88       1.0  0.1113587657904134  0.1837786966317907  0.3861483522918546  1.0000
  I   I1        1.0  0.5980083731908084  0.411194964106997  0.5081091754263909  1.0000
  I   I2        1.0  0.4019797269147388  0.5887904132993285  0.491893640972151  1.0000
  I   I3        1.0  0.40201662244513875  0.5887979918393995  0.0081071779157327  1.0000
  I   I4        1.0  0.5980196112471177  0.41121027674719807  0.9919035832140751  1.0000
  I   I5        1.0  0.096767052090776  0.9808254658875696  0.075687963844544  1.0000
  I   I6        1.0  0.9032390672503608  0.0191622969534393  0.92431796136065  1.0000
  I   I7        1.0  0.9033610319907553  0.019145289535423205  0.5756531746688367  1.0000
  I   I8        1.0  0.09679349254856362  0.9808107919644159  0.4243182073753147  1.0000
  O   O1        1.0  0.3827273931275315  0.7994426289889064  0.7972322633219378  1.0000
  O   O2        1.0  0.6172546767604672  0.20053723041474567  0.2027778070722235  1.0000
  O   O3        1.0  0.6172333428500637  0.20054946940573615  0.2972322708691451  1.0000
  O   O4        1.0  0.3827473712621908  0.7994595123231747  0.7027809083928246  1.0000
  O   O5        1.0  0.879928567146017  0.7004460148590608  0.7027879198199827  1.0000
  O   O6        1.0  0.12007907266593072  0.29954568569684886  0.2972110968277448  1.0000
  O   O7        1.0  0.12008095997452979  0.29954601502629424  0.2027863398744501  1.0000
  O   O8        1.0  0.8798996879517347  0.7004495852490321  0.7972150948364529  1.0000
  O   O9        1.0  0.7224906970613816  0.7981156875153277  0.7024246221474257  1.0000
  O   O10       1.0  0.2774974971397057  0.20188858134280002  0.297576467121317  1.0000
  O   O11       1.0  0.2775143855918998  0.20188263304122236  0.2024221666508979  1.0000
  O   O12       1.0  0.7224692578218354  0.7981117905166498  0.7975765046297525  1.0000
  O   O13       1.0  0.21974455007482163  0.7017205680917443  0.7968270858919979  1.0000
  O   O14       1.0  0.7802300506962468  0.29826597202074373  0.2031622588569846  1.0000
  O   O15       1.0  0.7802387204483168  0.2982707726277241  0.2968294926593984  1.0000
  O   O16       1.0  0.21977943177758158  0.701722516213792  0.7031653788297234  1.0000
  O   O17       1.0  0.5498106681344056  0.7184939769168396  0.7499955969653271  1.0000
  O   O18       1.0  0.4501864870864338  0.2815016453532806  0.2499965111546203  1.0000
  O   O19       1.0  0.050854865420852505  0.782059862131334  0.7500010077827497  1.0000
  O   O20       1.0  0.9491392764087082  0.2179333947138318  0.2500014631769574  1.0000
