data_image0
_chemical_formula_structural       Li4H24C16N4O26
_chemical_formula_sum              "Li4 H24 C16 N4 O26"
_cell_length_a       6.888017618510512
_cell_length_b       8.61785207551338
_cell_length_c       11.738824891095351
_cell_angle_alpha    89.99956123134707
_cell_angle_beta     90.0002252687849
_cell_angle_gamma    102.59829769629935

_space_group_name_H-M_alt    "P 1"
_space_group_IT_number       1

loop_
  _space_group_symop_operation_xyz
  'x, y, z'

loop_
  _atom_site_type_symbol
  _atom_site_label
  _atom_site_symmetry_multiplicity
  _atom_site_fract_x
  _atom_site_fract_y
  _atom_site_fract_z
  _atom_site_occupancy
  Li  Li1       1.0  0.8825553125898935  0.06737219717432914  0.249996154053477  1.0000
  Li  Li2       1.0  0.11744180463226435  0.932629185886711  0.7500002628717155  1.0000
  Li  Li3       1.0  0.3326727081069549  0.0490546652860502  0.2499997607046467  1.0000
  Li  Li4       1.0  0.6673233028386392  0.9509479207240974  0.7499992118379027  1.0000
  H   H1        1.0  0.9255419906313803  0.15783846770397497  0.0382209304797243  1.0000
  H   H2        1.0  0.07445818859500268  0.842157871204897  0.5382262772223427  1.0000
  H   H3        1.0  0.07445989329934125  0.8421592924311058  0.9617763383355112  1.0000
  H   H4        1.0  0.9255393517482703  0.15783993101067043  0.46177610283137244  1.0000
  H   H5        1.0  0.7523342020355557  0.006923008441937399  0.0364568916178669  1.0000
  H   H6        1.0  0.24766291273923  0.9930829159041323  0.5364601500974686  1.0000
  H   H7        1.0  0.2476639399457455  0.9930819413816327  0.9635429327949512  1.0000
  H   H8        1.0  0.7523335213179082  0.006916089290754702  0.4635388224554405  1.0000
  H   H9        1.0  0.01926113921370396  0.8365260954800748  0.1840817452371866  1.0000
  H   H10       1.0  0.9807321059457266  0.16347837534893728  0.6840837589239895  1.0000
  H   H11       1.0  0.980731374356587  0.1634693710145712  0.8159155235723575  1.0000
  H   H12       1.0  0.019261350849880954  0.8365254276716741  0.315912657989891  1.0000
  H   H13       1.0  0.5154404181523518  0.8395801902269681  0.18296897179320132  1.0000
  H   H14       1.0  0.4845510339838555  0.16042311698675596  0.6829705855434797  1.0000
  H   H15       1.0  0.48455022444253604  0.16041887111407502  0.8170291488781275  1.0000
  H   H16       1.0  0.5154410564789914  0.8395759303101972  0.3170292388777867  1.0000
  H   H17       1.0  0.12854990512050793  0.3452446787948987  0.1826742319046915  1.0000
  H   H18       1.0  0.871449208516559  0.6547549803822438  0.6826817917451606  1.0000
  H   H19       1.0  0.8714516372297609  0.6547518924006327  0.8173255925354397  1.0000
  H   H20       1.0  0.12855012127375431  0.3452439967330961  0.317318884559576  1.0000
  H   H21       1.0  0.6651866921481114  0.3974676335854781  0.9448328342793887  1.0000
  H   H22       1.0  0.3348165005156927  0.6025305304639872  0.4448363175804388  1.0000
  H   H23       1.0  0.3348176644056053  0.6025336792810023  0.0551669901513492  1.0000
  H   H24       1.0  0.6651850418400471  0.39746604071428493  0.5551669143557874  1.0000
  C   C1        1.0  0.5031793235536811  0.2382705393749802  0.051903822552390004  1.0000
  C   C2        1.0  0.49683077457734737  0.7617196040748271  0.5518928007282611  1.0000
  C   C3        1.0  0.4968278472144334  0.7617355151279099  0.9481028168611374  1.0000
  C   C4        1.0  0.5031733219092301  0.2382757501533987  0.4481010606003012  1.0000
  C   C5        1.0  0.7397442462724724  0.49086891847329656  0.1506603363476202  1.0000
  C   C6        1.0  0.2602760594287403  0.5091344353761968  0.6506586131673942  1.0000
  C   C7        1.0  0.26026598326910744  0.5091275685094843  0.8493394881038512  1.0000
  C   C8        1.0  0.7397319575501625  0.49086445753501823  0.3493403594006281  1.0000
  C   C9        1.0  0.6030710252503794  0.3413649925742846  0.1505847546357941  1.0000
  C   C10       1.0  0.39692850547631053  0.6586469090321501  0.650595339363278  1.0000
  C   C11       1.0  0.3969312002676375  0.6586339564787665  0.849414217924668  1.0000
  C   C12       1.0  0.6030699780950144  0.3413592297007639  0.34940789254282123  1.0000
  C   C13       1.0  0.8289311313504796  0.5903877220561284  0.047894354660343204  1.0000
  C   C14       1.0  0.17107555355646303  0.4096108405854438  0.5478946527648105  1.0000
  C   C15       1.0  0.17108080611253482  0.40961470956396084  0.9521046179029896  1.0000
  C   C16       1.0  0.8289282013578613  0.5903833246773402  0.4521068754327971  1.0000
  N   N1        1.0  0.5395346349097991  0.27476918729278316  0.25000196208169  1.0000
  N   N2        1.0  0.460469900174509  0.7252428539840141  0.7499978623198658  1.0000
  N   N3        1.0  0.8010657514959123  0.5596431414945331  0.249993848699873  1.0000
  N   N4        1.0  0.19893128420336129  0.44036301129541044  0.7500051238342138  1.0000
  O   O1        1.0  0.374387302243619  0.1180322634831938  0.0750059591505448  1.0000
  O   O2        1.0  0.6256014936813443  0.8819590453292537  0.575003126167836  1.0000
  O   O3        1.0  0.6256111813304412  0.8819738752410872  0.9249989765036019  1.0000
  O   O4        1.0  0.3743903367211913  0.11803404330787258  0.42499499452138423  1.0000
  O   O5        1.0  0.9402937600378106  0.7226551335654037  0.0655142967918536  1.0000
  O   O6        1.0  0.05970548204385302  0.2773373621175567  0.5655056646618064  1.0000
  O   O7        1.0  0.05972004841154192  0.27734370317376295  0.9344906389018918  1.0000
  O   O8        1.0  0.9402917167080177  0.7226592511929868  0.43449245602461434  1.0000
  O   O9        1.0  0.7857291648151516  0.534301825298968  0.9466624387144833  1.0000
  O   O10       1.0  0.21428348559335572  0.46569384416668685  0.4466552896101845  1.0000
  O   O11       1.0  0.2142796168707903  0.4656946756890648  0.053343348853268004  1.0000
  O   O12       1.0  0.7857207894265416  0.5343122384632225  0.5533402754372504  1.0000
  O   O13       1.0  0.5506940747769065  0.28264071214165654  0.947327289803404  1.0000
  O   O14       1.0  0.44930614862425955  0.7173622244933997  0.4473219175853842  1.0000
  O   O15       1.0  0.4492994635456854  0.7173583211370983  0.05266912712365721  1.0000
  O   O16       1.0  0.5506934412222577  0.2826427112947131  0.5526779068293308  1.0000
  O   O17       1.0  0.825916913527493  0.0898473174876173  0.0878895044744183  1.0000
  O   O18       1.0  0.17408044790914098  0.9101533160410045  0.5878921775593682  1.0000
  O   O19       1.0  0.17408446576880726  0.9101587931916343  0.9121103199393661  1.0000
  O   O20       1.0  0.8259177756005087  0.08984686403639588  0.4121084987406576  1.0000
  O   O21       1.0  0.06233139383087405  0.9078141993081631  0.2499970612701787  1.0000
  O   O22       1.0  0.9376621444958244  0.09218483395764572  0.7500019112789503  1.0000
  O   O23       1.0  0.5365229312269547  0.9095839846001043  0.24999766258876832  1.0000
  O   O24       1.0  0.4634677113693044  0.09041507673662613  0.7500013099565876  1.0000
  O   O25       1.0  0.0824430637748677  0.27963296932662735  0.2499988088177503  1.0000
  O   O26       1.0  0.9175540534554898  0.7203684137085133  0.7500027193515851  1.0000
