data_image0
_chemical_formula_structural       Cd2H16C20S4N4O4
_chemical_formula_sum              "Cd2 H16 C20 S4 N4 O4"
_cell_length_a       3.813978154006462
_cell_length_b       10.011044762021223
_cell_length_c       14.342756081738681
_cell_angle_alpha    101.4524771637923
_cell_angle_beta     89.9998315097245
_cell_angle_gamma    89.9999068283165

_space_group_name_H-M_alt    "P 1"
_space_group_IT_number       1

loop_
  _space_group_symop_operation_xyz
  'x, y, z'

loop_
  _atom_site_type_symbol
  _atom_site_label
  _atom_site_symmetry_multiplicity
  _atom_site_fract_x
  _atom_site_fract_y
  _atom_site_fract_z
  _atom_site_occupancy
  Cd  Cd1       1.0  0.9999912410355947  0.5000002282138355  0.9999998577439442  1.0000
  Cd  Cd2       1.0  0.5000016283511854  0.5000002846133923  0.5000000839091429  1.0000
  H   H1        1.0  0.7442101107325954  0.42845234373203295  0.2523835462074757  1.0000
  H   H2        1.0  0.24423055744640723  0.5715470764482119  0.2476185866804031  1.0000
  H   H3        1.0  0.255769548549786  0.5715482493303979  0.747618716508086  1.0000
  H   H4        1.0  0.7557858089225107  0.4284524894984615  0.7523828419121871  1.0000
  H   H5        1.0  0.8189406773618728  0.2081479769699897  0.3040856252017648  1.0000
  H   H6        1.0  0.3189659754263375  0.7918483055543389  0.19591463628665207  1.0000
  H   H7        1.0  0.181036359996078  0.7918505698354749  0.6959156675976744  1.0000
  H   H8        1.0  0.6810556348209432  0.20814921413198556  0.8040858223862701  1.0000
  H   H9        1.0  0.5694126841509544  0.9940951396950837  0.19764297000422465  1.0000
  H   H10       1.0  0.06941664750497982  0.005903356131398099  0.3023542966004698  1.0000
  H   H11       1.0  0.4305853286975037  0.005904386550334102  0.8023549671188948  1.0000
  H   H12       1.0  0.9305892311462642  0.9940961701106371  0.6976436405191039  1.0000
  H   H13       1.0  0.24495125768185494  0.017023298639621497  0.05276789128947711  1.0000
  H   H14       1.0  0.7449498279164857  0.9829760494358906  0.4472279562801448  1.0000
  H   H15       1.0  0.755051999042884  0.9829762117198727  0.9472286492401809  1.0000
  H   H16       1.0  0.25504556300933967  0.017023452985156992  0.5527678859575147  1.0000
  C   C1        1.0  0.6408827383935076  0.33390554308190445  0.21110292738141115  1.0000
  C   C2        1.0  0.140897071181449  0.6660939660005238  0.28889929866430464  1.0000
  C   C3        1.0  0.35910216475739537  0.6660950499782672  0.7888993353317844  1.0000
  C   C4        1.0  0.8591140513150607  0.3339056078902444  0.7111028282262026  1.0000
  C   C5        1.0  0.6775453635863187  0.2106652600921706  0.23846945850933576  1.0000
  C   C6        1.0  0.1775647034718162  0.7893321553030077  0.2615303679724336  1.0000
  C   C7        1.0  0.3224369176440334  0.7893332787692129  0.7615311359921935  1.0000
  C   C8        1.0  0.8224516629048536  0.21066739476000854  0.7384696640290614  1.0000
  C   C9        1.0  0.5384601961708242  0.09406635301803588  0.17979232492738365  1.0000
  C   C10       1.0  0.0384652675257371  0.9059321932639791  0.32020706446875385  1.0000
  C   C11       1.0  0.4615378166689866  0.9059321778947405  0.820207571271503  1.0000
  C   C12       1.0  0.9615432330588762  0.09406632176062857  0.6797914351343124  1.0000
  C   C13       1.0  0.36318694042501676  0.10629391593382556  0.09755114612312353  1.0000
  C   C14       1.0  0.8631863963292831  0.8937073925568841  0.4024469613587912  1.0000
  C   C15       1.0  0.6368136943547285  0.8937066294685893  0.9024469268096953  1.0000
  C   C16       1.0  0.1368168603877038  0.10629213368627427  0.5975509757619692  1.0000
  C   C17       1.0  0.3314220908919054  0.23249842122751824  0.06856669521881292  1.0000
  C   C18       1.0  0.8314270225353796  0.7675019113158256  0.43143270167853853  1.0000
  C   C19       1.0  0.6685706780734151  0.7675021480037783  0.931433472604198  1.0000
  C   C20       1.0  0.1685788561090149  0.23249864202617224  0.5685660695474583  1.0000
  S   S1        1.0  0.13204785206213643  0.2467855323043651  0.9638295594440013  1.0000
  S   S2        1.0  0.6320493496835909  0.7532163083096464  0.5361701514487934  1.0000
  S   S3        1.0  0.867947538841328  0.7532150289839735  0.03616991008227191  1.0000
  S   S4        1.0  0.3679512850863134  0.24678628335085748  0.46382889140132033  1.0000
  N   N1        1.0  0.47838093198535603  0.3443063109821479  0.12822018621466924  1.0000
  N   N2        1.0  0.9783896342281437  0.6556949539881954  0.37178270547845227  1.0000
  N   N3        1.0  0.5216092150272189  0.6556953091757264  0.8717829106025832  1.0000
  N   N4        1.0  0.021621488276125  0.3443046040189087  0.6282180248209528  1.0000
  O   O1        1.0  0.473797645084396  0.46805658771330616  0.10561191805209802  1.0000
  O   O2        1.0  0.9738092608879185  0.5319446653154357  0.3943895811806898  1.0000
  O   O3        1.0  0.5261872580712745  0.531945008621335  0.8943890838808815  1.0000
  O   O4        1.0  0.0261992396722519  0.46805693895088735  0.605612119037197  1.0000
