data_image0
_chemical_formula_structural       Hg2H10C8S4N6
_chemical_formula_sum              "Hg2 H10 C8 S4 N6"
_cell_length_a       5.796965709270621
_cell_length_b       7.417650695787021
_cell_length_c       9.66317680468679
_cell_angle_alpha    94.34933463101045
_cell_angle_beta     81.64374362453228
_cell_angle_gamma    78.3319023186128

_space_group_name_H-M_alt    "P 1"
_space_group_IT_number       1

loop_
  _space_group_symop_operation_xyz
  'x, y, z'

loop_
  _atom_site_type_symbol
  _atom_site_label
  _atom_site_symmetry_multiplicity
  _atom_site_fract_x
  _atom_site_fract_y
  _atom_site_fract_z
  _atom_site_occupancy
  Hg  Hg1       1.0  0.18296549361585343  0.6734282109117584  0.16724506866646746  1.0000
  Hg  Hg2       1.0  0.8170221481918322  0.32657411404890974  0.8327530249240026  1.0000
  H   H1        1.0  0.9100033772861595  0.7712678527541071  0.4215872532899922  1.0000
  H   H2        1.0  0.0899758620051827  0.22871994000309573  0.5784205362640975  1.0000
  H   H3        1.0  0.3484526163870641  0.914409370968002  0.4276274308625858  1.0000
  H   H4        1.0  0.6515378494774071  0.0855822214428912  0.5723753570975917  1.0000
  H   H5        1.0  0.2878638674644592  0.7077326595841525  0.49229302505532496  1.0000
  H   H6        1.0  0.7121213853191226  0.29225890223836604  0.5077091650393584  1.0000
  H   H7        1.0  0.7604320831114749  0.036358555659887784  0.31105952618985105  1.0000
  H   H8        1.0  0.23956370505768398  0.9636328013876676  0.688939700032293  1.0000
  H   H9        1.0  0.029981784660449814  0.11289050140563006  0.3195681361310747  1.0000
  H   H10       1.0  0.9700176543784809  0.8871066181887812  0.6804350602265572  1.0000
  C   C1        1.0  0.6720598487677523  0.835427042429778  0.08408296828511651  1.0000
  C   C2        1.0  0.32794889111702474  0.16457480649303588  0.9159081576594018  1.0000
  C   C3        1.0  0.6456237361475065  0.48781575266389854  0.2911836498851557  1.0000
  C   C4        1.0  0.35440359994917986  0.5122264154650366  0.7088348164874461  1.0000
  C   C5        1.0  0.20799118112682904  0.8515727092672873  0.4805576458033443  1.0000
  C   C6        1.0  0.7920061552348232  0.1484381097442835  0.5194657296024587  1.0000
  C   C7        1.0  0.9006044865419657  0.04230117958582719  0.37537826690417114  1.0000
  C   C8        1.0  0.09936433043177574  0.9577188359099933  0.6246373616626215  1.0000
  S   S1        1.0  0.9357698107289709  0.7703981238346387  0.9837078692950314  1.0000
  S   S2        1.0  0.06428418381467085  0.22957816667104675  0.016272639098268395  1.0000
  S   S3        1.0  0.46954669573639074  0.38623699465961175  0.2066379678046175  1.0000
  S   S4        1.0  0.5303702511049695  0.6137440995310683  0.793328288554065  1.0000
  N   N1        1.0  0.47915645529678846  0.8830735589107306  0.15209363216824562  1.0000
  N   N2        1.0  0.52085643261767  0.11693949347642268  0.8478787544564385  1.0000
  N   N3        1.0  0.7754376366395308  0.5533290362630794  0.35290534421627484  1.0000
  N   N4        1.0  0.22462042797931048  0.4466823612392403  0.6471284726232297  1.0000
  N   N5        1.0  0.027575515709088342  0.852085122906722  0.3875205934358377  1.0000
  N   N6        1.0  0.9724289865936486  0.1478872322811213  0.6124619187389229  1.0000
