data_image0
_chemical_formula_structural       Co2H26C32Cl2O14
_chemical_formula_sum              "Co2 H26 C32 Cl2 O14"
_cell_length_a       7.069103678132283
_cell_length_b       9.206826938604467
_cell_length_c       14.40609828487734
_cell_angle_alpha    80.54412415954938
_cell_angle_beta     75.80617024144902
_cell_angle_gamma    67.41715198224189

_space_group_name_H-M_alt    "P 1"
_space_group_IT_number       1

loop_
  _space_group_symop_operation_xyz
  'x, y, z'

loop_
  _atom_site_type_symbol
  _atom_site_label
  _atom_site_symmetry_multiplicity
  _atom_site_fract_x
  _atom_site_fract_y
  _atom_site_fract_z
  _atom_site_occupancy
  Co  Co1       1.0  0.055168029143828505  0.9562096734050841  0.5157592028883827  1.0000
  Co  Co2       1.0  0.5271508949964528  0.0438837620816201  0.4841800624347314  1.0000
  H   H1        1.0  0.6417724220333769  0.27579189869961607  0.7449385959619335  1.0000
  H   H2        1.0  0.6622147192063178  0.7239763068036781  0.25513838525088056  1.0000
  H   H3        1.0  0.6670017515159761  0.5182098555874646  0.5734157758857705  1.0000
  H   H4        1.0  0.7592484701641239  0.48132818052077675  0.42650259905844473  1.0000
  H   H5        1.0  0.8884697449568293  0.37165127139517307  0.6158827287060261  1.0000
  H   H6        1.0  0.8765648077507819  0.6278686371407218  0.38391843469678827  1.0000
  H   H7        1.0  0.703982251036642  0.5211708885114064  0.6908411787849645  1.0000
  H   H8        1.0  0.9159262008076466  0.47850961638827993  0.30894997246363687  1.0000
  H   H9        1.0  0.4489582471175595  0.13439316478491042  0.7801187961954595  1.0000
  H   H10       1.0  0.3625403564156854  0.8656686558942752  0.22036895558500896  1.0000
  H   H11       1.0  0.19146146796197164  0.06140956149700829  0.9081620162906816  1.0000
  H   H12       1.0  0.160677262440423  0.9386805069267438  0.09207167229412513  1.0000
  H   H13       1.0  0.7534905363257778  0.5379599329964436  0.8957488216037249  1.0000
  H   H14       1.0  0.18764824456627585  0.4620290214859182  0.10404547068202419  1.0000
  H   H15       1.0  0.0141871564603661  0.6145446845600662  0.7645278229091305  1.0000
  H   H16       1.0  0.39303054156469847  0.3854265966028977  0.2355577802133837  1.0000
  H   H17       1.0  0.08079983175436907  0.3182158536666933  0.05084117111089629  1.0000
  H   H18       1.0  0.45040682799581305  0.6818848540477591  0.9490431764790301  1.0000
  H   H19       1.0  0.12738630472127  0.25252436287212277  0.22071238292356554  1.0000
  H   H20       1.0  0.6010099999318256  0.747791720039551  0.7791936491471886  1.0000
  H   H21       1.0  0.6623301044017681  0.036959758011605  0.28080016824607407  1.0000
  H   H22       1.0  0.9803894088968054  0.963139164574912  0.719085928607015  1.0000
  H   H23       1.0  0.8420618548139625  0.7841717742986417  0.6114993675419528  1.0000
  H   H24       1.0  0.2373797165005981  0.21599864048894088  0.38853532490423254  1.0000
  H   H25       1.0  0.07708573158240034  0.6643309068102852  0.5773008621438507  1.0000
  H   H26       1.0  0.3184285151818003  0.33573325879877564  0.4228032609823842  1.0000
  C   C1        1.0  0.6484035795062866  0.20911911557962531  0.6088172213320391  1.0000
  C   C2        1.0  0.46659175382293216  0.7907510891451609  0.3912823046406971  1.0000
  C   C3        1.0  0.5967108432781032  0.33766476331406653  0.6768854693505446  1.0000
  C   C4        1.0  0.611231269578162  0.6621211610525536  0.3232390824044415  1.0000
  C   C5        1.0  0.7223507620264937  0.44422820163119786  0.636242595823184  1.0000
  C   C6        1.0  0.8030688231738734  0.5554113346452993  0.363652719722566  1.0000
  C   C7        1.0  0.2474731246077084  0.38147662136427135  0.7645735392930106  1.0000
  C   C8        1.0  0.3930370875860021  0.6185001971720752  0.23569207482935886  1.0000
  C   C9        1.0  0.2983410260248928  0.22504363012883744  0.8045223820834267  1.0000
  C   C10       1.0  0.32729280425584756  0.7750007026876775  0.195817418778006  1.0000
  C   C11       1.0  0.1527900633138657  0.1828610665901849  0.8770314231172592  1.0000
  C   C12       1.0  0.21240185382698226  0.8171889333599155  0.12315383665654171  1.0000
  C   C13       1.0  0.9580855799144175  0.2958740591779616  0.9089244689611106  1.0000
  C   C14       1.0  0.16308930094905352  0.7041340327896322  0.091035479014522  1.0000
  C   C15       1.0  0.9055150812125774  0.451085355122551  0.8689609206764858  1.0000
  C   C16       1.0  0.2256932088716964  0.5488997709338366  0.13100468300452658  1.0000
  C   C17       1.0  0.049714995870672574  0.49380548246628575  0.7964994002626186  1.0000
  C   C18       1.0  0.33981214455592135  0.5061906087711066  0.2036101662184038  1.0000
  C   C19       1.0  0.8403954856350212  0.2211060675264847  0.0715750142157247  1.0000
  C   C20       1.0  0.13358174686888438  0.7789476535737097  0.9282954910169394  1.0000
  C   C21       1.0  0.9861912330353068  0.2606054821748673  0.10277195395848074  1.0000
  C   C22       1.0  0.35006715379675046  0.7394792331041986  0.8971031625175883  1.0000
  C   C23       1.0  0.011643445906557257  0.2236134813556775  0.1974429948520893  1.0000
  C   C24       1.0  0.4331167097751773  0.7765879205193259  0.802451930876188  1.0000
  C   C25       1.0  0.8954792861419207  0.14340834403006397  0.26283302386014634  1.0000
  C   C26       1.0  0.3020693806502593  0.8568250959932444  0.7370728756171374  1.0000
  C   C27       1.0  0.7500823672982618  0.10282593885305862  0.23187712586148015  1.0000
  C   C28       1.0  0.08515833956498405  0.8973563411495391  0.7680105806290598  1.0000
  C   C29       1.0  0.7200954176792679  0.1438962002923105  0.13812435816152657  1.0000
  C   C30       1.0  0.0025618806579001175  0.8562098728206068  0.8617499661569142  1.0000
  C   C31       1.0  0.9360469998014481  0.09324732215564781  0.3606950301998778  1.0000
  C   C32       1.0  0.3902261609620865  0.9069408051481391  0.639199106514326  1.0000
  Cl  Cl1       1.0  0.5343071510214727  0.09945240919183361  0.10220220214649335  1.0000
  Cl  Cl2       1.0  0.7364749830623006  0.9005665334166366  0.897683407815059  1.0000
  O   O1        1.0  0.8312481433776359  0.10616474892414371  0.6061147651465005  1.0000
  O   O2        1.0  0.5439496446178964  0.893548543495676  0.39395765616628603  1.0000
  O   O3        1.0  0.5141778576568399  0.2144085320874893  0.562752894878841  1.0000
  O   O4        1.0  0.2914332349882687  0.7857236161891664  0.4373053769450053  1.0000
  O   O5        1.0  0.3804191452660458  0.4364334323174647  0.6951744699885936  1.0000
  O   O6        1.0  0.5116603510950386  0.5634896871342221  0.30506686597222904  1.0000
  O   O7        1.0  0.808272473386957  0.2531051524277217  0.9796962170473548  1.0000
  O   O8        1.0  0.04153463282788996  0.7468185711770802  0.02013881559982879  1.0000
  O   O9        1.0  0.07310735804506406  0.1238008237797956  0.3894529127663803  1.0000
  O   O10       1.0  0.5865819262092841  0.8763794848714141  0.6103901490065553  1.0000
  O   O11       1.0  0.8432953312429067  0.007574328661270601  0.41986416248779074  1.0000
  O   O12       1.0  0.27087266741318616  0.9925753746694073  0.5800368099019408  1.0000
  O   O13       1.0  0.9933631052986484  0.7655603575443521  0.6037274964426658  1.0000
  O   O14       1.0  0.36231066079080426  0.234528287833335  0.39635093803880034  1.0000
