data_image0
_chemical_formula_structural       Cd2H38C52N6O12
_chemical_formula_sum              "Cd2 H38 C52 N6 O12"
_cell_length_a       10.049978137574083
_cell_length_b       10.540052225695378
_cell_length_c       13.410987228688066
_cell_angle_alpha    80.27728874971687
_cell_angle_beta     64.97428923063755
_cell_angle_gamma    61.65014820666044

_space_group_name_H-M_alt    "P 1"
_space_group_IT_number       1

loop_
  _space_group_symop_operation_xyz
  'x, y, z'

loop_
  _atom_site_type_symbol
  _atom_site_label
  _atom_site_symmetry_multiplicity
  _atom_site_fract_x
  _atom_site_fract_y
  _atom_site_fract_z
  _atom_site_occupancy
  Cd  Cd1       1.0  0.5098709947691589  0.7873019179051751  0.890455299494995  1.0000
  Cd  Cd2       1.0  0.4901228816434369  0.21271408980967269  0.10952901241177662  1.0000
  H   H1        1.0  0.15471321346861097  0.6543361098785282  0.08181962227600073  1.0000
  H   H2        1.0  0.8452723436729529  0.3456684019695047  0.9181773950336158  1.0000
  H   H3        1.0  0.9053259467809699  0.6135805531717223  0.7370879985284017  1.0000
  H   H4        1.0  0.09468674039804628  0.38642241988632975  0.2629088161127341  1.0000
  H   H5        1.0  0.1777865162849325  0.5448563092757723  0.7447290735764296  1.0000
  H   H6        1.0  0.8222169444986279  0.4551601208021411  0.25527680898107247  1.0000
  H   H7        1.0  0.1844481834262552  0.6098835007289691  0.91028107513781  1.0000
  H   H8        1.0  0.8155320371207965  0.3901501523110795  0.08972972019760286  1.0000
  H   H9        1.0  0.6535332009728165  0.7781551925846344  0.058138749243774095  1.0000
  H   H10       1.0  0.34644686429786015  0.22187046885143502  0.9418489825426944  1.0000
  H   H11       1.0  0.5625687028238744  0.8759132684479666  0.4219854531512792  1.0000
  H   H12       1.0  0.43742175479685147  0.12412184167490638  0.5780174887759556  1.0000
  H   H13       1.0  0.6946240026211755  0.8306005698459626  0.5533056102906285  1.0000
  H   H14       1.0  0.3053717699036866  0.16940744889095774  0.4466997858747773  1.0000
  H   H15       1.0  0.9979403778058684  0.7207921798613767  0.4885941059372241  1.0000
  H   H16       1.0  0.0020593859430987974  0.2791829081888082  0.5114057720310256  1.0000
  H   H17       1.0  0.17995732302028244  0.6540543096187078  0.2916762888253145  1.0000
  H   H18       1.0  0.8200379557518289  0.3459230789876599  0.7083225411918119  1.0000
  H   H19       1.0  0.9274117370381985  0.028836088012589304  0.10912428039696925  1.0000
  H   H20       1.0  0.07259393171953833  0.9711867299151393  0.8908668441352742  1.0000
  H   H21       1.0  0.67348934385781  0.1421160473512089  0.2803220852208596  1.0000
  H   H22       1.0  0.32652228012491963  0.8578742262856733  0.7196725691634638  1.0000
  H   H23       1.0  0.9715319929842607  0.11107109443857144  0.44642602861533465  1.0000
  H   H24       1.0  0.028485742724349537  0.888882097506517  0.553575534584631  1.0000
  H   H25       1.0  0.22316293570675344  0.9974400574936695  0.278430442720335  1.0000
  H   H26       1.0  0.7768487418473456  0.002545894818148013  0.7215646156949729  1.0000
  H   H27       1.0  0.7431436789877637  0.405963233199536  0.4076530119428552  1.0000
  H   H28       1.0  0.2568996827803717  0.593993381148941  0.5923543128890002  1.0000
  H   H29       1.0  0.6795417924358133  0.5874424752659451  0.539978402053073  1.0000
  H   H30       1.0  0.3204847225667892  0.41252756013520997  0.46002546809364725  1.0000
  H   H31       1.0  0.4742019279054475  0.3621321516414254  0.8104258490535583  1.0000
  H   H32       1.0  0.5258117682742095  0.6378477590976458  0.18957811972430957  1.0000
  H   H33       1.0  0.5409300389042216  0.17909380217763268  0.677723028639974  1.0000
  H   H34       1.0  0.45908075751565053  0.820885281654462  0.32229313508295093  1.0000
  H   H35       1.0  0.4160712324087542  0.0749214496283273  0.811313219498224  1.0000
  H   H36       1.0  0.583908863689615  0.9251040469323115  0.18869169030084265  1.0000
  H   H37       1.0  0.5630200341744214  0.0311151800133871  0.8504539629892419  1.0000
  H   H38       1.0  0.43697137167365724  0.968905513259159  0.1495403781995889  1.0000
  C   C1        1.0  0.9130619005760968  0.6365672895299921  0.8102555083039601  1.0000
  C   C2        1.0  0.08694423979095946  0.36343770290777394  0.18974466968369794  1.0000
  C   C3        1.0  0.06295389138179536  0.600931883607636  0.8145131852595922  1.0000
  C   C4        1.0  0.9370478895103957  0.3990814592221597  0.18549128859563507  1.0000
  C   C5        1.0  0.0663655151545158  0.6354133587070335  0.9088764005388723  1.0000
  C   C6        1.0  0.9336174364407909  0.3646087486549376  0.09113017769299596  1.0000
  C   C7        1.0  0.9170237165837704  0.7016473682726171  0.999794681174279  1.0000
  C   C8        1.0  0.08295301867853776  0.29837406043535697  0.00020795293789887298  1.0000
  C   C9        1.0  0.7720400859286088  0.7301636392351438  0.9894888876573872  1.0000
  C   C10       1.0  0.22794322293135144  0.2698536094305907  0.010510585123768075  1.0000
  C   C11       1.0  0.9036744940624287  0.7328091867168922  0.10638708483251222  1.0000
  C   C12       1.0  0.09630616410633767  0.2672131256393228  0.8936172110986715  1.0000
  C   C13       1.0  0.7988768136508498  0.7842649512961228  0.2821513821726994  1.0000
  C   C14       1.0  0.2011082522976295  0.21575522256081564  0.7178517305101693  1.0000
  C   C15       1.0  0.695902678909974  0.8272273301755247  0.3931135167361786  1.0000
  C   C16       1.0  0.304082256269986  0.17279732706339243  0.6068869607162595  1.0000
  C   C17       1.0  0.7705580423322972  0.802941710501706  0.465889955688297  1.0000
  C   C18       1.0  0.22943367757089564  0.19706780132538884  0.5341106017100257  1.0000
  C   C19       1.0  0.9433223621888873  0.7400900841514683  0.42916958950902256  1.0000
  C   C20       1.0  0.056677266578340414  0.2598979138549566  0.570829820099412  1.0000
  C   C21       1.0  0.047360386993311514  0.7000689710381636  0.31896608995439374  1.0000
  C   C22       1.0  0.9526375876149231  0.2999158857011679  0.6810326546849195  1.0000
  C   C23       1.0  0.9725825952175031  0.7217101559971154  0.24645546690382467  1.0000
  C   C24       1.0  0.027407548777141258  0.2782939458624226  0.7535461150071611  1.0000
  C   C25       1.0  0.2437249023442123  0.9281829408377859  0.08331409122275342  1.0000
  C   C26       1.0  0.7562757545783966  0.0718263480395009  0.9166724675005181  1.0000
  C   C27       1.0  0.09275278885986891  0.004058343933259305  0.18244465182950614  1.0000
  C   C28       1.0  0.9072519485234027  0.9959451845477573  0.8175464059586866  1.0000
  C   C29       1.0  0.9370128701117937  0.046207483407030694  0.18320632548230956  1.0000
  C   C30       1.0  0.06298855158035364  0.9538045090447724  0.8167871943912102  1.0000
  C   C31       1.0  0.7953079988535592  0.11005709668869908  0.27754438774285706  1.0000
  C   C32       1.0  0.20469750961908784  0.889936495505445  0.7224503808896682  1.0000
  C   C33       1.0  0.8093339176790194  0.1325236620553625  0.3716561928737292  1.0000
  C   C34       1.0  0.19067407066666692  0.86745670715036  0.6283428138855811  1.0000
  C   C35       1.0  0.9628201060161816  0.09391774799935597  0.3719875016900286  1.0000
  C   C36       1.0  0.037194000999505865  0.906052982718414  0.6280097656681108  1.0000
  C   C37       1.0  0.10361995401757444  0.029802382536459508  0.27743750606931866  1.0000
  C   C38       1.0  0.8963910595899027  0.9701848634120933  0.7225546495636264  1.0000
  C   C39       1.0  0.6443774853585965  0.2832789721208542  0.5357697434268545  1.0000
  C   C40       1.0  0.35563911778276497  0.7166974413816047  0.46423738125010744  1.0000
  C   C41       1.0  0.68537970987569  0.39684973609706725  0.4959380060176171  1.0000
  C   C42       1.0  0.31464535261375204  0.603125152459512  0.5040733158957664  1.0000
  C   C43       1.0  0.6483807163203607  0.4983338573987907  0.5697071448058322  1.0000
  C   C44       1.0  0.35163030238242504  0.5016532776932934  0.43030144510657187  1.0000
  C   C45       1.0  0.5697395204511795  0.48775580078757486  0.6835520015920833  1.0000
  C   C46       1.0  0.43026586866808003  0.5122295240706974  0.3164533157835478  1.0000
  C   C47       1.0  0.5296856016653139  0.3729953929767689  0.721987020793456  1.0000
  C   C48       1.0  0.47031652638750654  0.6269919678836543  0.27802062098083963  1.0000
  C   C49       1.0  0.5675701459783655  0.2704164003012791  0.6486190924096319  1.0000
  C   C50       1.0  0.43243545005326217  0.7295663857616715  0.35139163311352206  1.0000
  C   C51       1.0  0.541256465706475  0.5907481121807762  0.7627221315390215  1.0000
  C   C52       1.0  0.45874091793906047  0.4092463027126527  0.23727810838798993  1.0000
  N   N1        1.0  0.769256832744887  0.7002319575638719  0.8974592741013293  1.0000
  N   N2        1.0  0.2307419435226024  0.29977456536059316  0.10253636033395708  1.0000
  N   N3        1.0  0.03461562303431272  0.6916187033245007  0.13467120785345793  1.0000
  N   N4        1.0  0.9653710529815315  0.3083899733325026  0.8653272903086695  1.0000
  N   N5        1.0  0.7606320809504514  0.7906371560964585  0.19314292153843826  1.0000
  N   N6        1.0  0.23935023032400693  0.2093904041704064  0.8068625810795284  1.0000
  O   O1        1.0  0.5238573102878732  0.9928040650667356  0.8104585178167054  1.0000
  O   O2        1.0  0.47611712838798337  0.007223888566187505  0.18954345914774948  1.0000
  O   O3        1.0  0.2303625273719805  0.8938274071457782  0.0022965225936317033  1.0000
  O   O4        1.0  0.7696265110123335  0.10618733324723452  0.9976916799421144  1.0000
  O   O5        1.0  0.38610787320885015  0.8955886448407923  0.08033481764551441  1.0000
  O   O6        1.0  0.6139030507330362  0.10441362052608129  0.9196424645321171  1.0000
  O   O7        1.0  0.6669572158183785  0.1854054230183664  0.46616530314467025  1.0000
  O   O8        1.0  0.3330595191448111  0.8145644004585506  0.5338439150450609  1.0000
  O   O9        1.0  0.46740248272803336  0.5824636719929401  0.865976105207373  1.0000
  O   O10       1.0  0.5326311616227812  0.4175116390229404  0.13402724004635755  1.0000
  O   O11       1.0  0.5970117630450674  0.6839396048672766  0.7230751449583294  1.0000
  O   O12       1.0  0.40295256739024415  0.31607619922660746  0.2769192612123205  1.0000
