data_image0
_chemical_formula_structural       Cu2H14C20N6O8
_chemical_formula_sum              "Cu2 H14 C20 N6 O8"
_cell_length_a       7.455371479512016
_cell_length_b       7.454883521134531
_cell_length_c       10.107189624571792
_cell_angle_alpha    90.89300025159513
_cell_angle_beta     90.89560335060418
_cell_angle_gamma    116.42084200014438

_space_group_name_H-M_alt    "P 1"
_space_group_IT_number       1

loop_
  _space_group_symop_operation_xyz
  'x, y, z'

loop_
  _atom_site_type_symbol
  _atom_site_label
  _atom_site_symmetry_multiplicity
  _atom_site_fract_x
  _atom_site_fract_y
  _atom_site_fract_z
  _atom_site_occupancy
  Cu  Cu1       1.0  0.3157823475255768  0.4976029434247238  0.818996386530699  1.0000
  Cu  Cu2       1.0  0.4976054198399495  0.31578411316397154  0.3189981168202819  1.0000
  H   H1        1.0  0.7859167704429949  0.06859479490164229  0.8294101881089514  1.0000
  H   H2        1.0  0.06858886128389938  0.7859112860004487  0.3294118181113318  1.0000
  H   H3        1.0  0.9742317584458533  0.5155532842344286  0.6358054244585813  1.0000
  H   H4        1.0  0.5155882128949543  0.9742563069786814  0.13581636046072273  1.0000
  H   H5        1.0  0.8163891170809092  0.7465085391788903  0.694137105195196  1.0000
  H   H6        1.0  0.7465408213510755  0.8164032328046532  0.19414282809486139  1.0000
  H   H7        1.0  0.27205307842289966  0.8383448601878243  0.9839980346791459  1.0000
  H   H8        1.0  0.8383259038931641  0.27204987724147867  0.4840279616388654  1.0000
  H   H9        1.0  0.8311393831117541  0.3168554049421317  0.008163848251015795  1.0000
  H   H10       1.0  0.31678324429141463  0.8310926395997598  0.5081797063697165  1.0000
  H   H11       1.0  0.5359905469952864  0.004149631614602404  0.6466029763213609  1.0000
  H   H12       1.0  0.004188111840505857  0.5360410011171909  0.14658229911309203  1.0000
  H   H13       1.0  0.9947566141149977  0.9664239140199911  0.9064572346829816  1.0000
  H   H14       1.0  0.9664313238560069  0.9947603845404632  0.40647910932250386  1.0000
  C   C1        1.0  0.6946914377428469  0.14880740274157486  0.8281755139742939  1.0000
  C   C2        1.0  0.14879302686318846  0.6946798117763465  0.3281779999630387  1.0000
  C   C3        1.0  0.01926112194523454  0.6197524023996552  0.7194112307158773  1.0000
  C   C4        1.0  0.6197774160397387  0.019273130919330608  0.2194256199067793  1.0000
  C   C5        1.0  0.6054538591379739  0.39317972979670673  0.923122454094283  1.0000
  C   C6        1.0  0.3931453613860825  0.6054175641755251  0.4231342262666116  1.0000
  C   C7        1.0  0.44043028723133665  0.21797764646662188  0.7277255033591457  1.0000
  C   C8        1.0  0.21799585973847255  0.4404474126371269  0.2277046805205244  1.0000
  C   C9        1.0  0.1680586608735694  0.7890139932015002  0.900305121499954  1.0000
  C   C10       1.0  0.7890139258023012  0.16806288908559  0.40033136268379355  1.0000
  C   C11       1.0  0.720659322844547  0.28919856326619  0.9291605300333213  1.0000
  C   C12       1.0  0.2891546900825047  0.7206227525262603  0.429172307478815  1.0000
  C   C13       1.0  0.5548587388549394  0.11262694387909991  0.7253784391742283  1.0000
  C   C14       1.0  0.11264324264067223  0.5548751225013787  0.2253656086301773  1.0000
  C   C15       1.0  0.6160908836027941  0.5591001031035036  0.014814575976558294  1.0000
  C   C16       1.0  0.5590411195806624  0.6160540359076663  0.5148396999002356  1.0000
  C   C17       1.0  0.028702917820751687  0.8522548801035655  0.861699758594781  1.0000
  C   C18       1.0  0.8522711294428117  0.028717498283363296  0.3617199623167479  1.0000
  C   C19       1.0  0.2776536210155029  0.19970428167628998  0.6297902314864599  1.0000
  C   C20       1.0  0.19976447514392248  0.2776919398012083  0.12975980660400666  1.0000
  N   N1        1.0  0.16115044935657602  0.6438424900215763  0.8106829925529977  1.0000
  N   N2        1.0  0.6438536444806219  0.1611548464172827  0.31070298573576577  1.0000
  N   N3        1.0  0.9369785618053399  0.7436366194822313  0.747871620117756  1.0000
  N   N4        1.0  0.7436587089237178  0.9369906569969401  0.24788592278220273  1.0000
  N   N5        1.0  0.4701999306503097  0.35321500642688625  0.8244445626432433  1.0000
  N   N6        1.0  0.3532080311436587  0.47019538498499713  0.3244379088297648  1.0000
  O   O1        1.0  0.19040228860193048  0.31256520891710676  0.6574129406924168  1.0000
  O   O2        1.0  0.3126292810837938  0.19044734976562697  0.15737526024913953  1.0000
  O   O3        1.0  0.23763256688747694  0.08521086499044368  0.5310172401777107  1.0000
  O   O4        1.0  0.08528152572478835  0.23767361851914617  0.03097774796007969  1.0000
  O   O5        1.0  0.5013587564997408  0.6406049005999821  0.9818686461607836  1.0000
  O   O6        1.0  0.6405395416523731  0.5013082451097688  0.4818999057139734  1.0000
  O   O7        1.0  0.7314811367379477  0.6093354644100302  0.11498535878396854  1.0000
  O   O8        1.0  0.6092686063971015  0.7314432340609754  0.6150052807748094  1.0000
