data_image0
_chemical_formula_structural       Dy4H40C24O38
_chemical_formula_sum              "Dy4 H40 C24 O38"
_cell_length_a       8.82066518
_cell_length_b       9.727608773477778
_cell_length_c       15.0434
_cell_angle_alpha    90.0
_cell_angle_beta     90.0
_cell_angle_gamma    116.96095602915148

_space_group_name_H-M_alt    "P 1"
_space_group_IT_number       1

loop_
  _space_group_symop_operation_xyz
  'x, y, z'

loop_
  _atom_site_type_symbol
  _atom_site_label
  _atom_site_symmetry_multiplicity
  _atom_site_fract_x
  _atom_site_fract_y
  _atom_site_fract_z
  _atom_site_occupancy
  Dy  Dy1       1.0  0.618562084763127  0.2373808648331206  0.9999833814164345  1.0000
  Dy  Dy2       1.0  0.38143727578196257  0.7626202540348929  0.49998404615977415  1.0000
  Dy  Dy3       1.0  0.9965890100198393  0.9999803585090206  0.7500292487070721  1.0000
  Dy  Dy4       1.0  0.0034109075496928996  1.96070057115e-05  0.2500285839637328  1.0000
  H   H1        1.0  0.7497043618800346  0.6147903510666454  0.8763510908438261  1.0000
  H   H2        1.0  0.2502944416406123  0.3852119211546494  0.3763517555871657  1.0000
  H   H3        1.0  0.1350578598516847  0.3855671539640682  0.6235824348219126  1.0000
  H   H4        1.0  0.8649426343947509  0.6144339649039452  0.12358309956525908  1.0000
  H   H5        1.0  0.8934055763003597  0.5889125635832286  0.8026616323437492  1.0000
  H   H6        1.0  0.10659436092163328  0.4110897086380589  0.3026609676004098  1.0000
  H   H7        1.0  0.3045102472451759  0.4111531430683115  0.6972778760120732  1.0000
  H   H8        1.0  0.6954890936474597  0.5888456690931463  0.19727854075541265  1.0000
  H   H9        1.0  0.5977264716124181  0.3664041892612602  0.7240690269486973  1.0000
  H   H10       1.0  0.4022740226340176  0.6335969296067532  0.22406902694869754  1.0000
  H   H11       1.0  0.2320487904930104  0.6339325554104605  0.775936955741386  1.0000
  H   H12       1.0  0.767956238558817  0.36606856345756  0.2759356262547  1.0000
  H   H13       1.0  0.5262348787869228  0.4619018406240301  0.8024110241035913  1.0000
  H   H14       1.0  0.4737633284043595  0.5380969715374349  0.3024116888469379  1.0000
  H   H15       1.0  0.0648804632262099  0.5383783897370975  0.6977039764946722  1.0000
  H   H16       1.0  0.9351234321242643  0.4616227291309158  0.19770198226464686  1.0000
  H   H17       1.0  0.4036795116313101  0.8291053037064771  0.8816231702939488  1.0000
  H   H18       1.0  0.5963232500178179  0.1708958151615363  0.3816244997806351  1.0000
  H   H19       1.0  0.574558274677301  0.1708750548025435  0.6183130143451618  1.0000
  H   H20       1.0  0.42544108586778856  0.8291260640654698  0.11831301434516207  1.0000
  H   H21       1.0  0.5155664279672791  0.7661910357815032  0.9595829400268554  1.0000
  H   H22       1.0  0.4844317792240034  0.23380777637995462  0.4595829400268555  1.0000
  H   H23       1.0  0.7495814702140392  0.23382969009222174  0.540495499687573  1.0000
  H   H24       1.0  0.2504178706785964  0.7661691220692362  0.040495499687573  1.0000
  H   H25       1.0  0.19229135354166968  0.1462105949668882  0.583844077801558  1.0000
  H   H26       1.0  0.8077062769727092  0.8537870638412954  0.0838434130582186  1.0000
  H   H27       1.0  0.04619258122278321  0.8537559233028063  0.9161432920749275  1.0000
  H   H28       1.0  0.9538067989747602  0.1462475022717626  0.41614329207492756  1.0000
  H   H29       1.0  0.16510761464264329  0.9756422976508433  0.59630868021857  1.0000
  H   H30       1.0  0.8348905728961853  0.0243542078040591  0.09630735073188387  1.0000
  H   H31       1.0  0.18950264006245024  0.0243426742712884  0.9036727069678392  1.0000
  H   H32       1.0  0.8104978541839856  0.9756584445967249  0.4036733717111787  1.0000
  H   H33       1.0  0.6893973174422001  0.746018886961032  0.7456126939388665  1.0000
  H   H34       1.0  0.3106031571517747  0.2539799252004258  0.2456140234255528  1.0000
  H   H35       1.0  0.9432939431921952  0.2538945770578991  0.7544072483614099  1.0000
  H   H36       1.0  0.056706551054240606  0.7461065418101143  0.2544065836180635  1.0000
  H   H37       1.0  0.7136486741734984  0.7894403311458831  0.646056742491723  1.0000
  H   H38       1.0  0.2863535304511871  0.2105619410754045  0.1460574072350695  1.0000
  H   H39       1.0  0.9241608936859221  0.2106311422720495  0.8539731709586957  1.0000
  H   H40       1.0  0.07583844720670635  0.7893676698894154  0.3539725062153494  1.0000
  C   C1        1.0  0.9291511307072469  0.5601640797925498  0.9426279963306141  1.0000
  C   C2        1.0  0.07084309870308658  0.4398335790156338  0.4426279963306143  1.0000
  C   C3        1.0  0.36901566199898644  0.4398381924287379  0.5572928992116173  1.0000
  C   C4        1.0  0.6309825255398351  0.5601583130261645  0.05729356395495699  1.0000
  C   C5        1.0  0.8165020128518705  0.5444600215684545  0.8630794900089069  1.0000
  C   C6        1.0  0.18349734769321907  0.4555410972995659  0.3630794900089071  1.0000
  C   C7        1.0  0.2722085864007227  0.45570256675839  0.6368633420636269  1.0000
  C   C8        1.0  0.7277924845226167  0.5442997054629046  0.1368633420636272  1.0000
  C   C9        1.0  0.5608369622386249  0.3668032494952129  0.7940053445364725  1.0000
  C   C10       1.0  0.43916522273360664  0.6331967160195191  0.2940066740231585  1.0000
  C   C11       1.0  0.19459588006812814  0.6334723674528036  0.706024568913939  1.0000
  C   C12       1.0  0.8054068815810069  0.3665287514152098  0.20602390417059974  1.0000
  C   C13       1.0  0.40420160863118326  0.2190575413162037  0.8167169655795872  1.0000
  C   C14       1.0  0.5958017100423874  0.7809424241985283  0.3167163008362478  1.0000
  C   C15       1.0  0.1856031224225774  0.7811500277884491  0.6833122831274847  1.0000
  C   C16       1.0  0.8143990625496471  0.21884993772629002  0.1833122831274849  1.0000
  C   C17       1.0  0.5061795955744373  0.8666827068350997  0.9317122459018561  1.0000
  C   C18       1.0  0.4938214556964411  0.1333172586796323  0.43171224590185625  1.0000
  C   C19       1.0  0.6396653121857625  0.1333149519730767  0.5683176675485626  1.0000
  C   C20       1.0  0.36033289500552  0.8666838601883811  0.0683176675485626  1.0000
  C   C21       1.0  0.6744861380969597  0.971149986635652  0.888709334326016  1.0000
  C   C22       1.0  0.32551377947257265  0.0288499788790872  0.38870734009599056  1.0000
  C   C23       1.0  0.7034677113634444  0.0288511322323615  0.6113531515481865  1.0000
  C   C24       1.0  0.29653107250474153  0.9711488332823706  0.11135182206150057  1.0000
  O   O1        1.0  0.8921280253527684  0.4401576712865634  0.990142520972654  1.0000
  O   O2        1.0  0.1078713548447752  0.5598457542880055  0.4901431857159934  1.0000
  O   O3        1.0  0.4523335404865492  0.5598538277609464  0.5098355424970435  1.0000
  O   O4        1.0  0.547663552655841  0.440147291107067  0.0098382014704157  1.0000
  O   O5        1.0  0.04772149692905709  0.692624396987128  0.9572450376909456  1.0000
  O   O6        1.0  0.9522807470005431  0.3073824886472707  0.4572443729476063  1.0000
  O   O7        1.0  0.3547138379592667  0.3072809935588623  0.5426100482603642  1.0000
  O   O8        1.0  0.6452849655613804  0.6927212786624253  0.042610713003711  1.0000
  O   O9        1.0  0.6947166976420788  0.3860757827593702  0.8530757674461851  1.0000
  O   O10       1.0  0.3052838162568108  0.6139276428151987  0.3530764321895319  1.0000
  O   O11       1.0  0.3090324089738843  0.6141283262854529  0.6468737120597723  1.0000
  O   O12       1.0  0.6909697759983402  0.3858716392292791  0.14687371205977223  1.0000
  O   O13       1.0  0.4038772111078757  0.1515067932163774  0.8894644827632019  1.0000
  O   O14       1.0  0.5961227064616565  0.8484931722983617  0.38946647699323467  1.0000
  O   O15       1.0  0.2526576271223462  0.8486200411588669  0.610506933273065  1.0000
  O   O16       1.0  0.7473422904471931  0.1513799243558722  0.11050560378637897  1.0000
  O   O17       1.0  0.2825503389623094  0.1755426755158922  0.7624180703830277  1.0000
  O   O18       1.0  0.7174490019303192  0.8244561366455656  0.2624207293563926  1.0000
  O   O19       1.0  0.1074930690480898  0.8246948807739756  0.737623143704212  1.0000
  O   O20       1.0  0.8925068485214425  0.1753050847407636  0.23762048473084715  1.0000
  O   O21       1.0  0.47661564039255205  0.9536593841849738  0.9999647686028437  1.0000
  O   O22       1.0  0.5233820097742878  0.0463405813297655  0.49996543334618326  1.0000
  O   O23       1.0  0.7437160816573324  0.1139801376319483  0.9100156879428878  1.0000
  O   O24       1.0  0.2562860836624381  0.8860175211762282  0.41001435845620177  1.0000
  O   O25       1.0  0.6300342979935678  0.886055581834384  0.5899710171902655  1.0000
  O   O26       1.0  0.3699661766004141  0.1139432303270738  0.0899716819336049  1.0000
  O   O27       1.0  0.7364284028890324  0.9110960348384509  0.8342136751000451  1.0000
  O   O28       1.0  0.263575433504073  0.0888981639098958  0.33421168087001246  1.0000
  O   O29       1.0  0.8253216070875594  0.08889701055662161  0.6659259210019002  1.0000
  O   O30       1.0  0.17467546640236972  0.9111018016048433  0.16592392677187454  1.0000
  O   O31       1.0  0.10657129882415008  0.0413142677471683  0.6046312668678623  1.0000
  O   O32       1.0  0.893426312037775  0.9586810843544598  0.1046306021245229  1.0000
  O   O33       1.0  0.0652792016765389  0.9586361035766444  0.895393328635812  1.0000
  O   O34       1.0  0.9347201588685506  0.041365015291376  0.395391999149126  1.0000
  O   O35       1.0  0.7665357247906641  0.7572906085403659  0.6961145751625322  1.0000
  O   O36       1.0  0.23346421243132906  0.24271166368092884  0.19611523990587185  1.0000
  O   O37       1.0  0.009178150875975222  0.24268167649572092  0.8039199914912841  1.0000
  O   O38       1.0  0.9908229003949103  0.7573182890190182  0.3039206562346307  1.0000
