data_image0
_chemical_formula_structural       Cu8H56C60N16
_chemical_formula_sum              "Cu8 H56 C60 N16"
_cell_length_a       7.2222667912280265
_cell_length_b       14.06115955319222
_cell_length_c       16.171
_cell_angle_alpha    68.65218767716793
_cell_angle_beta     80.65672331901678
_cell_angle_gamma    81.62539196211738

_space_group_name_H-M_alt    "P 1"
_space_group_IT_number       1

loop_
  _space_group_symop_operation_xyz
  'x, y, z'

loop_
  _atom_site_type_symbol
  _atom_site_label
  _atom_site_symmetry_multiplicity
  _atom_site_fract_x
  _atom_site_fract_y
  _atom_site_fract_z
  _atom_site_occupancy
  Cu  Cu1       1.0  0.6687321444874783  0.0608236082540898  0.1612198722055496  1.0000
  Cu  Cu2       1.0  0.3312790725159188  0.9391730223375205  0.838775866747369  1.0000
  Cu  Cu3       1.0  0.7620239929504675  0.397737602879964  0.9366711780509435  1.0000
  Cu  Cu4       1.0  0.23796664981686894  0.6022643965534087  0.06332991880138646  1.0000
  Cu  Cu5       1.0  0.04304459952741271  0.5752491518144467  0.6338687671966882  1.0000
  Cu  Cu6       1.0  0.9569492478781639  0.4247505466867381  0.3661322072245953  1.0000
  Cu  Cu7       1.0  0.19661266544501638  0.896590437438249  0.40181811595689965  1.0000
  Cu  Cu8       1.0  0.8034012252733047  0.103406960130755  0.5981796599196585  1.0000
  H   H1        1.0  0.3416486562351294  0.9654619394846338  0.03877693214662507  1.0000
  H   H2        1.0  0.6583555446538867  0.0345346911069839  0.9612298281777285  1.0000
  H   H3        1.0  0.041365995176533894  0.0752197739341938  0.0463782340063403  1.0000
  H   H4        1.0  0.9586384711741472  0.9247753227026294  0.953628374227094  1.0000
  H   H5        1.0  0.8304365247399941  0.8622551604536355  0.2833736097616039  1.0000
  H   H6        1.0  0.1695516338594985  0.1377368682736133  0.7166264945394545  1.0000
  H   H7        1.0  0.12312022444532997  0.7427654513539822  0.28706209820431644  1.0000
  H   H8        1.0  0.8768703424074217  0.2572288783054475  0.7129346295927804  1.0000
  H   H9        1.0  0.3990989064731138  0.7060433407201145  0.14898994049274708  1.0000
  H   H10       1.0  0.6008996815244102  0.2939532898714958  0.8510135164662103  1.0000
  H   H11       1.0  0.47476927881866965  0.7403410358124418  0.23199012086699608  1.0000
  H   H12       1.0  0.5252353202628441  0.2596532938469878  0.7680136285617181  1.0000
  H   H13       1.0  0.5660408123091186  0.8484004808134956  0.02914623298876508  1.0000
  H   H14       1.0  0.4339508923048497  0.1515953828007213  0.9708536371089239  1.0000
  H   H15       1.0  0.637971136905051  0.8845090095323871  0.11271943083586673  1.0000
  H   H16       1.0  0.3620196385931179  0.1154922229235851  0.8872812807755325  1.0000
  H   H17       1.0  0.9039145226772972  0.7830540068686461  0.0678741978619398  1.0000
  H   H18       1.0  0.0960806711349136  0.2169541283838754  0.9321221532462404  1.0000
  H   H19       1.0  0.8071288047315972  0.7028442780109148  0.1726655349858602  1.0000
  H   H20       1.0  0.19288095223268434  0.2971607893320254  0.8273319680535637  1.0000
  H   H21       1.0  0.8457079931076448  0.7593498035383703  0.9255578721025657  1.0000
  H   H22       1.0  0.15429962106502867  0.2406514289176087  0.07444161856800238  1.0000
  H   H23       1.0  0.8258078316098361  0.6227043440960145  0.8631570131867222  1.0000
  H   H24       1.0  0.17419504197089705  0.3772999562695318  0.13684185011900507  1.0000
  H   H25       1.0  0.6554849454580489  0.4185157874532024  0.11329498470834667  1.0000
  H   H26       1.0  0.344523066907115  0.5814831440705959  0.8867058238031973  1.0000
  H   H27       1.0  0.6747558393002178  0.5441535873409009  0.18682702569466872  1.0000
  H   H28       1.0  0.3252571223023039  0.4558491790698582  0.8131709733046506  1.0000
  H   H29       1.0  0.3684935215943738  0.4976870289198346  0.35659996174754843  1.0000
  H   H30       1.0  0.631511020670892  0.5023157374909246  0.6434023580678668  1.0000
  H   H31       1.0  0.22805165088369958  0.6071446737096409  0.44655267093758505  1.0000
  H   H32       1.0  0.7719555650964904  0.392858859678512  0.5534492122376803  1.0000
  H   H33       1.0  0.19617108061042643  0.3564197637029309  0.6812621795602142  1.0000
  H   H34       1.0  0.8038129442350196  0.6435799347982538  0.31873703351276117  1.0000
  H   H35       1.0  0.3500361133093648  0.2366485738997852  0.6020251048311991  1.0000
  H   H36       1.0  0.6499467737748645  0.7633495906466125  0.3979740578959224  1.0000
  H   H37       1.0  0.5495478331441959  0.22911532193867862  0.4586138691791036  1.0000
  H   H38       1.0  0.45044995846834723  0.7708859105172934  0.5413857153159968  1.0000
  H   H39       1.0  0.3175183992861433  0.2348776230976881  0.434554500961454  1.0000
  H   H40       1.0  0.6824818005796656  0.7651259102904646  0.5654423254206337  1.0000
  H   H41       1.0  0.6270333981969997  0.365769218132364  0.3118820992816254  1.0000
  H   H42       1.0  0.37297127679909187  0.6342327813010016  0.6881198352928521  1.0000
  H   H43       1.0  0.3879233578850786  0.3849344492466145  0.290599128401702  1.0000
  H   H44       1.0  0.612079913888145  0.6150675501867582  0.7093985791812187  1.0000
  H   H45       1.0  0.4030634118330028  0.2050690466908023  0.29482635050252537  1.0000
  H   H46       1.0  0.5969397272093886  0.7949337197199569  0.7051717423213332  1.0000
  H   H47       1.0  0.5585937752943835  0.2796345889081593  0.20728755771745003  1.0000
  H   H48       1.0  0.4414173848927732  0.7203704784347877  0.7927086067950101  1.0000
  H   H49       1.0  0.9080412841101192  0.2521706623938726  0.21624750292078693  1.0000
  H   H50       1.0  0.09196598868631156  0.7478244342429576  0.7837551914768355  1.0000
  H   H51       1.0  0.16999997955626608  0.1171534959583838  0.2730468562076922  1.0000
  H   H52       1.0  0.8300015476178331  0.8828423676558401  0.7269560120201887  1.0000
  H   H53       1.0  0.8054426567375259  0.9360238131589114  0.4732467832279354  1.0000
  H   H54       1.0  0.19455346619048436  0.0639789532518478  0.5267542918850553  1.0000
  H   H55       1.0  0.5262707593817808  0.0588079916634001  0.4204170380887433  1.0000
  H   H56       1.0  0.4737311091685612  0.9411940077699726  0.5795813896301922  1.0000
  C   C1        1.0  0.4945558330375802  0.9912584571449727  0.2504174116851632  1.0000
  C   C2        1.0  0.5054329323998132  0.0087381734466376  0.7495867574892755  1.0000
  C   C3        1.0  0.7214736939439701  0.2693402183296598  0.017105255815806707  1.0000
  C   C4        1.0  0.2785237562923371  0.7306548783071635  0.9828969140153988  1.0000
  C   C5        1.0  0.9282079442053115  0.5057080785033463  0.7451839423316214  1.0000
  C   C6        1.0  0.07177367238687539  0.4942893190656577  0.2548198840272065  1.0000
  C   C7        1.0  0.11845618610868767  0.7820492664828722  0.4928488813299054  1.0000
  C   C8        1.0  0.881540941849714  0.2179558008600679  0.5071445902875668  1.0000
  C   C9        1.0  0.23343971367622623  0.9386844577377218  0.09491217765019401  1.0000
  C   C10       1.0  0.7665665540898203  0.0613083379669206  0.9050937915063102  1.0000
  C   C11       1.0  0.06592449690999298  0.0006342903046033  0.09836404035711153  1.0000
  C   C12       1.0  0.9340803676331716  0.9993585054000392  0.9016377018078359  1.0000
  C   C13       1.0  0.9480945942692216  0.8816711931756274  0.2304862406240176  1.0000
  C   C14       1.0  0.051900049521329095  0.11832390346119583  0.7695148959154354  1.0000
  C   C15       1.0  0.11125981448400069  0.8157678936429349  0.23187699532724798  1.0000
  C   C16       1.0  0.8887358343369343  0.1842295039260691  0.7681251951899386  1.0000
  C   C17       1.0  0.25968727367505545  0.8432870425295746  0.16260751434187884  1.0000
  C   C18       1.0  0.7403056255163774  0.1567019182880998  0.8373932173240135  1.0000
  C   C19       1.0  0.4358802079980038  0.7717702354522517  0.16322276266868835  1.0000
  C   C20       1.0  0.5641228551298026  0.2282248611845716  0.8367802369641384  1.0000
  C   C21       1.0  0.6034657502095513  0.8189125009571826  0.09797853995257105  1.0000
  C   C22       1.0  0.39653077091094246  0.1810879645213959  0.9020213794376133  1.0000
  C   C23       1.0  0.7795457361834152  0.7419670278871209  0.10276792422644115  1.0000
  C   C24       1.0  0.22045599963609414  0.2580357385236383  0.8972296519515411  1.0000
  C   C25       1.0  0.7634099809045194  0.6632183909644311  0.06233984024070343  1.0000
  C   C26       1.0  0.2365972350756707  0.3367851424237287  0.9376577141979325  1.0000
  C   C27       1.0  0.8033587397604618  0.6844682666348021  0.9699372645267134  1.0000
  C   C28       1.0  0.19664566977397158  0.31553526675335064  0.030060493402068292  1.0000
  C   C29       1.0  0.7918034754873273  0.6093014141407807  0.9345914444981034  1.0000
  C   C30       1.0  0.20819712257097212  0.3906998183151984  0.0654066997249672  1.0000
  C   C31       1.0  0.697222161631636  0.4951176546508762  0.07416522672799179  1.0000
  C   C32       1.0  0.3027924686554185  0.5048835778050957  0.9258362287810159  1.0000
  C   C33       1.0  0.7064756112745058  0.5660063072427377  0.11447224966492797  1.0000
  C   C34       1.0  0.29353901901254886  0.4339949252132342  0.8855267322802901  1.0000
  C   C35       1.0  0.3344282816031381  0.4623539143459894  0.42860545450363213  1.0000
  C   C36       1.0  0.6655709132322867  0.5376473181099826  0.5713946466373444  1.0000
  C   C37       1.0  0.25491362369734105  0.5241462150483471  0.47821767497467965  1.0000
  C   C38       1.0  0.7450824992306692  0.475856551362412  0.5217834001383113  1.0000
  C   C39       1.0  0.2391914376839566  0.3844405158050535  0.6092312951809477  1.0000
  C   C40       1.0  0.7607997360067031  0.6155584157187377  0.3907676423166961  1.0000
  C   C41       1.0  0.32150277692751666  0.3183017542124915  0.5648660528135281  1.0000
  C   C42       1.0  0.6784881313014777  0.6816987112660868  0.4351330367750351  1.0000
  C   C43       1.0  0.36637035181917804  0.35621958260316694  0.4715652578186821  1.0000
  C   C44       1.0  0.6336230973939152  0.6437824168301988  0.5284350171525602  1.0000
  C   C45       1.0  0.4353521797994872  0.2818281442541917  0.4238064045384391  1.0000
  C   C46       1.0  0.5646454790822302  0.718173855179174  0.57619480197949  1.0000
  C   C47       1.0  0.4975820076848051  0.327164177996913  0.32377571987564124  1.0000
  C   C48       1.0  0.502421396819244  0.672837054459059  0.6762253128120291  1.0000
  C   C49       1.0  0.5319364711416412  0.2442915036281974  0.280370597755315  1.0000
  C   C50       1.0  0.4680711430310323  0.7557097288277816  0.7196264193514568  1.0000
  C   C51       1.0  0.6936325837492987  0.1668076124277462  0.313612860030247  1.0000
  C   C52       1.0  0.306366345624461  0.8331951539830201  0.6863892483744963  1.0000
  C   C53       1.0  0.8787962456749694  0.1829110697862646  0.2734447844127459  1.0000
  C   C54       1.0  0.1212033473529388  0.8170878617375266  0.7265560161782648  1.0000
  C   C55       1.0  0.02512776716608299  0.10891922665941682  0.30516702986105315  1.0000
  C   C56       1.0  0.9748704226389502  0.8910797048643744  0.6948344908659723  1.0000
  C   C57       1.0  0.8211115338333314  0.0073530122735832  0.4163988198088903  1.0000
  C   C58       1.0  0.178884854556344  0.9926482201823887  0.5835990112584425  1.0000
  C   C59       1.0  0.6673132592662439  0.0766363811803927  0.3873613237268856  1.0000
  C   C60       1.0  0.3326868078687396  0.9233679191851536  0.6126408350237187  1.0000
  N   N1        1.0  0.06945698938458376  0.7078411357309947  0.5513449215576358  1.0000
  N   N2        1.0  0.9305375975897261  0.2921623976571581  0.4486523118047288  1.0000
  N   N3        1.0  0.8497985745968109  0.46004991425525793  0.8154737241249849  1.0000
  N   N4        1.0  0.1501897926480922  0.5399490172685333  0.18452294329900806  1.0000
  N   N5        1.0  0.7000739047974348  0.186694569269477  0.069950298297357  1.0000
  N   N6        1.0  0.2999298410828572  0.8133127990056437  0.9300419651447387  1.0000
  N   N7        1.0  0.39460647806884447  0.9453356856960512  0.31316472194599493  1.0000
  N   N8        1.0  0.6053910480820477  0.05466708071470801  0.6868288307305619  1.0000
  N   N9        1.0  0.9235211607150261  0.973249060963056  0.16454268292390842  1.0000
  N   N10       1.0  0.07648036645907297  0.026746802651160802  0.8354589485220744  1.0000
  N   N11       1.0  0.7416583775564405  0.5149731654194696  0.985618047209414  1.0000
  N   N12       1.0  0.2583461647088257  0.4850296009912896  0.014382417433161336  1.0000
  N   N13       1.0  0.20356363466356694  0.4864040244808337  0.5669907219990336  1.0000
  N   N14       1.0  0.7964356929026833  0.5135964409977447  0.43301146746479463  1.0000
  N   N15       1.0  0.9979845601156112  0.0216019182940954  0.37520630760059964  1.0000
  N   N16       1.0  0.0020123591973799774  0.9783962462523094  0.6247949296305606  1.0000
