data_image0
_chemical_formula_structural       Mn2H24C28N8O8
_chemical_formula_sum              "Mn2 H24 C28 N8 O8"
_cell_length_a       7.849992019426884
_cell_length_b       9.384545037097062
_cell_length_c       10.252375951771445
_cell_angle_alpha    75.88758639276125
_cell_angle_beta     78.17609124265483
_cell_angle_gamma    78.43866006928174

_space_group_name_H-M_alt    "P 1"
_space_group_IT_number       1

loop_
  _space_group_symop_operation_xyz
  'x, y, z'

loop_
  _atom_site_type_symbol
  _atom_site_label
  _atom_site_symmetry_multiplicity
  _atom_site_fract_x
  _atom_site_fract_y
  _atom_site_fract_z
  _atom_site_occupancy
  Mn  Mn1       1.0  0.4513373568357225  0.13532688163879666  0.6529918923307109  1.0000
  Mn  Mn2       1.0  0.5486505676110767  0.8646830606649658  0.34700174900503805  1.0000
  H   H1        1.0  0.9359109896085654  0.8239048098984371  0.7396629555909016  1.0000
  H   H2        1.0  0.0641044001380138  0.1760890001567219  0.2603342642939168  1.0000
  H   H3        1.0  0.8530218339512815  0.5057090431398877  0.33391337622975215  1.0000
  H   H4        1.0  0.14697461497210182  0.4942842976109318  0.6660963291100684  1.0000
  H   H5        1.0  0.2549464751909554  0.5588473045902448  0.8878179108960822  1.0000
  H   H6        1.0  0.7450846520552618  0.4411762464113806  0.11218281998711177  1.0000
  H   H7        1.0  0.225549394296337  0.6607737575373278  0.09579187721237763  1.0000
  H   H8        1.0  0.774464618851212  0.3392193158554305  0.9042253087777185  1.0000
  H   H9        1.0  0.2709270325518959  0.4901825956344155  0.3165382254623453  1.0000
  H   H10       1.0  0.7290782777029392  0.5097949909141308  0.6834726297655962  1.0000
  H   H11       1.0  0.3986708073139126  0.11683335297731653  0.11911757297321661  1.0000
  H   H12       1.0  0.6013135285992917  0.883169816580228  0.8808656895508947  1.0000
  H   H13       1.0  0.16194949892974364  0.9653240659245625  0.5633979364579674  1.0000
  H   H14       1.0  0.8380621108758958  0.0346664004646797  0.43659397131960287  1.0000
  H   H15       1.0  0.982010547823023  0.8003022534591154  0.9826789588655914  1.0000
  H   H16       1.0  0.01800511955675429  0.19971595489756314  0.0173142710701768  1.0000
  H   H17       1.0  0.2646997366321174  0.9512193184300554  0.9546516770772802  1.0000
  H   H18       1.0  0.7353075298263718  0.0487966051297093  0.0453270958074015  1.0000
  H   H19       1.0  0.5598117944863575  0.4235193267350539  0.3956336205552304  1.0000
  H   H20       1.0  0.4401727904015901  0.5764831650439889  0.6043751445272749  1.0000
  H   H21       1.0  0.06983427849802129  0.347018974499207  0.5009372736422932  1.0000
  H   H22       1.0  0.9301505897169307  0.6529646771769252  0.49907598615022436  1.0000
  H   H23       1.0  0.8596396798941653  0.1618889790453863  0.6912160399791745  1.0000
  H   H24       1.0  0.1403330901659743  0.8381060788812107  0.30879773218759965  1.0000
  C   C1        1.0  0.33076222856774967  0.33152504972564867  0.9905934988338391  1.0000
  C   C2        1.0  0.6692316407323701  0.6684903625836256  0.009402578776153834  1.0000
  C   C3        1.0  0.2776409466789787  0.48449827116686334  0.9845839699164786  1.0000
  C   C4        1.0  0.7223812330099337  0.5155132066552071  0.015414534323276961  1.0000
  C   C5        1.0  0.25948474041791775  0.5413800229580018  0.10131042890969155  1.0000
  C   C6        1.0  0.7405212946184393  0.4586197683324329  0.898698834080335  1.0000
  C   C7        1.0  0.2865928586240826  0.44593961195071313  0.22519314336192056  1.0000
  C   C8        1.0  0.7134120650370761  0.5540479045000594  0.7748124586190389  1.0000
  C   C9        1.0  0.33197550045742463  0.29180303266856106  0.23366283167043633  1.0000
  C   C10       1.0  0.6680121220179416  0.7081937075878955  0.7663389359542448  1.0000
  C   C11       1.0  0.3581718408282483  0.2357368338244967  0.11502305133611664  1.0000
  C   C12       1.0  0.6418314718539477  0.7642660655962743  0.8849693779486856  1.0000
  C   C13       1.0  0.36126751833056403  0.2674657171282959  0.8659061082718298  1.0000
  C   C14       1.0  0.6387432761068724  0.7325492428350912  0.13408589896032913  1.0000
  C   C15       1.0  0.3482711999683019  0.1873574801744908  0.3682139248691528  1.0000
  C   C16       1.0  0.6517360905577971  0.8126275750931383  0.6317810830872902  1.0000
  C   C17       1.0  0.15152168003393035  0.9432183567892879  0.6733810836648717  1.0000
  C   C18       1.0  0.848479659143237  0.05677898721157252  0.326609154748553  1.0000
  C   C19       1.0  0.0613508375463496  0.8574339945719842  0.8934819165862324  1.0000
  C   C20       1.0  0.9386623413280191  0.1425653946548735  0.10651339842439003  1.0000
  C   C21       1.0  0.19964371270258846  0.9329855474098782  0.8778349183327379  1.0000
  C   C22       1.0  0.800378541333984  0.067023628942998  0.12215924551841795  1.0000
  C   C23       1.0  0.6675791729521168  0.3764754976863998  0.45192906028200514  1.0000
  C   C24       1.0  0.3324045103417745  0.6235236602849527  0.5480787274997568  1.0000
  C   C25       1.0  0.9333217425815903  0.33582369294565234  0.5081460041872107  1.0000
  C   C26       1.0  0.06666034000793533  0.6641700175153531  0.49186633082290143  1.0000
  C   C27       1.0  0.8282144123669893  0.24398718388845003  0.6013972575906122  1.0000
  C   C28       1.0  0.17176546259813114  0.7560032263748867  0.3986143391796944  1.0000
  N   N1        1.0  0.25418399998693536  0.9865687705668553  0.7401668238768551  1.0000
  N   N2        1.0  0.745815138863236  0.013432994163281404  0.2598188581752368  1.0000
  N   N3        1.0  0.03367515398766597  0.8649974719646493  0.7631541942220254  1.0000
  N   N4        1.0  0.9663377269648876  0.135005315511215  0.23684426232162542  1.0000
  N   N5        1.0  0.6626751788670404  0.270262952888082  0.5652409298294572  1.0000
  N   N6        1.0  0.3372970375303055  0.729734267766844  0.4347685194548276  1.0000
  N   N7        1.0  0.8284067673835764  0.4186909835020812  0.4146566195498025  1.0000
  N   N8        1.0  0.17158581670598497  0.5813024734944392  0.5853547655585062  1.0000
  O   O1        1.0  0.270615676963665  0.326645622764957  0.7706808780096921  1.0000
  O   O2        1.0  0.7293749055036611  0.6733565468074758  0.22931706591138126  1.0000
  O   O3        1.0  0.4786918314632941  0.15218090451789124  0.8593673232606989  1.0000
  O   O4        1.0  0.5213138770028536  0.8478307453896008  0.14061961092514252  1.0000
  O   O5        1.0  0.3512083163641364  0.2430940427493979  0.4692547832210821  1.0000
  O   O6        1.0  0.6487765237336021  0.7569038769225572  0.5307472262555778  1.0000
  O   O7        1.0  0.35068113314556376  0.04903926338811  0.3760786199305882  1.0000
  O   O8        1.0  0.6493230027334178  0.9509526710132192  0.623924111799461  1.0000
