data_image0
_chemical_formula_structural       Cd2H32C52N4O18
_chemical_formula_sum              "Cd2 H32 C52 N4 O18"
_cell_length_a       7.0864992354517335
_cell_length_b       9.065950564014004
_cell_length_c       17.178298818462743
_cell_angle_alpha    91.25807777843308
_cell_angle_beta     100.4323954033469
_cell_angle_gamma    96.76447619102709

_space_group_name_H-M_alt    "P 1"
_space_group_IT_number       1

loop_
  _space_group_symop_operation_xyz
  'x, y, z'

loop_
  _atom_site_type_symbol
  _atom_site_label
  _atom_site_symmetry_multiplicity
  _atom_site_fract_x
  _atom_site_fract_y
  _atom_site_fract_z
  _atom_site_occupancy
  Cd  Cd1       1.0  0.7158192733315547  0.13105148368436656  0.3832764351472166  1.0000
  Cd  Cd2       1.0  0.2841783904353576  0.8689504129948703  0.6167248280396721  1.0000
  H   H1        1.0  0.3208323635827313  0.5348503035017558  0.4178871763713661  1.0000
  H   H2        1.0  0.6791565094620537  0.46515162550020517  0.5821088313485421  1.0000
  H   H3        1.0  0.31313521393146  0.6622439753622088  0.29093213557079883  1.0000
  H   H4        1.0  0.6868543798421957  0.3377535012361719  0.7090644447429216  1.0000
  H   H5        1.0  0.809654274810164  0.5639369744719788  0.08003743629081585  1.0000
  H   H6        1.0  0.1903486867529907  0.4360626861244441  0.9199624113367054  1.0000
  H   H7        1.0  0.1293571407558716  0.8684600799419471  0.21292002271248836  1.0000
  H   H8        1.0  0.870643113596074  0.13154070144299368  0.7870790732420618  1.0000
  H   H9        1.0  0.8500842199732617  0.7198154088387625  0.2050807378236216  1.0000
  H   H10       1.0  0.14991286800610482  0.2801831534022625  0.794919860039457  1.0000
  H   H11       1.0  0.8506770124032031  0.7346092451237992  0.3510456169576131  1.0000
  H   H12       1.0  0.14932078886734254  0.2653937655988159  0.6489545058480675  1.0000
  H   H13       1.0  0.5856364844669457  0.8634654156072727  0.24285817739067994  1.0000
  H   H14       1.0  0.4143581271057856  0.13653537707026686  0.7571428635424697  1.0000
  H   H15       1.0  0.6781161542522939  0.0373494261108362  0.018878469535842223  1.0000
  H   H16       1.0  0.32188815047774716  0.9626491143225309  0.9811237835714339  1.0000
  H   H17       1.0  0.7481073364761317  0.31504595008166086  0.011814081160295614  1.0000
  H   H18       1.0  0.2518965532952393  0.6849503688580112  0.9881869500230142  1.0000
  H   H19       1.0  0.792975993719246  0.4987061527307901  0.42116742025863385  1.0000
  H   H20       1.0  0.20702328822180505  0.5012968518721408  0.5788339676455936  1.0000
  H   H21       1.0  0.5909013593162841  0.8197283611353825  0.09784736381728724  1.0000
  H   H22       1.0  0.40910046900711444  0.1802724097344992  0.9021553323600531  1.0000
  H   H23       1.0  0.14638952451094417  0.9983013976851115  0.08816044889156423  1.0000
  H   H24       1.0  0.8536288429644543  0.0016959960779984987  0.9118404172746681  1.0000
  H   H25       1.0  0.012601280064132027  0.26885059988191534  0.4979579933498075  1.0000
  H   H26       1.0  0.9873952480152398  0.7311535277072281  0.5020414753193166  1.0000
  H   H27       1.0  0.842356073983737  0.211141187780477  0.5445998204528025  1.0000
  H   H28       1.0  0.15764193476614002  0.788862933688982  0.45540091331486127  1.0000
  H   H29       1.0  0.45282662939692403  0.8780701345425541  0.38037858711339834  1.0000
  H   H30       1.0  0.5471725825684217  0.12193287335691141  0.6196210494476306  1.0000
  H   H31       1.0  0.6508670456592968  0.8284855112203715  0.42608664925217726  1.0000
  H   H32       1.0  0.34913054813191025  0.17151638875539993  0.5739128625915203  1.0000
  C   C1        1.0  0.3272148782098725  0.24630799049443652  0.442245823019917  1.0000
  C   C2        1.0  0.6727784368464498  0.7536939201484786  0.55775397999561  1.0000
  C   C3        1.0  0.13337418072993054  0.9813842051328978  0.3564267691377695  1.0000
  C   C4        1.0  0.8666221398701027  0.018618811709401894  0.6435720885693714  1.0000
  C   C5        1.0  0.23458457568661117  0.30034505178013404  0.21862351713097897  1.0000
  C   C6        1.0  0.765426160079443  0.6996501422969529  0.7813744718671034  1.0000
  C   C7        1.0  0.7838121008514705  0.4806236557263405  0.19609833955775718  1.0000
  C   C8        1.0  0.21618218906352377  0.519374911062144  0.8039038145756907  1.0000
  C   C9        1.0  0.27173225123867445  0.3150508017843947  0.3635152515508936  1.0000
  C   C10       1.0  0.7282649742443255  0.6849488745000086  0.6364842059309769  1.0000
  C   C11       1.0  0.7063162332043904  0.20857157840440277  0.20028926168769356  1.0000
  C   C12       1.0  0.2936781708889954  0.7914281035263002  0.799711168283473  1.0000
  C   C13       1.0  0.7485900699791657  0.3533641080255662  0.24064028005359728  1.0000
  C   C14       1.0  0.2514048166008251  0.6466389127387231  0.7593584801171362  1.0000
  C   C15       1.0  0.2946656006213288  0.4692018028359045  0.3621942189716521  1.0000
  C   C16       1.0  0.7053312332282288  0.5307956508559715  0.6378046003673249  1.0000
  C   C17       1.0  0.22807873344913082  0.2263428084553496  0.29095933679838754  1.0000
  C   C18       1.0  0.7719239973094574  0.7736557424930695  0.7090393160860915  1.0000
  C   C19       1.0  0.20539511686057926  0.21607366765420719  0.14581728106392697  1.0000
  C   C20       1.0  0.7946234580941579  0.7839248368557391  0.8541841960642815  1.0000
  C   C21       1.0  0.18074254272664805  0.06820965977097158  0.28677764557834007  1.0000
  C   C22       1.0  0.8192591689705752  0.9317911165931321  0.713222131693684  1.0000
  C   C23       1.0  0.2924798885097104  0.5412196699786733  0.2906928033410098  1.0000
  C   C24       1.0  0.7075187685455546  0.45878112302018087  0.7093021086096842  1.0000
  C   C25       1.0  0.7825807224942951  0.46433273567480177  0.11291790846156155  1.0000
  C   C26       1.0  0.2174190260458175  0.5356647079753926  0.8870822735123627  1.0000
  C   C27       1.0  0.15765543483706068  0.9892815281033545  0.21466306308064997  1.0000
  C   C28       1.0  0.8423473192467625  0.010717021746223998  0.785336173584888  1.0000
  C   C29       1.0  0.8214003936232929  0.6201749998929174  0.237523367679927  1.0000
  C   C30       1.0  0.1785925764500504  0.37982468595977537  0.7624769647548322  1.0000
  C   C31       1.0  0.2689017239990861  0.45819164803911144  0.2198008794602161  1.0000
  C   C32       1.0  0.7311042897582569  0.5418091165590083  0.7801991904210512  1.0000
  C   C33       1.0  0.8230492668316669  0.6285373948223592  0.31793911239069683  1.0000
  C   C34       1.0  0.1769482361063767  0.3714633889123533  0.6820627073963411  1.0000
  C   C35       1.0  0.6217936908939522  0.9547538114970205  0.20585192639250496  1.0000
  C   C36       1.0  0.37820219386994575  0.04524586431399061  0.7941497686772083  1.0000
  C   C37       1.0  0.6710304602247774  0.0522406593143785  0.08130560830949214  1.0000
  C   C38       1.0  0.3289711372940475  0.9477590019075068  0.918695893124806  1.0000
  C   C39       1.0  0.7480539902882627  0.3268558517568253  0.07519269636204483  1.0000
  C   C40       1.0  0.2519502677913081  0.6731426908742293  0.9248083891830989  1.0000
  C   C41       1.0  0.7893209009437924  0.4963305990610678  0.357445903006827  1.0000
  C   C42       1.0  0.21067838099725836  0.5036724055418631  0.6425554848973933  1.0000
  C   C43       1.0  0.7086890765086836  0.1963046813137055  0.11775062581233446  1.0000
  C   C44       1.0  0.2913112711442025  0.8036960956758606  0.8822508052664662  1.0000
  C   C45       1.0  0.6247611423343926  0.9315300390176018  0.12492923836416744  1.0000
  C   C46       1.0  0.37523994937259897  0.06846628446952961  0.8750733490895117  1.0000
  C   C47       1.0  0.1693371955137977  0.0618417640892588  0.14436763588994245  1.0000
  C   C48       1.0  0.8306764082923408  0.9381534221438413  0.8556305481809618  1.0000
  C   C49       1.0  0.2725999184400649  0.5342396442842912  0.14590888691404305  1.0000
  C   C50       1.0  0.7274040388592268  0.46575779199529416  0.8540892525448742  1.0000
  C   C51       1.0  0.21314833672760614  0.29099891458399446  0.07179811616868653  1.0000
  C   C52       1.0  0.7868769233929528  0.7089973521188354  0.9282008753744367  1.0000
  N   N1        1.0  0.7532598925826053  0.3632535609096266  0.3198739466525994  1.0000
  N   N2        1.0  0.24673335494578916  0.6367472323933825  0.6801287480873273  1.0000
  N   N3        1.0  0.6646999691022517  0.08850669471014777  0.2424461373801209  1.0000
  N   N4        1.0  0.3352946657957077  0.9114940968685515  0.7575554873340952  1.0000
  O   O1        1.0  0.45748189920612253  0.1610188240899788  0.4459273246535106  1.0000
  O   O2        1.0  0.5425170377519565  0.83898195572273  0.5540745926699416  1.0000
  O   O3        1.0  0.2530787155553967  0.2818210485194612  0.5009301738623793  1.0000
  O   O4        1.0  0.7469176516951066  0.718181966125151  0.499069851406887  1.0000
  O   O5        1.0  0.2145948349903648  0.8646614256386086  0.37221867919733154  1.0000
  O   O6        1.0  0.7854054893372863  0.13533935244979736  0.62778216810041  1.0000
  O   O7        1.0  0.0075546483563258045  0.024778008413264295  0.39192146469749656  1.0000
  O   O8        1.0  0.9924432437673759  0.9752261185504096  0.6080763501648507  1.0000
  O   O9        1.0  0.8705238180699055  0.2633706487108327  0.49624531068625555  1.0000
  O   O10       1.0  0.1294725491805977  0.7366323659337793  0.5037547145830176  1.0000
  O   O11       1.0  0.5942830037976634  0.884129167985556  0.3795340436074356  1.0000
  O   O12       1.0  0.4057176655129596  0.11587383489306553  0.6204662742710741  1.0000
  O   O13       1.0  0.2518341039625085  0.44574892432712715  0.07641315958750992  1.0000
  O   O14       1.0  0.7481797306482036  0.5542473715539629  0.9235862192264366  1.0000
  O   O15       1.0  0.29173885941575867  0.6685310364440653  0.13848751590136035  1.0000
  O   O16       1.0  0.7082569995751272  0.331469761102241  0.861508952319696  1.0000
  O   O17       1.0  0.18984030120484627  0.2306392639080953  0.005923403404651107  1.0000
  O   O18       1.0  0.8102008264371038  0.7693569552574074  0.9940789961632678  1.0000
