data_image0
_chemical_formula_structural       Cd2H48C52N8O12
_chemical_formula_sum              "Cd2 H48 C52 N8 O12"
_cell_length_a       10.158455300751209
_cell_length_b       10.9646777860622
_cell_length_c       12.669095113705316
_cell_angle_alpha    86.68213481342411
_cell_angle_beta     79.80904079871975
_cell_angle_gamma    65.43101593628259

_space_group_name_H-M_alt    "P 1"
_space_group_IT_number       1

loop_
  _space_group_symop_operation_xyz
  'x, y, z'

loop_
  _atom_site_type_symbol
  _atom_site_label
  _atom_site_symmetry_multiplicity
  _atom_site_fract_x
  _atom_site_fract_y
  _atom_site_fract_z
  _atom_site_occupancy
  Cd  Cd1       1.0  0.08089449005149162  0.12532618369223764  0.04432521230350521  1.0000
  Cd  Cd2       1.0  0.9191098755288961  0.8746758218292425  0.9556771724149441  1.0000
  H   H1        1.0  0.8995581418284502  0.9765954673963786  0.19480079057237987  1.0000
  H   H2        1.0  0.10044267744614638  0.023405524425875495  0.8051974154311453  1.0000
  H   H3        1.0  0.9062688160321815  0.8480749723051061  0.3659997427505886  1.0000
  H   H4        1.0  0.0937240963970467  0.15192802564756386  0.6339971148724571  1.0000
  H   H5        1.0  0.3404936107057566  0.7278695259081258  0.4786575168558045  1.0000
  H   H6        1.0  0.6595032101537369  0.27213145517804077  0.5213365223414854  1.0000
  H   H7        1.0  0.1075213789046288  0.808172722947958  0.4701928147679268  1.0000
  H   H8        1.0  0.892468881356855  0.1918272908315472  0.5298108904539376  1.0000
  H   H9        1.0  0.6989941842359784  0.6889771041111385  0.4016653370998853  1.0000
  H   H10       1.0  0.3010138018191242  0.3110168650437614  0.5983330058737549  1.0000
  H   H11       1.0  0.2626785949640009  0.04053795476032459  0.234123613874317  1.0000
  H   H12       1.0  0.7373182143748308  0.9594630668427724  0.7658830540442169  1.0000
  H   H13       1.0  0.5263775785580691  0.861918373856383  0.5256950936049024  1.0000
  H   H14       1.0  0.47361387675775274  0.1380856433677025  0.47430665393833493  1.0000
  H   H15       1.0  0.3250182119488871  0.7687812488575287  0.6847502431082688  1.0000
  H   H16       1.0  0.6749829356332454  0.231205698038316  0.3152454924398072  1.0000
  H   H17       1.0  0.30143011507912837  0.936073442081131  0.6576505807739181  1.0000
  H   H18       1.0  0.6985644726250442  0.06391253497574208  0.3423540315036604  1.0000
  H   H19       1.0  0.5262361484292198  0.8985021546903269  0.7291182074478045  1.0000
  H   H20       1.0  0.4737576380018993  0.10148781031384857  0.2708792065677201  1.0000
  H   H21       1.0  0.40500641033352747  0.8545734417042183  0.8253526769134609  1.0000
  H   H22       1.0  0.5949909252835468  0.14541752686994863  0.1746457586366716  1.0000
  H   H23       1.0  0.5493733074978804  0.6137455466556503  0.7790747713246731  1.0000
  H   H24       1.0  0.45063438772151426  0.38624241312840707  0.22092550551023046  1.0000
  H   H25       1.0  0.6681465392812739  0.6824088203706463  0.8085323574847721  1.0000
  H   H26       1.0  0.3318530842189418  0.3175881705393379  0.19146859549244513  1.0000
  H   H27       1.0  0.7759302327015903  0.5369921860830684  0.6397966904158067  1.0000
  H   H28       1.0  0.22406794088563936  0.4630057987752492  0.3602012595308395  1.0000
  H   H29       1.0  0.7499888019384  0.7059864933789228  0.6152318222107382  1.0000
  H   H30       1.0  0.25001101305215917  0.29401451221932  0.3847704725092314  1.0000
  H   H31       1.0  0.5491971891373311  0.5762280850742483  0.571450070919461  1.0000
  H   H32       1.0  0.4508039850613272  0.42376990150536625  0.4285490308941746  1.0000
  H   H33       1.0  0.8777427132011442  0.27362167828061956  0.2776846455509272  1.0000
  H   H34       1.0  0.12225946024127407  0.7263763122491722  0.7223158926118031  1.0000
  H   H35       1.0  0.902516888057178  0.6526395781306532  0.31233776077816333  1.0000
  H   H36       1.0  0.09748002422723799  0.3473634254934907  0.6876616850609666  1.0000
  H   H37       1.0  0.06631033513793484  0.6075909754622443  0.1341451167270336  1.0000
  H   H38       1.0  0.9336896735030747  0.39241403722732565  0.8658561518504513  1.0000
  H   H39       1.0  0.12944077127830408  0.3939766756695632  0.0366018418294871  1.0000
  H   H40       1.0  0.87056414287661  0.6060263317006046  0.9634004125565809  1.0000
  H   H41       1.0  0.7222803187068154  0.3776167248871402  0.8254670779223403  1.0000
  H   H42       1.0  0.2777162623899016  0.6224003337926547  0.17453799555255503  1.0000
  H   H43       1.0  0.5053018085181974  0.44005904069193486  0.7333650563146393  1.0000
  H   H44       1.0  0.494694933132081  0.5599510081861891  0.2666427284079163  1.0000
  H   H45       1.0  0.32389691862437786  0.34012342764637526  0.7940923466778003  1.0000
  H   H46       1.0  0.6761108082518419  0.6598755540952934  0.20590577135711643  1.0000
  H   H47       1.0  0.5783121485886085  0.11304471179595045  0.029015155653659974  1.0000
  H   H48       1.0  0.42169758181540107  0.8869542601199211  0.970980310013907  1.0000
  C   C1        1.0  0.9836877663098135  0.9587222774745923  0.24382348984708807  1.0000
  C   C2        1.0  0.016309789574250992  0.041283737874678594  0.7561772858261123  1.0000
  C   C3        1.0  0.9896567312849103  0.8860602673543452  0.3380092892935593  1.0000
  C   C4        1.0  0.010336275449404296  0.11394474300707458  0.6619898177910102  1.0000
  C   C5        1.0  0.10059249717014036  0.8656897267574376  0.39665341778925983  1.0000
  C   C6        1.0  0.8993989567056032  0.13431429553126856  0.6033499083441427  1.0000
  C   C7        1.0  0.20174879552558167  0.9211569657568643  0.3598439780402672  1.0000
  C   C8        1.0  0.7982475653041448  0.07884504614781916  0.6401587553115532  1.0000
  C   C9        1.0  0.1866540856753502  0.995131166922725  0.265584959414241  1.0000
  C   C10       1.0  0.8133423694594626  0.004872857390701298  0.7344200233991102  1.0000
  C   C11       1.0  0.31976886648254066  0.9132848795482713  0.41984592741459176  1.0000
  C   C12       1.0  0.6802195860617316  0.08671914355144138  0.5801570361469004  1.0000
  C   C13       1.0  0.4766172095034377  0.7905549251436594  0.5509910427762109  1.0000
  C   C14       1.0  0.5233815090581047  0.2094440742248905  0.4490107233134424  1.0000
  C   C15       1.0  0.38454204632117234  0.8334874437208767  0.6627667277425288  1.0000
  C   C16       1.0  0.6154537371573808  0.16650253424826633  0.33723513756135043  1.0000
  C   C17       1.0  0.47713642363251524  0.8257292179005945  0.747424875684736  1.0000
  C   C18       1.0  0.5228565543251449  0.17426476037397254  0.2525732330195112  1.0000
  C   C19       1.0  0.5984727970799854  0.6848715710913565  0.7505795077462879  1.0000
  C   C20       1.0  0.40152827921338036  0.315124415741053  0.2494212910812053  1.0000
  C   C21       1.0  0.6920152530536254  0.6405775617307654  0.6394413950335363  1.0000
  C   C22       1.0  0.307980372031487  0.3594194184431244  0.3605553911374457  1.0000
  C   C23       1.0  0.5984110394656027  0.649325349964087  0.5536288214680668  1.0000
  C   C24       1.0  0.4015921375408169  0.35067262932203386  0.4463684172732982  1.0000
  C   C25       1.0  0.7700646661911322  0.48550024624277194  0.4119839336345947  1.0000
  C   C26       1.0  0.2299292462018911  0.5145027531277647  0.5880135710424668  1.0000
  C   C27       1.0  0.8740403394787744  0.4669384345148657  0.30853681418306433  1.0000
  C   C28       1.0  0.12595657496576246  0.5330645615123543  0.6914602637708285  1.0000
  C   C29       1.0  0.9174872338491722  0.34964469399534437  0.24794567283706934  1.0000
  C   C30       1.0  0.08251803955005238  0.6503552929383359  0.7520527415886279  1.0000
  C   C31       1.0  0.9301694504117463  0.5604531826732921  0.26805815258393295  1.0000
  C   C32       1.0  0.06983001253490773  0.4395508180383558  0.731940089145624  1.0000
  C   C33       1.0  0.023218077460207147  0.5357371030058287  0.16951691432593213  1.0000
  C   C34       1.0  0.9767852903165061  0.4642648935008538  0.8304824554532574  1.0000
  C   C35       1.0  0.05811216119022326  0.41711561931454344  0.11459130861929621  1.0000
  C   C36       1.0  0.9418933022592597  0.5828883873720156  0.8854100261393185  1.0000
  C   C37       1.0  0.8001920771851444  0.19485758482654345  0.9823520022357358  1.0000
  C   C38       1.0  0.19981219337011422  0.8051424108184971  0.0176489223162619  1.0000
  C   C39       1.0  0.665115135878402  0.24038499135115624  0.9324923722881806  1.0000
  C   C40       1.0  0.3348900410556085  0.759612990770705  0.0675061605612299  1.0000
  C   C41       1.0  0.64285370494526  0.3341766754318413  0.849750286530835  1.0000
  C   C42       1.0  0.3571454952222907  0.6658323505281201  0.1502516767353796  1.0000
  C   C43       1.0  0.5214322121642636  0.3690720622701845  0.7988908764649736  1.0000
  C   C44       1.0  0.4785734420555059  0.6309359616369362  0.2011125893314656  1.0000
  C   C45       1.0  0.4201807671150703  0.3133409403957612  0.8318701971938794  1.0000
  C   C46       1.0  0.5798256027131571  0.6866610527676115  0.1681287458621412  1.0000
  C   C47       1.0  0.43882795252144274  0.223098133162722  0.9165518994721964  1.0000
  C   C48       1.0  0.5611749645860369  0.7769048612424782  0.08344590362550977  1.0000
  C   C49       1.0  0.32355857893956846  0.1724776064674457  0.9585976173444806  1.0000
  C   C50       1.0  0.6764491515368505  0.8275213626126854  0.04139655421504066  1.0000
  C   C51       1.0  0.5625183887774979  0.18586085831070415  0.9654539346521531  1.0000
  C   C52       1.0  0.43748779100047835  0.8141371150997896  0.0345420880709639  1.0000
  N   N1        1.0  0.08090039470040009  0.012259088518682397  0.2084923839559778  1.0000
  N   N2        1.0  0.9190995145952382  0.987743929488303  0.7915121602255227  1.0000
  N   N3        1.0  0.006771792965288626  0.3254613330453679  0.15310942544974182  1.0000
  N   N4        1.0  0.9932360303761383  0.6745396535081197  0.8468885741614685  1.0000
  N   N5        1.0  0.38262587028788897  0.798562608283447  0.473486677715421  1.0000
  N   N6        1.0  0.6173743061071022  0.20143536928137704  0.5265094091589546  1.0000
  N   N7        1.0  0.6908513111792233  0.6130371224427335  0.4481413640455969  1.0000
  N   N8        1.0  0.30915031368866863  0.38695986623837075  0.5518593044495077  1.0000
  O   O1        1.0  0.8804972198352274  0.25958070433772207  0.9633418679441874  1.0000
  O   O2        1.0  0.11950459508292255  0.740420304096254  0.036661720883827784  1.0000
  O   O3        1.0  0.22500244401052066  0.18880110646766465  0.9017318446478981  1.0000
  O   O4        1.0  0.775006093499279  0.8111938544066953  0.09826321081305173  1.0000
  O   O5        1.0  0.3230179129281936  0.12219493647450005  0.0517615040716208  1.0000
  O   O6        1.0  0.6769874605364448  0.8778070426094612  0.9482328454549886  1.0000
  O   O7        1.0  0.8344300249029644  0.09009052536623587  0.0408870089746856  1.0000
  O   O8        1.0  0.16557724698376586  0.9099094694677983  0.9591142781492153  1.0000
  O   O9        1.0  0.35439288097177263  0.009893925756351498  0.41867702455655836  1.0000
  O   O10       1.0  0.6455926623859868  0.9901121181600413  0.5813301937797846  1.0000
  O   O11       1.0  0.7578462221467533  0.38716811884613367  0.46060524018704996  1.0000
  O   O12       1.0  0.24215076286650825  0.6128258397768248  0.5393875637825047  1.0000
