data_image0
_chemical_formula_structural       Zn2H33C29N9O13
_chemical_formula_sum              "Zn2 H33 C29 N9 O13"
_cell_length_a       10.032623056836833
_cell_length_b       11.18872646311669
_cell_length_c       12.668222391335242
_cell_angle_alpha    94.24271238048473
_cell_angle_beta     108.70744226556455
_cell_angle_gamma    96.32202450613414

_space_group_name_H-M_alt    "P 1"
_space_group_IT_number       1

loop_
  _space_group_symop_operation_xyz
  'x, y, z'

loop_
  _atom_site_type_symbol
  _atom_site_label
  _atom_site_symmetry_multiplicity
  _atom_site_fract_x
  _atom_site_fract_y
  _atom_site_fract_z
  _atom_site_occupancy
  Zn  Zn1       1.0  0.871186263245029  0.4893751271078202  0.529919895652597  1.0000
  Zn  Zn2       1.0  0.11927237278185027  0.46793845025620573  0.4751834214984427  1.0000
  H   H1        1.0  0.8630760118710935  0.08613776356769877  0.5715015686091292  1.0000
  H   H2        1.0  0.2731050438566101  0.7538046925527198  0.3898260971974994  1.0000
  H   H3        1.0  0.34019820260078854  0.8540488032312792  0.518547604452394  1.0000
  H   H4        1.0  0.3330201273012889  0.9110067259422295  0.3878726325350713  1.0000
  H   H5        1.0  0.4770781446860681  0.17523770413805548  0.4080165927702241  1.0000
  H   H6        1.0  0.4091168507373268  0.24536359256183715  0.5083817872893805  1.0000
  H   H7        1.0  0.5864861480020025  0.2036629660940079  0.5527437009324743  1.0000
  H   H8        1.0  0.3658127881167417  0.5779032931207339  0.6524460275275532  1.0000
  H   H9        1.0  0.5453469966804719  0.5624595511307362  0.6991533961418599  1.0000
  H   H10       1.0  0.6398215022003414  0.27181141555001886  0.7683891341105424  1.0000
  H   H11       1.0  0.46529511380645533  0.2582735195202872  0.6886102361001749  1.0000
  H   H12       1.0  0.6767096485163081  0.6149294424033798  0.5791450242816583  1.0000
  H   H13       1.0  0.9268364555789291  0.322865752411019  0.9261709327586732  1.0000
  H   H14       1.0  0.8295942982222613  0.399862007747167  0.8287636889276941  1.0000
  H   H15       1.0  0.4444877394204383  0.2678449404883025  0.24445675732764732  1.0000
  H   H16       1.0  0.634029048511877  0.27090922605809453  0.29973472944490714  1.0000
  H   H17       1.0  0.5379140090224722  0.2180519870966364  0.15397296095387955  1.0000
  H   H18       1.0  0.04301061598384588  0.7089745557885435  0.9631628693828704  1.0000
  H   H19       1.0  0.9924564264651322  0.6381156795450167  0.827269775907162  1.0000
  H   H20       1.0  0.5536684858995287  0.5682288504406969  0.22425586575243275  1.0000
  H   H21       1.0  0.454770604010676  0.6824199900568219  0.22385802153766585  1.0000
  H   H22       1.0  0.24915461257601382  0.877125026977133  0.015710298937627012  1.0000
  H   H23       1.0  0.31921610618275753  0.40281714737396623  0.395600368199986  1.0000
  H   H24       1.0  0.4173565526013192  0.8753672499817001  0.12267817646383615  1.0000
  H   H25       1.0  0.2658535641083973  0.9080906747021444  0.16092612816329685  1.0000
  H   H26       1.0  0.2116971103867371  0.04417545993940309  0.4793461171359681  1.0000
  H   H27       1.0  0.18309449887572526  0.1910916763563009  0.5187491931738394  1.0000
  H   H28       1.0  0.3113793433781423  0.3889992838050133  0.7180288592635125  1.0000
  H   H29       1.0  0.19103956347925083  0.4245135313579383  0.13894218297724595  1.0000
  H   H30       1.0  0.09710006452835528  0.5119188825682599  0.20903681951564584  1.0000
  H   H31       1.0  0.06833294627870858  0.516956660847697  0.061880190206849824  1.0000
  H   H32       1.0  0.9214026483229816  0.7971957388693907  0.6067034791159074  1.0000
  H   H33       1.0  0.948585972384869  0.9447894464188165  0.6734024753818133  1.0000
  C   C1        1.0  0.032047069864461285  0.7068401172889693  0.4771846175550537  1.0000
  C   C2        1.0  0.22712341987837445  0.55074286016999  0.8439291640061768  1.0000
  C   C3        1.0  0.06762524700258143  0.8388262932519053  0.4803025358302407  1.0000
  C   C4        1.0  0.13488119688845046  0.5395213299650904  0.7245570797353411  1.0000
  C   C5        1.0  0.023023942480442375  0.9226311069987432  0.5428787889462543  1.0000
  C   C6        1.0  0.960999544200192  0.12834434168549078  0.5624587631596684  1.0000
  C   C7        1.0  0.056326092047591196  0.05589437104058699  0.545019312202797  1.0000
  C   C8        1.0  0.43809836404221864  0.48859624181395117  0.5405072078318867  1.0000
  C   C9        1.0  0.5706811510774515  0.45527868593207893  0.5220984983857592  1.0000
  C   C10       1.0  0.9714237249607437  0.257178573153979  0.5523693204087935  1.0000
  C   C11       1.0  0.8675007056122582  0.4130524123658503  0.28957324977292853  1.0000
  C   C12       1.0  0.4426050994437674  0.5087126120604069  0.9939061295382603  1.0000
  C   C13       1.0  0.7658650309005354  0.3802538869578314  0.9672460853689916  1.0000
  C   C14       1.0  0.783941525272958  0.4012534374494906  0.1661605697529467  1.0000
  C   C15       1.0  0.19274678002272339  0.6248069730184795  0.9238726062958594  1.0000
  C   C16       1.0  0.29026137799522184  0.6495354122794978  0.0333962841654412  1.0000
  C   C17       1.0  0.4124976687243774  0.5929586300941948  0.0716441294390719  1.0000
  C   C18       1.0  0.09052827926599598  0.45933987550130684  0.13038929061303864  1.0000
  C   C19       1.0  0.2799782321708619  0.8463736451281819  0.42813802224964104  1.0000
  C   C20       1.0  0.5043522204171463  0.2366609684621253  0.48558266599709304  1.0000
  C   C21       1.0  0.544264681836303  0.2825483141161058  0.225932036956614  1.0000
  C   C22       1.0  0.3011756350050021  0.8550140742303116  0.10116665360923356  1.0000
  C   C23       1.0  0.3520169890745635  0.4941527209689838  0.8791567799068932  1.0000
  C   C24       1.0  0.5699325590627211  0.4506496875665889  0.021642040263692867  1.0000
  C   C25       1.0  0.6248444965062133  0.40947719137687943  0.9360568649912014  1.0000
  C   C26       1.0  0.5219433532739615  0.3823126904157021  0.824267608417806  1.0000
  C   C27       1.0  0.389385417147885  0.41780582556611995  0.8009104857908798  1.0000
  C   C28       1.0  0.6411339309162116  0.42233092111267473  0.13074914244921837  1.0000
  C   C29       1.0  0.846088340423151  0.3830036442857149  0.0812143319782663  1.0000
  N   N1        1.0  0.3137374471031719  0.4507245011801188  0.4653994769640165  1.0000
  N   N2        1.0  0.6860069433069568  0.5303505327903865  0.5484438370548901  1.0000
  N   N3        1.0  0.9358163497864567  0.8886210333889081  0.6032955937342807  1.0000
  N   N4        1.0  0.4570018108286432  0.5653034057956533  0.6324714625333315  1.0000
  N   N5        1.0  0.5525176866498073  0.314865454566899  0.7391408507476032  1.0000
  N   N6        1.0  0.8268908979374886  0.34180583348056354  0.8866625830666809  1.0000
  N   N7        1.0  0.07173087107465649  0.6805535532254793  0.8966338098173525  1.0000
  N   N8        1.0  0.5009375099546389  0.6308518803927257  0.17995408769358076  1.0000
  N   N9        1.0  0.1809438129456922  0.10118150316061052  0.5305335599579595  1.0000
  O   O1        1.0  0.941869610094088  0.6683996293122192  0.5242392652861272  1.0000
  O   O2        1.0  0.14014408158091385  0.8800217983528075  0.40970992609225493  1.0000
  O   O3        1.0  0.5650776075747146  0.35043536667129876  0.4623312909089138  1.0000
  O   O4        1.0  0.556506282650318  0.4043282015868357  0.19742369115982686  1.0000
  O   O5        1.0  0.2599736607497789  0.7292843761022995  0.11012316468286094  1.0000
  O   O6        1.0  0.09382451798636988  0.6372732274367151  0.4293204229195312  1.0000
  O   O7        1.0  0.9998643058461242  0.5220123828753174  0.7023091486615343  1.0000
  O   O8        1.0  0.19315870754285666  0.550780492116587  0.6484686286324576  1.0000
  O   O9        1.0  0.8629385222300172  0.30972192460257725  0.5485694764025553  1.0000
  O   O10       1.0  0.08822413633151878  0.31259461614208556  0.5453507892956041  1.0000
  O   O11       1.0  0.8088582637907535  0.45616158154727054  0.35682255190187123  1.0000
  O   O12       1.0  0.9938199899880474  0.386808720277969  0.32004626584343754  1.0000
  O   O13       1.0  0.9824530485302531  0.35503373724554876  0.10341040602158805  1.0000
