data_image0
_chemical_formula_structural       Zn8H44C58N4O34
_chemical_formula_sum              "Zn8 H44 C58 N4 O34"
_cell_length_a       18.430427789050924
_cell_length_b       18.028408148731867
_cell_length_c       18.233111261779005
_cell_angle_alpha    60.82190878950174
_cell_angle_beta     90.36477754975726
_cell_angle_gamma    60.763703625543926

_space_group_name_H-M_alt    "P 1"
_space_group_IT_number       1

loop_
  _space_group_symop_operation_xyz
  'x, y, z'

loop_
  _atom_site_type_symbol
  _atom_site_label
  _atom_site_symmetry_multiplicity
  _atom_site_fract_x
  _atom_site_fract_y
  _atom_site_fract_z
  _atom_site_occupancy
  Zn  Zn1       1.0  0.6187135878335396  0.590616987036789  0.7079369921415691  1.0000
  Zn  Zn2       1.0  0.7869179177801158  0.5967695334973229  0.6994814735075112  1.0000
  Zn  Zn3       1.0  0.38042061992806697  0.40494179351362913  0.2964621180979136  1.0000
  Zn  Zn4       1.0  0.21090440768860932  0.4042690670747077  0.2975461651233432  1.0000
  Zn  Zn5       1.0  0.7931552920723987  0.4125028932941319  0.7049836063920271  1.0000
  Zn  Zn6       1.0  0.21033074176263963  0.5848551325702971  0.12157889716559826  1.0000
  Zn  Zn7       1.0  0.790131831394035  0.4160029587349285  0.8765535211972096  1.0000
  Zn  Zn8       1.0  0.20636883660520058  0.5897994100361643  0.290606654171171  1.0000
  H   H1        1.0  0.5173160813861127  0.9188471993910671  0.6586103618849749  1.0000
  H   H2        1.0  0.43175235542446433  0.915548110116916  0.5838750201202816  1.0000
  H   H3        1.0  0.3411577314855592  0.08412082533674693  0.4817727117873006  1.0000
  H   H4        1.0  0.4274381278568952  0.0844683369563839  0.5693724644628091  1.0000
  H   H5        1.0  0.6488845078158858  0.9080744612169622  0.49804743551722236  1.0000
  H   H6        1.0  0.5777751177939126  0.9042352467888295  0.43837435633500393  1.0000
  H   H7        1.0  0.4936246125170172  0.08284060517300419  0.34641678944558413  1.0000
  H   H8        1.0  0.5611781486163991  0.08697886028291892  0.4097955637584932  1.0000
  H   H9        1.0  0.6558143396090443  0.3376565235012592  0.061497691620104426  1.0000
  H   H10       1.0  0.9802490945639307  0.3625152780857519  0.04806215480408583  1.0000
  H   H11       1.0  0.37598977245922066  0.6649711198006755  0.36040562801543546  1.0000
  H   H12       1.0  0.9985089691580241  0.6607679089604944  0.4011210890922214  1.0000
  H   H13       1.0  0.3518547583204921  0.6441928151263311  0.9496705448631463  1.0000
  H   H14       1.0  0.006020159931217941  0.6571761720586196  0.9433592938640987  1.0000
  H   H15       1.0  0.6236587753135083  0.34280908512774744  0.6295321346729283  1.0000
  H   H16       1.0  0.9946276531794779  0.3509180498083068  0.5907258180539046  1.0000
  H   H17       1.0  0.4454493405625541  0.6441023772728727  0.8501559328122283  1.0000
  H   H18       1.0  0.9061147592615627  0.665630926873  0.8409617832215944  1.0000
  H   H19       1.0  0.5302786430360412  0.3345999367615491  0.5371136174169282  1.0000
  H   H20       1.0  0.09163370101906311  0.34975806549839916  0.49458437415636797  1.0000
  H   H21       1.0  0.9500599352908593  0.10160901568390558  0.06473385312769153  1.0000
  H   H22       1.0  0.04695492894792606  0.9088075332926876  0.16192409654662065  1.0000
  H   H23       1.0  0.05216700948103191  0.9001851092652228  0.9305949082494397  1.0000
  H   H24       1.0  0.9544312557995269  0.09300118817515819  0.833341402310154  1.0000
  H   H25       1.0  0.6260930229438203  0.8324268148549194  0.7952425713611506  1.0000
  H   H26       1.0  0.6688371741402364  0.74414648842334  0.7643441894903377  1.0000
  H   H27       1.0  0.7372695537243384  0.7722115094700756  0.7977211472292967  1.0000
  H   H28       1.0  0.6906763169386847  0.8709070690511215  0.6329546762582652  1.0000
  H   H29       1.0  0.644240336497326  0.9540684766159372  0.6681031663450769  1.0000
  H   H30       1.0  0.4312528935985823  0.7678391926876671  0.6195176940748512  1.0000
  H   H31       1.0  0.32971732245575686  0.8802778680212952  0.5391364148175058  1.0000
  H   H32       1.0  0.3866726755714467  0.7775056960762469  0.5259132143968944  1.0000
  H   H33       1.0  0.40946938622299456  0.9122672581014868  0.4254583283219662  1.0000
  H   H34       1.0  0.5084980188878844  0.8051571159754475  0.5065374085053806  1.0000
  H   H35       1.0  0.27609559636496067  0.013991812430511199  0.4188105126624891  1.0000
  H   H36       1.0  0.21183658871679253  0.1482631800775067  0.3685349240447098  1.0000
  H   H37       1.0  0.23484930203240845  0.09969916632132232  0.30171320445030864  1.0000
  H   H38       1.0  0.3248667238021028  0.1676416836814241  0.31384629854801466  1.0000
  H   H39       1.0  0.38944339018720336  0.0421354862602001  0.3409605618810474  1.0000
  H   H40       1.0  0.6491468356986657  0.0476902137209123  0.5404625373796251  1.0000
  H   H41       1.0  0.5727830098801192  0.17481439275881172  0.44792292273492523  1.0000
  H   H42       1.0  0.6209560701195684  0.15281586850964862  0.5467798357745225  1.0000
  H   H43       1.0  0.4622459166755419  0.20455009397119991  0.5221267075813714  1.0000
  H   H44       1.0  0.5366045128523779  0.09484275785070652  0.6255867070565274  1.0000
  C   C1        1.0  0.8859234914548324  0.5023809158194794  0.6083763608771309  1.0000
  C   C2        1.0  0.6118424866588514  0.5062968192774093  0.6054050573504953  1.0000
  C   C3        1.0  0.11182947180285652  0.5010188834879798  0.11044483912366601  1.0000
  C   C4        1.0  0.39119348644162244  0.4955996373562925  0.11594410884116267  1.0000
  C   C5        1.0  0.6124393307548459  0.492354595593241  0.891130096486194  1.0000
  C   C6        1.0  0.8771957977010415  0.5171133983406406  0.8799958117382689  1.0000
  C   C7        1.0  0.3873935840250056  0.4959425766547483  0.3904602521676497  1.0000
  C   C8        1.0  0.11103864401844989  0.5025700746810884  0.3871078942852294  1.0000
  C   C9        1.0  0.8891698755403679  0.22295482604367584  0.8858176786955241  1.0000
  C   C10       1.0  0.11363866105118348  0.7789787734816828  0.10946495539273117  1.0000
  C   C11       1.0  0.6098967854112017  0.780475528488573  0.6158482597241461  1.0000
  C   C12       1.0  0.388401456635208  0.21520874813716517  0.39047760840026063  1.0000
  C   C13       1.0  0.5493005629652998  0.9428946223847773  0.6095196018738421  1.0000
  C   C14       1.0  0.4522773412563549  0.9317561802315028  0.5243637837457413  1.0000
  C   C15       1.0  0.3928546850405041  0.052354273062597684  0.45530818525736555  1.0000
  C   C16       1.0  0.4851351565161723  0.0642121329096312  0.5464319939775921  1.0000
  C   C17       1.0  0.5796779842128216  0.9373183073689617  0.4749345703595865  1.0000
  C   C18       1.0  0.5221557943417067  0.05565584427280609  0.4145285349945382  1.0000
  C   C19       1.0  0.5485636772976573  0.8973750965875026  0.5551188588672676  1.0000
  C   C20       1.0  0.4475035734509163  0.0976029074763431  0.4503222995354222  1.0000
  C   C21       1.0  0.5890849616033833  0.4047591890519371  0.036276062148800796  1.0000
  C   C22       1.0  0.9858289404359725  0.42718201379423704  0.024529393213455816  1.0000
  C   C23       1.0  0.42998631008564564  0.5937460593612727  0.4191601810751211  1.0000
  C   C24       1.0  0.9976749537281788  0.5927986417794245  0.4419834216351362  1.0000
  C   C25       1.0  0.53466904884948  0.4042981946269464  0.08855329626563706  1.0000
  C   C26       1.0  0.044250172041998284  0.4219874990579058  0.07802286285946995  1.0000
  C   C27       1.0  0.48659222629794396  0.5960145705621542  0.4674090402827746  1.0000
  C   C28       1.0  0.940943736546508  0.5938255447081247  0.491811733338267  1.0000
  C   C29       1.0  0.44914993992953356  0.4903704563028413  0.05889406450282311  1.0000
  C   C30       1.0  0.05222658301922685  0.5041553468049073  0.05094623534228065  1.0000
  C   C31       1.0  0.5555306902041861  0.5066746014612207  0.5449855428042412  1.0000
  C   C32       1.0  0.9395812746676953  0.5068965263416416  0.5468733592268934  1.0000
  C   C33       1.0  0.41809004174994163  0.5771113423401104  0.9726717539852957  1.0000
  C   C34       1.0  0.00045242155123047  0.5927298978700081  0.9650178804910398  1.0000
  C   C35       1.0  0.5698520136046524  0.41268392282766797  0.5697319389259904  1.0000
  C   C36       1.0  0.9951689182844419  0.41870691358174383  0.5477359965475516  1.0000
  C   C37       1.0  0.470148229240955  0.5774752640824943  0.9178020132855025  1.0000
  C   C38       1.0  0.9442697952889032  0.5979227973014574  0.9085182867005488  1.0000
  C   C39       1.0  0.517162063108664  0.4082125261807477  0.5190630177329398  1.0000
  C   C40       1.0  0.049652363558848805  0.41761933074170793  0.495261391953399  1.0000
  C   C41       1.0  0.5561136449210975  0.49154938322043057  0.9498229681842648  1.0000
  C   C42       1.0  0.9362161266260498  0.5153389783955546  0.9385203023325773  1.0000
  C   C43       1.0  0.44578174124015396  0.4990552874938175  0.444670937526439  1.0000
  C   C44       1.0  0.05179126139703527  0.5043117883090957  0.44296048781030356  1.0000
  C   C45       1.0  0.9726806289183115  0.0567304689277677  0.036103671305959  1.0000
  C   C46       1.0  0.026424409638593726  0.9499731289465672  0.08995950257360641  1.0000
  C   C47       1.0  0.055246827503800736  0.8936631221317415  0.05172826436782435  1.0000
  C   C48       1.0  0.9468655217853905  0.10820086261161067  0.943500259221992  1.0000
  C   C49       1.0  0.029339303469562605  0.9450983218503097  0.9591516391156106  1.0000
  C   C50       1.0  0.9752509286258686  0.05184785755190551  0.9052871200133695  1.0000
  C   C51       1.0  0.6421178532587819  0.896064997533486  0.6648046556632538  1.0000
  C   C52       1.0  0.6702623912393618  0.8060702490896006  0.7605306422865683  1.0000
  C   C53       1.0  0.44343127508383867  0.8670662004389059  0.49652872535273207  1.0000
  C   C54       1.0  0.39541743927568257  0.8202055453028195  0.5479959462846011  1.0000
  C   C55       1.0  0.3449811027668659  0.0886210571036088  0.3634324576661073  1.0000
  C   C56       1.0  0.2628306949066896  0.0869412432228316  0.3631084606680589  1.0000
  C   C57       1.0  0.5187004898196009  0.1241775638031584  0.5547352508974228  1.0000
  C   C58       1.0  0.594502426820455  0.1244350589601169  0.5204224068718233  1.0000
  N   N1        1.0  0.5685397460366273  0.3058577715597579  0.17456335373058354  1.0000
  N   N2        1.0  0.1035891973765998  0.32139191683174323  0.16218171431385997  1.0000
  N   N3        1.0  0.4766024788700349  0.6952388150903771  0.42909699934858775  1.0000
  N   N4        1.0  0.8773276038560379  0.6934571998678366  0.4792664421584831  1.0000
  O   O1        1.0  0.7479575157799799  0.5028610693174755  0.7468207391374194  1.0000
  O   O2        1.0  0.25121094822524975  0.49674574133845784  0.2510000305655212  1.0000
  O   O3        1.0  0.8727124212023086  0.555620727485703  0.6397380418522687  1.0000
  O   O4        1.0  0.5721319402568029  0.5693293687392399  0.6272790420036005  1.0000
  O   O5        1.0  0.13437582323578567  0.43758088951815216  0.1938324056102091  1.0000
  O   O6        1.0  0.4281410539715225  0.4479026033133664  0.19843717772297254  1.0000
  O   O7        1.0  0.5723351979368302  0.5553540477927329  0.8080843857890018  1.0000
  O   O8        1.0  0.8510045981111318  0.5837726598340112  0.796940390103821  1.0000
  O   O9        1.0  0.4227445534117678  0.4167746571616746  0.3877370051592879  1.0000
  O   O10       1.0  0.13513698363806967  0.4367267273444072  0.3680219755256502  1.0000
  O   O11       1.0  0.6935333619150584  0.4376946458060971  0.6327667363898757  1.0000
  O   O12       1.0  0.8615599362136875  0.4420725744772511  0.6261147222968618  1.0000
  O   O13       1.0  0.30923880695785033  0.5511875066734646  0.0749518162596346  1.0000
  O   O14       1.0  0.1328613423316298  0.5646811563923038  0.07085457652300427  1.0000
  O   O15       1.0  0.8594277521317009  0.45012373090272456  0.9195262243366927  1.0000
  O   O16       1.0  0.6953398230758766  0.4300971382547302  0.929372933314632  1.0000
  O   O17       1.0  0.13184111998685205  0.5669732890499618  0.3638374961137887  1.0000
  O   O18       1.0  0.30758455369260657  0.5730106979424648  0.3517623823060704  1.0000
  O   O19       1.0  0.8662890919532132  0.2657949511890436  0.8019342034304061  1.0000
  O   O20       1.0  0.14170493178744442  0.7326217925556122  0.07044124923649527  1.0000
  O   O21       1.0  0.6886887394067642  0.73844766336682  0.6140683608897606  1.0000
  O   O22       1.0  0.5800686065360877  0.7307572653528709  0.6666151576293661  1.0000
  O   O23       1.0  0.3074020185774913  0.26083717806895385  0.38583579548587477  1.0000
  O   O24       1.0  0.42411948728481264  0.2616730677162451  0.34912519642583834  1.0000
  O   O25       1.0  0.8672910290665784  0.26912409859468767  0.9251628351786961  1.0000
  O   O26       1.0  0.13103596916340624  0.7361957280089655  0.1930899936236871  1.0000
  O   O27       1.0  0.6424129098118669  0.2624668548382516  0.2237674755572742  1.0000
  O   O28       1.0  0.5216901263061898  0.2725659992655878  0.1889226745773982  1.0000
  O   O29       1.0  0.0697593805163805  0.2876748376769882  0.2163530475927686  1.0000
  O   O30       1.0  0.18236950566471674  0.27686032703324764  0.16895950225989514  1.0000
  O   O31       1.0  0.40199576771470896  0.7747595896392951  0.3837332867515003  1.0000
  O   O32       1.0  0.5445263542075764  0.6918273449034658  0.4424409877936813  1.0000
  O   O33       1.0  0.9072723763850516  0.7384176330283978  0.4871045113840966  1.0000
  O   O34       1.0  0.7988298279976362  0.725955450497473  0.45824644200304493  1.0000
