data_image0
_chemical_formula_structural       Ni6H6C36O42
_chemical_formula_sum              "Ni6 H6 C36 O42"
_cell_length_a       6.813238881302242
_cell_length_b       15.003982235064582
_cell_length_c       15.00730956770667
_cell_angle_alpha    117.75980441770919
_cell_angle_beta     98.70418867897519
_cell_angle_gamma    98.70684592994336

_space_group_name_H-M_alt    "P 1"
_space_group_IT_number       1

loop_
  _space_group_symop_operation_xyz
  'x, y, z'

loop_
  _atom_site_type_symbol
  _atom_site_label
  _atom_site_symmetry_multiplicity
  _atom_site_fract_x
  _atom_site_fract_y
  _atom_site_fract_z
  _atom_site_occupancy
  Ni  Ni1       1.0  0.12028301870204663  0.3224003868108198  0.5898927366320238  1.0000
  Ni  Ni2       1.0  0.5305252740977053  0.41017579996309916  0.7325138241027958  1.0000
  Ni  Ni3       1.0  0.7979366609433  0.26747590826790457  0.6775580310885446  1.0000
  Ni  Ni4       1.0  0.8797197365307451  0.6775956433178718  0.41011076688381803  1.0000
  Ni  Ni5       1.0  0.46947791581559517  0.5898241233021722  0.26748819287994513  1.0000
  Ni  Ni6       1.0  0.20206400840434902  0.7325247937076609  0.32245150991399635  1.0000
  H   H1        1.0  0.3718776053440107  0.5568005692257926  0.021664367756599683  1.0000
  H   H2        1.0  0.35035370608388633  0.9784942722229527  0.5350412130621222  1.0000
  H   H3        1.0  0.8152368523188896  0.46493775204424276  0.4433451566440709  1.0000
  H   H4        1.0  0.6281305570984229  0.44320636175520167  0.9783392525822522  1.0000
  H   H5        1.0  0.6496503094934809  0.02150409395361659  0.46497479257219254  1.0000
  H   H6        1.0  0.18476401789083483  0.535057499423729  0.5566565245368906  1.0000
  C   C1        1.0  0.1832051464201284  0.4317239987481613  0.8247934845668043  1.0000
  C   C2        1.0  0.35831108824990565  0.17526226141862367  0.6068095775584084  1.0000
  C   C3        1.0  0.7514891410974299  0.3931406830337351  0.5683556105341765  1.0000
  C   C4        1.0  0.8167947515838775  0.5682782603967665  0.17520873492880168  1.0000
  C   C5        1.0  0.64169328950053  0.824736883354532  0.39320348382778286  1.0000
  C   C6        1.0  0.24851462082420978  0.6068514539015196  0.4316441453808011  1.0000
  C   C7        1.0  0.08186924070526654  0.46270865013777035  0.911733606420917  1.0000
  C   C8        1.0  0.17002017980119183  0.0883227744917576  0.5508463718180823  1.0000
  C   C9        1.0  0.6191610376863182  0.44907187709505797  0.5373494738951267  1.0000
  C   C10       1.0  0.918136341419057  0.5372990594647928  0.08827020407862556  1.0000
  C   C11       1.0  0.8299812391619382  0.9116763702821798  0.44916782383353393  1.0000
  C   C12       1.0  0.3808397545839241  0.5509202598248493  0.46265008285634224  1.0000
  C   C13       1.0  0.2079123602883967  0.5313712211180643  0.011906459069145116  1.0000
  C   C14       1.0  0.19609982144002885  0.9881749023729254  0.5193475205680187  1.0000
  C   C15       1.0  0.6766752175543047  0.48059649265814386  0.468729917613203  1.0000
  C   C16       1.0  0.7920928325026393  0.46863570984758224  0.9880969621062051  1.0000
  C   C17       1.0  0.8039034825461612  0.011825021061731897  0.4806684974184776  1.0000
  C   C18       1.0  0.3233315810941305  0.5193987588243871  0.5312708284658428  1.0000
  C   C19       1.0  0.13442978778533632  0.5710478797262297  0.10160465111030698  1.0000
  C   C20       1.0  0.03302615062892021  0.8984262999171048  0.46947435686626443  1.0000
  C   C21       1.0  0.5634478284867652  0.5305462247150597  0.4289700334361796  1.0000
  C   C22       1.0  0.8655742370058446  0.4289567153286669  0.8983976020924589  1.0000
  C   C23       1.0  0.9669757247428877  0.1015767380256705  0.5305410191101104  1.0000
  C   C24       1.0  0.43655186285901226  0.46944669082602525  0.5710291463432712  1.0000
  C   C25       1.0  0.20904215221870703  0.2547450897028368  0.3566336229254646  1.0000
  C   C26       1.0  0.8527083233479898  0.6435355501972421  0.8982633346918617  1.0000
  C   C27       1.0  0.9553363363606022  0.10161820672112745  0.7450723068891565  1.0000
  C   C28       1.0  0.7909427253532113  0.7452509402450359  0.6433613517502438  1.0000
  C   C29       1.0  0.14729870368684314  0.35646904492139697  0.10174311796119183  1.0000
  C   C30       1.0  0.04464828212355321  0.8983715939773659  0.25490575135274435  1.0000
  C   C31       1.0  0.6477015159026749  0.1642914629363759  0.3173416205228393  1.0000
  C   C32       1.0  0.32979709339321045  0.6824571650549273  0.8465335398246127  1.0000
  C   C33       1.0  0.48371419975909186  0.15344756870620557  0.8361438686016174  1.0000
  C   C34       1.0  0.35231651353504356  0.8357209181219498  0.6826305538419958  1.0000
  C   C35       1.0  0.6701829802834993  0.317541200724598  0.15345820420988324  1.0000
  C   C36       1.0  0.5162850971854736  0.8465593622932701  0.1638644879624351  1.0000
  O   O1        1.0  0.06823433510906791  0.3715973014075615  0.7314665479269992  1.0000
  O   O2        1.0  0.33670998163078986  0.26861958981061207  0.6400952737053842  1.0000
  O   O3        1.0  0.6966075214620914  0.3599037675007822  0.6284427746399219  1.0000
  O   O4        1.0  0.9317681486451049  0.6284041791238691  0.26853614812237936  1.0000
  O   O5        1.0  0.6632984069430421  0.7313787762679808  0.35991102995722457  1.0000
  O   O6        1.0  0.3033940494747183  0.6400899266929585  0.3715575607599463  1.0000
  O   O7        1.0  0.2731552813550735  0.6380546265070494  0.19216167354952066  1.0000
  O   O8        1.0  0.08127173754887412  0.8078894057143554  0.4459939811044931  1.0000
  O   O9        1.0  0.6351809658111165  0.5540860658304538  0.3619732529453755  1.0000
  O   O10       1.0  0.7268483758309898  0.3619491899431893  0.8078428571869056  1.0000
  O   O11       1.0  0.9187349036938314  0.19211129634030752  0.5540199585118445  1.0000
  O   O12       1.0  0.3648220736552687  0.4459076283467666  0.6380251818928501  1.0000
  O   O13       1.0  0.37547298953300856  0.4660034859511554  0.8429400344232648  1.0000
  O   O14       1.0  0.5324234678849818  0.1571086654454064  0.622913848050864  1.0000
  O   O15       1.0  0.9095660036503048  0.377065353622271  0.5341387357252003  1.0000
  O   O16       1.0  0.6245302511595554  0.5339995518218429  0.15706077341663865  1.0000
  O   O17       1.0  0.4675805984716488  0.8428928152388903  0.37710094844062764  1.0000
  O   O18       1.0  0.09044041652893492  0.6229291192394725  0.4658629544585793  1.0000
  O   O19       1.0  0.16384969705897123  0.23785561659314414  0.42106146377302883  1.0000
  O   O20       1.0  0.7435399447206449  0.5790665989211021  0.8168068241694116  1.0000
  O   O21       1.0  0.9266376927312975  0.18288784597204003  0.7619470354516056  1.0000
  O   O22       1.0  0.8361513685807794  0.7621341843591624  0.5789316908718974  1.0000
  O   O23       1.0  0.25645484696755705  0.4209372175476246  0.18320244279221498  1.0000
  O   O24       1.0  0.07337117397938876  0.8171144133076564  0.23806311539361497  1.0000
  O   O25       1.0  0.25339968337182467  0.26902535371339537  0.2909972958382667  1.0000
  O   O26       1.0  0.962319735704966  0.7092113635890126  0.9783001606039861  1.0000
  O   O27       1.0  0.9857723305301745  0.021747027027366497  0.7308142156171444  1.0000
  O   O28       1.0  0.7465630396692473  0.7309769051590177  0.708995766968883  1.0000
  O   O29       1.0  0.037688059132349766  0.2907947887873235  0.021705737268526062  1.0000
  O   O30       1.0  0.014181332622164922  0.9782287578015242  0.26913190647496776  1.0000
  O   O31       1.0  0.5420043929974412  0.15280837190445598  0.3681322039735804  1.0000
  O   O32       1.0  0.17337179900532348  0.6315667764970384  0.7842301613919886  1.0000
  O   O33       1.0  0.3892406363100491  0.2156030320002884  0.8474521434581703  1.0000
  O   O34       1.0  0.4580042815773664  0.8471853218517464  0.6318292931816529  1.0000
  O   O35       1.0  0.8266086984878169  0.3684354824029299  0.21575876268047983  1.0000
  O   O36       1.0  0.6107768101381337  0.7844132428806461  0.15257578223573623  1.0000
  O   O37       1.0  0.7512481874837674  0.17546930808441627  0.26544482406686143  1.0000
  O   O38       1.0  0.48515235929563955  0.7344648937596573  0.909666852089913  1.0000
  O   O39       1.0  0.5762677412567426  0.0904535151499033  0.8250992723187596  1.0000
  O   O40       1.0  0.24877623802954915  0.824561760276822  0.7345391617730003  1.0000
  O   O41       1.0  0.5148250216403412  0.26552802160985317  0.09032616696200785  1.0000
  O   O42       1.0  0.42372164157153935  0.9095456293287185  0.17489479195937455  1.0000
