data_image0
_chemical_formula_structural       Nd2P2H38C48N2O16
_chemical_formula_sum              "Nd2 P2 H38 C48 N2 O16"
_cell_length_a       10.672669968133524
_cell_length_b       11.998093972232171
_cell_length_c       14.65878633565449
_cell_angle_alpha    73.66554965167147
_cell_angle_beta     74.26607606902414
_cell_angle_gamma    63.18259182951308

_space_group_name_H-M_alt    "P 1"
_space_group_IT_number       1

loop_
  _space_group_symop_operation_xyz
  'x, y, z'

loop_
  _atom_site_type_symbol
  _atom_site_label
  _atom_site_symmetry_multiplicity
  _atom_site_fract_x
  _atom_site_fract_y
  _atom_site_fract_z
  _atom_site_occupancy
  Nd  Nd1       1.0  0.9927275068916546  0.5462744245158005  0.6279461619735897  1.0000
  Nd  Nd2       1.0  0.007261142432838612  0.45372915781925366  0.37205393885700017  1.0000
  P   P1        1.0  0.14407522804577166  0.713059444214707  0.7327916661835443  1.0000
  P   P2        1.0  0.8559400632478854  0.28692535542359116  0.2672159834179196  1.0000
  H   H1        1.0  0.4916577504083932  0.6355800048216124  0.43767397170957867  1.0000
  H   H2        1.0  0.5083429951647176  0.3644109831595514  0.5623271586008656  1.0000
  H   H3        1.0  0.9480399372975298  0.8923909240361422  0.6108369455647561  1.0000
  H   H4        1.0  0.051972775636677675  0.10759494425364839  0.3891655474370522  1.0000
  H   H5        1.0  0.252641440746764  0.6749657693779127  0.5418324689892485  1.0000
  H   H6        1.0  0.7473541010808945  0.3250141879034274  0.45817029722339686  1.0000
  H   H7        1.0  0.9600740486309293  0.8357257528947953  0.8920933784486987  1.0000
  H   H8        1.0  0.03992530797194149  0.16427939982345663  0.10789451290141017  1.0000
  H   H9        1.0  0.6657161789783571  0.6030493378855225  0.6814054515141946  1.0000
  H   H10       1.0  0.3342805825898693  0.39694647390678744  0.3185947246480295  1.0000
  H   H11       1.0  0.4295068623581317  0.6471858590310119  0.7844469508898724  1.0000
  H   H12       1.0  0.5704927511846379  0.3527958429151709  0.21555249077488273  1.0000
  H   H13       1.0  0.19059401495334083  0.9041827156222053  0.7976861783487337  1.0000
  H   H14       1.0  0.8094124437619215  0.09580897060818933  0.2023183440075016  1.0000
  H   H15       1.0  0.27866629890240086  0.3996568310017778  0.030609849500649492  1.0000
  H   H16       1.0  0.7213159654932682  0.6003664297126505  0.969412280475161  1.0000
  H   H17       1.0  0.9244340670309155  0.7535054535411733  0.06987788284570941  1.0000
  H   H18       1.0  0.07554781901946227  0.24653022424379856  0.9301107275744724  1.0000
  H   H19       1.0  0.8736943699175441  0.12767416716192062  0.550623502629314  1.0000
  H   H20       1.0  0.12630770377104036  0.8723205279017704  0.44937511512492273  1.0000
  H   H21       1.0  0.10402235787685743  0.1408160436308705  0.7427067951660573  1.0000
  H   H22       1.0  0.8959830145058518  0.8591784667319685  0.2573000311014368  1.0000
  H   H23       1.0  0.3089314494675578  0.47465141088608925  0.8517129183420804  1.0000
  H   H24       1.0  0.6910810557204247  0.5253483364729801  0.1483075394249339  1.0000
  H   H25       1.0  0.6555534369945659  0.8092888494662418  0.7360336099643517  1.0000
  H   H26       1.0  0.34441414310636276  0.1907265999237495  0.2639811978120292  1.0000
  H   H27       1.0  0.7073928684027565  0.0769561180492531  0.5179076972916618  1.0000
  H   H28       1.0  0.29262509112448504  0.9230437406959807  0.48207267181722085  1.0000
  H   H29       1.0  0.5561213273731697  0.07589937224873469  0.4900272605475989  1.0000
  H   H30       1.0  0.4438654815889435  0.9241016850425864  0.5099458443435407  1.0000
  H   H31       1.0  0.7239568684054805  0.9390981718343949  0.48343648895971814  1.0000
  H   H32       1.0  0.2760538637698032  0.06087755752062661  0.5165578717735  1.0000
  H   H33       1.0  0.3934222191366813  0.0782694911111221  0.6511734807384001  1.0000
  H   H34       1.0  0.6065547409623022  0.9217523230266024  0.3488194133760415  1.0000
  H   H35       1.0  0.5067067432249246  0.12768694218405593  0.6840659310499502  1.0000
  H   H36       1.0  0.4933091098476155  0.8723353477594314  0.3159226277326752  1.0000
  H   H37       1.0  0.47717934706973614  0.9908252410922599  0.754660454148876  1.0000
  H   H38       1.0  0.5228443559510012  0.009178074327579095  0.24532879931605572  1.0000
  C   C1        1.0  0.13874519426481421  0.6612173438250932  0.860723102347876  1.0000
  C   C2        1.0  0.8612555970060853  0.3387857543235029  0.13928202051951638  1.0000
  C   C3        1.0  0.4750939361121169  0.6402539663843855  0.5134728556874036  1.0000
  C   C4        1.0  0.5249069850335175  0.35972676987838537  0.4865244841268604  1.0000
  C   C5        1.0  0.07387424989045129  0.884536911773779  0.7072676053235937  1.0000
  C   C6        1.0  0.9261289713269819  0.11545303239657295  0.29273596821906966  1.0000
  C   C7        1.0  0.32522341305796937  0.6663048335946372  0.6692197419196899  1.0000
  C   C8        1.0  0.674789624507362  0.3336520360214762  0.3307867084855545  1.0000
  C   C9        1.0  0.9818465073659085  0.947461308464177  0.6392513678939266  1.0000
  C   C10       1.0  0.0181830531830087  0.0525211936140551  0.3607442115480309  1.0000
  C   C11       1.0  0.34262127710085377  0.6622769268011834  0.5714855079444019  1.0000
  C   C12       1.0  0.6573748258226074  0.33770863066793305  0.428515151083104  1.0000
  C   C13       1.0  0.5916886070572576  0.6211782551642172  0.5517850193581352  1.0000
  C   C14       1.0  0.4083094004239242  0.37882596131723295  0.4482095201747142  1.0000
  C   C15       1.0  0.029949829192787426  0.7400287305833615  0.9221702635943385  1.0000
  C   C16       1.0  0.9700422994124549  0.25998312502670723  0.0778305774048746  1.0000
  C   C17       1.0  0.5748759736537962  0.6224380364774048  0.649826118117545  1.0000
  C   C18       1.0  0.4251370128954973  0.37753479061775846  0.35017048378713156  1.0000
  C   C19       1.0  0.44160496921453074  0.6461699415948985  0.7082910196301737  1.0000
  C   C20       1.0  0.5584048777274403  0.3538217426343664  0.29169776596393854  1.0000
  C   C21       1.0  0.11881977452650012  0.9533555964739548  0.7448208667580473  1.0000
  C   C22       1.0  0.8811888101688654  0.04663321854744141  0.25518250506034684  1.0000
  C   C23       1.0  0.10038782380181732  0.5729944855456424  0.060146941531165496  1.0000
  C   C24       1.0  0.8995882395548307  0.42702819491277927  0.9398589079035274  1.0000
  C   C25       1.0  0.07326880728697213  0.5287646258822034  0.1673573658394858  1.0000
  C   C26       1.0  0.9267068078692658  0.4712664602659303  0.8326507153469006  1.0000
  C   C27       1.0  0.20969428260715975  0.49480660088998  0.9990830298527054  1.0000
  C   C28       1.0  0.7902996615168191  0.5052162874210425  0.0009319120064362064  1.0000
  C   C29       1.0  0.010104433322325704  0.6952716391746492  0.020983526383744802  1.0000
  C   C30       1.0  0.9898807515742547  0.30474046523909953  0.9790180594457352  1.0000
  C   C31       1.0  0.9851177267719748  0.1467658850777056  0.6432184170296507  1.0000
  C   C32       1.0  0.014884351589174062  0.8532315746215388  0.3567850146929741  1.0000
  C   C33       1.0  0.9397195628985532  0.07782238341806647  0.606674743072041  1.0000
  C   C34       1.0  0.060277599691460036  0.9221752433520864  0.3933303835439687  1.0000
  C   C35       1.0  0.07221108884743899  0.08443443315747598  0.7142277390413195  1.0000
  C   C36       1.0  0.927796491717892  0.9155525083897443  0.28578106076149357  1.0000
  C   C37       1.0  0.9506018256039823  0.28527320368618797  0.6013060464909258  1.0000
  C   C38       1.0  0.04940984202289665  0.7147248342679261  0.3986979290106944  1.0000
  C   C39       1.0  0.732750740094552  0.5939641842926305  0.4864824954421037  1.0000
  C   C40       1.0  0.2672336220937623  0.406063006069857  0.513504833289488  1.0000
  C   C41       1.0  0.22763442829712238  0.5375322407746878  0.8995328421467332  1.0000
  C   C42       1.0  0.7723621828837535  0.46248126013750823  0.10047552777433576  1.0000
  C   C43       1.0  0.693291529918433  0.8419977066598248  0.6595409734689283  1.0000
  C   C44       1.0  0.3067488039297999  0.1579638150058926  0.34045923705666326  1.0000
  C   C45       1.0  0.6523467700166635  0.016572022021073  0.5226263593884324  1.0000
  C   C46       1.0  0.34765756488239685  0.9834320947007736  0.47735115510951676  1.0000
  C   C47       1.0  0.4910332568376673  0.04428621850937021  0.6811906925878615  1.0000
  C   C48       1.0  0.5089558460428666  0.9557436128889516  0.31879500682571665  1.0000
  N   N1        1.0  0.6128802685949568  0.9623953573619981  0.6225020863363184  1.0000
  N   N2        1.0  0.3871300008686304  0.03758792738773311  0.37748378916423764  1.0000
  O   O1        1.0  0.9478857572373729  0.5828009361822098  0.21187818274688647  1.0000
  O   O2        1.0  0.052089893436388514  0.4172282294151941  0.7881364797973301  1.0000
  O   O3        1.0  0.7445525864582548  0.5774481737987428  0.4022512627628244  1.0000
  O   O4        1.0  0.25544793286784534  0.42258496843859217  0.5977353177263749  1.0000
  O   O5        1.0  0.9210164111683596  0.32311042140648977  0.516427609655885  1.0000
  O   O6        1.0  0.07898232614468984  0.6768768196263365  0.48358437662339054  1.0000
  O   O7        1.0  0.17430228968463976  0.43992900898194875  0.20999646391219062  1.0000
  O   O8        1.0  0.8256855826293762  0.5601017694692841  0.7899933723774591  1.0000
  O   O9        1.0  0.9585341837319205  0.3505454121628873  0.652411111028229  1.0000
  O   O10       1.0  0.0414684707299315  0.6494510544074571  0.3475972055728035  1.0000
  O   O11       1.0  0.839392150360588  0.5841593162269092  0.5171501513707426  1.0000
  O   O12       1.0  0.16058831435638873  0.4158548199169516  0.4828526530710276  1.0000
  O   O13       1.0  0.0605371208101317  0.6692315413494753  0.6939179132177171  1.0000
  O   O14       1.0  0.9394707067042917  0.3307572524366051  0.3060917669877197  1.0000
  O   O15       1.0  0.8017166917111354  0.7715660310707617  0.6122014395953385  1.0000
  O   O16       1.0  0.1982846921461956  0.2284071497972988  0.38780438545158796  1.0000
