data_image0
_chemical_formula_structural       Ni6H28C12O32
_chemical_formula_sum              "Ni6 H28 C12 O32"
_cell_length_a       5.432550361047059
_cell_length_b       9.381608501137112
_cell_length_c       14.488544457115868
_cell_angle_alpha    101.30675759936655
_cell_angle_beta     89.99991126787877
_cell_angle_gamma    90.00048882853613

_space_group_name_H-M_alt    "P 1"
_space_group_IT_number       1

loop_
  _space_group_symop_operation_xyz
  'x, y, z'

loop_
  _atom_site_type_symbol
  _atom_site_label
  _atom_site_symmetry_multiplicity
  _atom_site_fract_x
  _atom_site_fract_y
  _atom_site_fract_z
  _atom_site_occupancy
  Ni  Ni1       1.0  0.8859328655795338  0.9485352198075246  0.32612755580312586  1.0000
  Ni  Ni2       1.0  0.38534387226415834  0.05166118812718419  0.17390927555458555  1.0000
  Ni  Ni3       1.0  0.11465772767731153  0.051661032809541  0.6739081786376675  1.0000
  Ni  Ni4       1.0  0.614061274099825  0.9485370982759344  0.826128843562806  1.0000
  Ni  Ni5       1.0  0.9996756431978752  0.4999082368429484  0.999828191640944  1.0000
  Ni  Ni6       1.0  0.5003256680681645  0.49990530522632076  0.4998311403210778  1.0000
  H   H1        1.0  0.7608172512150801  0.8209368482719339  0.4605801953354458  1.0000
  H   H2        1.0  0.26018845453975803  0.179641937471871  0.03957131328065341  1.0000
  H   H3        1.0  0.23980647827014684  0.17964116693838147  0.5395721122400446  1.0000
  H   H4        1.0  0.7391780386304135  0.8209459396846837  0.9605811255181964  1.0000
  H   H5        1.0  0.7591635800085185  0.9909286966073195  0.5115246481040856  1.0000
  H   H6        1.0  0.25909714777088066  0.009517868279964111  0.9886816296869938  1.0000
  H   H7        1.0  0.240893195505258  0.009518590504512812  0.48868014518857456  1.0000
  H   H8        1.0  0.7408307748540253  0.9909347585625241  0.011525364130243113  1.0000
  H   H9        1.0  0.37020085598619795  0.9511623195162571  0.34433797482646605  1.0000
  H   H10       1.0  0.8700885948419385  0.0490757701919975  0.155614764519278  1.0000
  H   H11       1.0  0.6299221857335552  0.04907473822290602  0.6556114507516995  1.0000
  H   H12       1.0  0.1297951485417599  0.9511565362016583  0.8443401496550464  1.0000
  H   H13       1.0  0.28520088843059443  0.7988505332481566  0.37368211182611333  1.0000
  H   H14       1.0  0.7857371635432457  0.2012276395522932  0.1259781294167297  1.0000
  H   H15       1.0  0.7142723658211949  0.20122353221511696  0.6259777426237038  1.0000
  H   H16       1.0  0.21480004768608302  0.7988431251032962  0.873681909276783  1.0000
  H   H17       1.0  0.8913055747797785  0.8142661464874477  0.07916289680478879  1.0000
  H   H18       1.0  0.39186980580297603  0.18537198164567306  0.42097206617842187  1.0000
  H   H19       1.0  0.1081363823364043  0.185381704876896  0.9209704161043251  1.0000
  H   H20       1.0  0.608691330900868  0.8142645600572321  0.5791664199101589  1.0000
  H   H21       1.0  0.5558832512706288  0.6244249974463685  0.9691457928803971  1.0000
  H   H22       1.0  0.05568266783852491  0.37525462485777433  0.5309139884567884  1.0000
  H   H23       1.0  0.44432077926598623  0.37525429597719295  0.030910136819812785  1.0000
  H   H24       1.0  0.94411823709207  0.6244221792979373  0.4691463952062734  1.0000
  H   H25       1.0  0.7159739644628472  0.6173349313141753  0.8748733690693201  1.0000
  H   H26       1.0  0.21641549362997378  0.3830926977216506  0.6250350626524367  1.0000
  H   H27       1.0  0.2835858074979711  0.38310032385751913  0.1250318457080297  1.0000
  H   H28       1.0  0.7840260003535491  0.6173268577544135  0.374875342934125  1.0000
  C   C1        1.0  0.02101803945245  0.8104496486665269  0.13705385596106373  1.0000
  C   C2        1.0  0.5214021285068356  0.18923288294853072  0.36304602118512014  1.0000
  C   C3        1.0  0.9786006306358813  0.1892390158405846  0.8630428864849264  1.0000
  C   C4        1.0  0.4789767737940309  0.8104521187082837  0.6370563764579344  1.0000
  C   C5        1.0  0.906740991335198  0.6914000700119374  0.18419139046420702  1.0000
  C   C6        1.0  0.40700566680459355  0.30837846798847574  0.3160113788021306  1.0000
  C   C7        1.0  0.09299548766734492  0.3083901545336473  0.8160121121469005  1.0000
  C   C8        1.0  0.5932609498456926  0.6913986346278022  0.6841914928810697  1.0000
  C   C9        1.0  0.266707182530361  0.7629184429942979  0.08862961648437559  1.0000
  C   C10       1.0  0.7671580390834691  0.23679195134016592  0.41126575161573  1.0000
  C   C11       1.0  0.7328433802124509  0.23679340953003697  0.9112655153465427  1.0000
  C   C12       1.0  0.2332944940663353  0.7629112147779293  0.5886280477925538  1.0000
  O   O1        1.0  0.7281538124405885  0.9212147685221692  0.45142700726383816  1.0000
  O   O2        1.0  0.2276007719550108  0.07927923141011917  0.0486769803742249  1.0000
  O   O3        1.0  0.27239076401377094  0.0792797951527646  0.5486765809673245  1.0000
  O   O4        1.0  0.77183751014055  0.921220624464318  0.9514294922100675  1.0000
  O   O5        1.0  0.23632404496704143  0.8996726404320369  0.37760143948477787  1.0000
  O   O6        1.0  0.7363213153850552  0.1005733153208368  0.12240509460625763  1.0000
  O   O7        1.0  0.7636811882867464  0.10057062378162838  0.6224035109018615  1.0000
  O   O8        1.0  0.26366919179550763  0.8996684563130443  0.8776058440593605  1.0000
  O   O9        1.0  0.037388790622287595  0.9485366596199678  0.19694902405225884  1.0000
  O   O10       1.0  0.5374158000025349  0.051273180211182996  0.3030018116900024  1.0000
  O   O11       1.0  0.9625888281801024  0.05127801395931191  0.8030005606599532  1.0000
  O   O12       1.0  0.46260415617202  0.9485401815799717  0.696951025820404  1.0000
  O   O13       1.0  0.8331421326904901  0.7287609370896745  0.2691091157868044  1.0000
  O   O14       1.0  0.33255435624569435  0.27105794317854753  0.2312415022498229  1.0000
  O   O15       1.0  0.1674447755254178  0.27106044157893183  0.7312373236587179  1.0000
  O   O16       1.0  0.6668599903272109  0.7287608540315702  0.7691107588669155  1.0000
  O   O17       1.0  0.8820371922871288  0.564085220415606  0.1360739198988625  1.0000
  O   O18       1.0  0.38291286549419107  0.43590400305805593  0.36392699543895907  1.0000
  O   O19       1.0  0.11709367995815262  0.4359072080787669  0.8639250306639427  1.0000
  O   O20       1.0  0.6179630434674976  0.5640859413722694  0.636076409179573  1.0000
  O   O21       1.0  0.456384726399726  0.8386717591124436  0.11291749997108269  1.0000
  O   O22       1.0  0.9573978298480696  0.1620641703972368  0.38604839342963976  1.0000
  O   O23       1.0  0.5426007340291151  0.16206131317748165  0.8860496926501185  1.0000
  O   O24       1.0  0.04361614382501241  0.8386758748836199  0.6129129599173524  1.0000
  O   O25       1.0  0.2716249951017318  0.6516750283384595  0.021054371685522672  1.0000
  O   O26       1.0  0.7710574394765148  0.34710663085582627  0.47953166604443  1.0000
  O   O27       1.0  0.7289453379529504  0.3471094272108601  0.9795274927709557  1.0000
  O   O28       1.0  0.22837346550136323  0.6516697226190544  0.5210565550378021  1.0000
  O   O29       1.0  0.7268343863899389  0.6328395207567182  0.9441347646254173  1.0000
  O   O30       1.0  0.2268268436716383  0.366915032726716  0.5557664596286642  1.0000
  O   O31       1.0  0.27317268417409923  0.36691500589913056  0.055762075880011294  1.0000
  O   O32       1.0  0.7731673415361228  0.6328325709842986  0.4441355363672983  1.0000
