data_image0
_chemical_formula_structural       CuH30C30N6O6
_chemical_formula_sum              "Cu1 H30 C30 N6 O6"
_cell_length_a       6.895775553592159
_cell_length_b       7.814083371613653
_cell_length_c       15.606214395340729
_cell_angle_alpha    79.36348262415889
_cell_angle_beta     77.90316976279165
_cell_angle_gamma    68.57091254221247

_space_group_name_H-M_alt    "P 1"
_space_group_IT_number       1

loop_
  _space_group_symop_operation_xyz
  'x, y, z'

loop_
  _atom_site_type_symbol
  _atom_site_label
  _atom_site_symmetry_multiplicity
  _atom_site_fract_x
  _atom_site_fract_y
  _atom_site_fract_z
  _atom_site_occupancy
  Cu  Cu1       1.0  0.49999903129714357  0.5000036840734624  0.4999983094516693  1.0000
  H   H1        1.0  0.5082394308013888  0.4140072212558579  0.3258182160879741  1.0000
  H   H2        1.0  0.4917621363433257  0.5859987796413505  0.6741788456072015  1.0000
  H   H3        1.0  0.7644808739859459  0.35646122889254883  0.18600293188056574  1.0000
  H   H4        1.0  0.23552856716499815  0.6435323313930396  0.8139939045467912  1.0000
  H   H5        1.0  0.20286683882824263  0.46253276735302506  0.3142560056031627  1.0000
  H   H6        1.0  0.7971412796598191  0.537456613435502  0.685744540585155  1.0000
  H   H7        1.0  0.9265749394069261  0.5209528644036824  0.445046807956011  1.0000
  H   H8        1.0  0.07343739095046693  0.47902961028506047  0.5549507797305395  1.0000
  H   H9        1.0  0.315675935270555  0.1116892895213581  0.2989421889760422  1.0000
  H   H10       1.0  0.6843300693761236  0.8883167365768827  0.7010557422856039  1.0000
  H   H11       1.0  0.678479102497164  0.9005962023483605  0.2936108135443122  1.0000
  H   H12       1.0  0.3215237152066307  0.09940286510321532  0.7063874101675084  1.0000
  H   H13       1.0  0.8503475352449216  0.11536827472104957  0.03752041663696562  1.0000
  H   H14       1.0  0.14964990835348865  0.8846293621369697  0.962482279197097  1.0000
  H   H15       1.0  0.49203428715294  0.3384706299087697  0.03060543518288478  1.0000
  H   H16       1.0  0.5079719427206015  0.6615423260523059  0.9693969650873768  1.0000
  H   H17       1.0  0.21764931324150188  0.1678165236236069  0.026666067391147408  1.0000
  H   H18       1.0  0.7823469697439197  0.8321727822929716  0.9733355783018922  1.0000
  H   H19       1.0  0.9284936618587312  0.7115785672138344  0.11309405669589977  1.0000
  H   H20       1.0  0.07150651417117616  0.28841215418540134  0.8869058180744815  1.0000
  H   H21       1.0  0.045092145716296286  0.9277685998661627  0.6193133741043226  1.0000
  H   H22       1.0  0.9548888644506875  0.07223309411514833  0.380691747808477  1.0000
  H   H23       1.0  0.9342042850893435  0.08606035483830249  0.700183623118015  1.0000
  H   H24       1.0  0.06577415266720277  0.9139440959675299  0.29982276465835156  1.0000
  H   H25       1.0  0.09905012858966702  0.13958950454148317  0.6029018308014642  1.0000
  H   H26       1.0  0.9009264416407562  0.860412155610952  0.3971062671871053  1.0000
  H   H27       1.0  0.4811994655344094  0.17157481756290588  0.5029086752828036  1.0000
  H   H28       1.0  0.5187781138090203  0.8284393623627154  0.4970885682990698  1.0000
  H   H29       1.0  0.3220960552278882  0.14139870172859764  0.4533361516379841  1.0000
  H   H30       1.0  0.6778894673852207  0.858614140462265  0.5466604814810694  1.0000
  C   C1        1.0  0.6628079654401945  0.4266939201700238  0.3185029611666864  1.0000
  C   C2        1.0  0.33720170458951054  0.5733065829201822  0.6814925758059261  1.0000
  C   C3        1.0  0.8065998521390869  0.3933528498583598  0.2417325730012152  1.0000
  C   C4        1.0  0.19339968867573992  0.6066545233336315  0.7582658312851578  1.0000
  C   C5        1.0  0.008333137931771322  0.401225474221242  0.23833049646231794  1.0000
  C   C6        1.0  0.9916738892067515  0.5987666785026989  0.7616686143899827  1.0000
  C   C7        1.0  0.05268292232356241  0.4485622274228119  0.31258014463615785  1.0000
  C   C8        1.0  0.9473263584005523  0.5514354900590632  0.6874188879316847  1.0000
  C   C9        1.0  0.8991863184417429  0.4811152597044597  0.3867578903840254  1.0000
  C   C10       1.0  0.1008254646178131  0.5188685952000897  0.6132415433960077  1.0000
  C   C11       1.0  0.36696769489253  0.24595126286697416  0.16424575493746832  1.0000
  C   C12       1.0  0.6330464114218375  0.754049261110339  0.8357525744227345  1.0000
  C   C13       1.0  0.42689253688868684  0.1201849904970373  0.2389481809215468  1.0000
  C   C14       1.0  0.5731169006103657  0.8798085568467756  0.7610544239691706  1.0000
  C   C15       1.0  0.6340832803027397  0.9997480965717928  0.23579194122628883  1.0000
  C   C16       1.0  0.3659150978702712  0.00025093848887540075  0.7642086176209234  1.0000
  C   C17       1.0  0.7277875157732369  0.1169811154721856  0.0947870592151929  1.0000
  C   C18       1.0  0.2722217637335833  0.8830165976957574  0.9052138961737698  1.0000
  C   C19       1.0  0.5258955449564838  0.24433931979862683  0.09067677355163543  1.0000
  C   C20       1.0  0.4741100707903668  0.7556639221292513  0.9093240123648698  1.0000
  C   C21       1.0  0.08256335914583708  0.431378330819264  0.07883633263637078  1.0000
  C   C22       1.0  0.9174517692546122  0.5686083183457808  0.9211638172548504  1.0000
  C   C23       1.0  0.123732416063426  0.3137545009808277  0.01457754002255741  1.0000
  C   C24       1.0  0.8762755448381583  0.6862390470698189  0.9854207157236345  1.0000
  C   C25       1.0  0.9583496291113891  0.6181530840880286  0.06393632706451063  1.0000
  C   C26       1.0  0.04166588981194514  0.3818363549992725  0.9360584044103675  1.0000
  C   C27       1.0  0.7875241899769209  0.17116231884966737  0.5833055007834318  1.0000
  C   C28       1.0  0.21246164578030866  0.8288421816270954  0.4166989179217353  1.0000
  C   C29       1.0  0.9788927407413227  0.074345233001246  0.6290167237005875  1.0000
  C   C30       1.0  0.021084059179394044  0.9256633728317566  0.3709887929524953  1.0000
  N   N1        1.0  0.7077766009152527  0.46900976540424477  0.39020131050806844  1.0000
  N   N2        1.0  0.29222699012476744  0.5309948545703164  0.609798254238143  1.0000
  N   N3        1.0  0.15858943800702022  0.36337033135529134  0.161200358429312  1.0000
  N   N4        1.0  0.8414137681908335  0.6366315188286719  0.8387956515680274  1.0000
  N   N5        1.0  0.7861402255902378  0.9939005187309036  0.16530886527339567  1.0000
  N   N6        1.0  0.2138675765075746  0.0060971922679228996  0.8346890228517978  1.0000
  O   O1        1.0  0.7327450750542895  0.3487951384333812  0.5691665537790415  1.0000
  O   O2        1.0  0.2672613184922099  0.6512136718352153  0.4308285228277454  1.0000
  O   O3        1.0  0.6915436806944443  0.07823676778376411  0.562625566742696  1.0000
  O   O4        1.0  0.3084270365846961  0.9217759419918184  0.43738974614733905  1.0000
  O   O5        1.0  0.36154220245609986  0.238602041320469  0.46974472984788923  1.0000
  O   O6        1.0  0.6384617839759915  0.761405385832056  0.5302417251974916  1.0000
