data_image0
_chemical_formula_structural       V4Zn4H24C36N4O20
_chemical_formula_sum              "V4 Zn4 H24 C36 N4 O20"
_cell_length_a       10.556574502427722
_cell_length_b       10.684191208493377
_cell_length_c       11.213143197816024
_cell_angle_alpha    80.94361866387055
_cell_angle_beta     63.07618203793333
_cell_angle_gamma    63.661254680254025

_space_group_name_H-M_alt    "P 1"
_space_group_IT_number       1

loop_
  _space_group_symop_operation_xyz
  'x, y, z'

loop_
  _atom_site_type_symbol
  _atom_site_label
  _atom_site_symmetry_multiplicity
  _atom_site_fract_x
  _atom_site_fract_y
  _atom_site_fract_z
  _atom_site_occupancy
  V   V1        1.0  0.1620501415330438  0.03777457485212919  0.2822430550028869  1.0000
  V   V2        1.0  0.8379507861252411  0.9622234264520769  0.7177572196395373  1.0000
  V   V3        1.0  0.20164986661837492  0.7691301619200319  0.46295920058417284  1.0000
  V   V4        1.0  0.798354175657323  0.2308657438958903  0.5370400748553338  1.0000
  Zn  Zn1       1.0  0.2901185220811229  0.5010194584255956  0.2803963562563894  1.0000
  Zn  Zn2       1.0  0.7098819234244331  0.49897957937043436  0.7196021808627792  1.0000
  Zn  Zn3       1.0  0.2553430338932401  0.7682490928912244  0.09328268474991566  1.0000
  Zn  Zn4       1.0  0.7446569057295916  0.23175100025620313  0.9067176893179081  1.0000
  H   H1        1.0  0.9469219806432178  0.4081548281400132  0.27102935001577316  1.0000
  H   H2        1.0  0.0530774649618877  0.5918463109290287  0.7289710737647468  1.0000
  H   H3        1.0  0.7153786737850112  0.40678351574332794  0.265475625640292  1.0000
  H   H4        1.0  0.2846207777526005  0.5932176186108152  0.7345239045222482  1.0000
  H   H5        1.0  0.6819473934036752  0.7599400568061938  0.014578064944323864  1.0000
  H   H6        1.0  0.3180541035278637  0.24005898859709157  0.9854218095220375  1.0000
  H   H7        1.0  0.9086247571785863  0.7643850004546875  0.02570177645920773  1.0000
  H   H8        1.0  0.09137674568545151  0.2356140402337061  0.9742972043891739  1.0000
  H   H9        1.0  0.11602589539245406  0.32560607267537023  0.4117046099423049  1.0000
  H   H10       1.0  0.8839756134040897  0.6743929632981249  0.5882934772881044  1.0000
  H   H11       1.0  0.11639291680343433  0.14632849021347027  0.5786192249626507  1.0000
  H   H12       1.0  0.8836075227696231  0.8536705522974515  0.42138020577449686  1.0000
  H   H13       1.0  0.5038117985029089  0.18284197862127632  0.5914941380216304  1.0000
  H   H14       1.0  0.4961886351376494  0.8171570686045441  0.40850618633348995  1.0000
  H   H15       1.0  0.4793616947293487  0.36736765247899683  0.43263606284177303  1.0000
  H   H16       1.0  0.520639808134689  0.632631388209397  0.5673629180066158  1.0000
  H   H17       1.0  0.1290837718315815  0.9967059201783214  0.7054770477866014  1.0000
  H   H18       1.0  0.8709192764761581  0.003292082195720501  0.2945232206962772  1.0000
  H   H19       1.0  0.12567470901182526  0.8372090436582695  0.8886768161381369  1.0000
  H   H20       1.0  0.8743252365435055  0.16279104477426642  0.11132266431170734  1.0000
  H   H21       1.0  0.48561934649671223  0.8799813799985683  0.9135841126751243  1.0000
  H   H22       1.0  0.5143780418494615  0.12002185745112125  0.08641775403752663  1.0000
  H   H23       1.0  0.5068159953269031  0.0398705206440226  0.7310638419919542  1.0000
  H   H24       1.0  0.49318288693745416  0.9601295696110412  0.2689360883466492  1.0000
  C   C1        1.0  0.07842377329050271  0.5911895706713537  0.15555854703764987  1.0000
  C   C2        1.0  0.9215746090236225  0.408811570220216  0.8444423266316292  1.0000
  C   C3        1.0  0.9416599130552683  0.587405290734509  0.1497783480241636  1.0000
  C   C4        1.0  0.05834002656756355  0.4125948024129187  0.8502220260436602  1.0000
  C   C5        1.0  0.8875212223611655  0.4857722066421458  0.2162497367752821  1.0000
  C   C6        1.0  0.11247659067970521  0.5142278901503374  0.78375153707006  1.0000
  C   C7        1.0  0.7592010771788508  0.4836597768133546  0.2113132778119251  1.0000
  C   C8        1.0  0.240795259741347  0.516343453029073  0.78868725155354  1.0000
  C   C9        1.0  0.6836365126584953  0.5828256628217758  0.13940889447405164  1.0000
  C   C10       1.0  0.31636285769108236  0.4171733862265726  0.860591879769835  1.0000
  C   C11       1.0  0.7380045351523068  0.6841250420712937  0.0725077984093828  1.0000
  C   C12       1.0  0.2619939283498526  0.3158781841260776  0.9274918311785569  1.0000
  C   C13       1.0  0.8661085200769636  0.686094157793633  0.07785727335770783  1.0000
  C   C14       1.0  0.1338929709220693  0.3139048923245511  0.922143494726633  1.0000
  C   C15       1.0  0.5426021611382482  0.5839225808208468  0.13739955537663917  1.0000
  C   C16       1.0  0.4573972903993565  0.41607855353329637  0.8625999747859011  1.0000
  C   C17       1.0  0.19914205017994394  0.2911437065909226  0.45513506412481053  1.0000
  C   C18       1.0  0.8008583953256192  0.7088553312051075  0.5448634729943577  1.0000
  C   C19       1.0  0.20262236983138143  0.1884775939019789  0.5474956279789323  1.0000
  C   C20       1.0  0.7973780697416829  0.8115214486089357  0.45250380275820834  1.0000
  C   C21       1.0  0.31323512933768427  0.1440588399722174  0.5998474906857963  1.0000
  C   C22       1.0  0.6867668616115807  0.8559391595094609  0.4001523340678616  1.0000
  C   C23       1.0  0.41514832554950226  0.2095888819239988  0.5557906809469627  1.0000
  C   C24       1.0  0.584850550782349  0.7904112130459566  0.44421014300962003  1.0000
  C   C25       1.0  0.40359335043338973  0.313395356601788  0.46468073480189526  1.0000
  C   C26       1.0  0.5964086464483812  0.6866026381649846  0.5353181963337971  1.0000
  C   C27       1.0  0.317205703855258  0.036966011074604  0.7009987059277804  1.0000
  C   C28       1.0  0.682794805040828  0.9630351261719029  0.29900126796397325  1.0000
  C   C29       1.0  0.2129168841720811  0.9738634576982791  0.7456250959172336  1.0000
  C   C30       1.0  0.7870835554009759  0.026135584812642793  0.2543743348199143  1.0000
  C   C31       1.0  0.20876421139426088  0.8842088525660683  0.8496922083822652  1.0000
  C   C32       1.0  0.7912362975018256  0.11579228468043824  0.15030776550949543  1.0000
  C   C33       1.0  0.40905926984994795  0.9078932526475467  0.8643722664251924  1.0000
  C   C34       1.0  0.5909391877197052  0.09210997826471612  0.13562825678072707  1.0000
  C   C35       1.0  0.4199349346961582  0.998577448705227  0.7607113305341215  1.0000
  C   C36       1.0  0.5800640168912281  0.0014247362854292  0.23928914295909456  1.0000
  N   N1        1.0  0.2983498451218125  0.3528247870441632  0.4137236066937078  1.0000
  N   N2        1.0  0.7016521576924575  0.6471732030077249  0.5862744308240054  1.0000
  N   N3        1.0  0.3034246614384345  0.8531069232393236  0.9099962091641912  1.0000
  N   N4        1.0  0.6965732209254654  0.14689526828875193  0.09000560783576346  1.0000
  O   O1        1.0  0.15122738824720733  0.49286131459656707  0.21324502141097668  1.0000
  O   O2        1.0  0.8487741205493364  0.5071377213769281  0.7867530658194326  1.0000
  O   O3        1.0  0.11289345805121083  0.6932849751535882  0.10212236804030544  1.0000
  O   O4        1.0  0.8871064875041201  0.3067151132789477  0.8978771124095386  1.0000
  O   O5        1.0  0.46372274490896365  0.6906964940548407  0.09098727737735866  1.0000
  O   O6        1.0  0.536276700696142  0.309304645014194  0.9090131464031613  1.0000
  O   O7        1.0  0.5087800530878112  0.4796893449137088  0.1834460714358599  1.0000
  O   O8        1.0  0.49122202498198664  0.5203107351588658  0.8165516156184935  1.0000
  O   O9        1.0  0.12824132277071257  0.947349180138346  0.19802456126588186  1.0000
  O   O10       1.0  0.8717580535113639  0.05264986419510359  0.8019753193600251  1.0000
  O   O11       1.0  0.021423916180772665  0.8263873655131846  0.6127596387754294  1.0000
  O   O12       1.0  0.9785796954677225  0.17361168567483531  0.3872411231493657  1.0000
  O   O13       1.0  0.28242989886236103  0.1032831206760179  0.17900665074895977  1.0000
  O   O14       1.0  0.7175731672428896  0.8967148675533352  0.8209909368799871  1.0000
  O   O15       1.0  0.24842170230561325  0.9143514040506415  0.3852532184841664  1.0000
  O   O16       1.0  0.7515803064411629  0.08564658128634763  0.6147439254155671  1.0000
  O   O17       1.0  0.3432308639896249  0.6563592759226468  0.4983040187609261  1.0000
  O   O18       1.0  0.6567716903003884  0.3436397723730024  0.5016962994346557  1.0000
  O   O19       1.0  0.1807245598442294  0.6932518619927776  0.3540367187775431  1.0000
  O   O20       1.0  0.8192763559490502  0.3067461487412119  0.6459653431008263  1.0000
