data_image0
_chemical_formula_structural       Zn2H26C38S4N14O4
_chemical_formula_sum              "Zn2 H26 C38 S4 N14 O4"
_cell_length_a       6.108192472004397
_cell_length_b       11.468599019033892
_cell_length_c       14.870924651043689
_cell_angle_alpha    90.00026099390293
_cell_angle_beta     89.99991022467887
_cell_angle_gamma    90.00010322982506

_space_group_name_H-M_alt    "P 1"
_space_group_IT_number       1

loop_
  _space_group_symop_operation_xyz
  'x, y, z'

loop_
  _atom_site_type_symbol
  _atom_site_label
  _atom_site_symmetry_multiplicity
  _atom_site_fract_x
  _atom_site_fract_y
  _atom_site_fract_z
  _atom_site_occupancy
  Zn  Zn1       1.0  0.8317500292899352  0.49999844518889364  0.49999910404687137  1.0000
  Zn  Zn2       1.0  0.16824944608227094  8.161752159999998e-08  1.9633692218999998e-06  1.0000
  H   H1        1.0  0.5878796423901206  0.7156182498812597  0.4541725493009494  1.0000
  H   H2        1.0  0.5878771085540819  0.28438189169479944  0.5458258153126747  1.0000
  H   H3        1.0  0.4121214055957764  0.7843813195422625  0.954172569277503  1.0000
  H   H4        1.0  0.41212055437382833  0.21561777958500974  0.04582725303979628  1.0000
  H   H5        1.0  0.26913238270091  0.8266466679086192  0.518076739770855  1.0000
  H   H6        1.0  0.2691280847115393  0.17335403638788444  0.4819218294128901  1.0000
  H   H7        1.0  0.7308703335105518  0.673353795824255  0.018075135658286  1.0000
  H   H8        1.0  0.7308695471390861  0.3266456125274573  0.981923809636754  1.0000
  H   H9        1.0  0.1212355456546206  0.7687899325347516  0.6683376856962295  1.0000
  H   H10       1.0  0.12123201603429827  0.23120975633757723  0.3316609784041019  1.0000
  H   H11       1.0  0.8787682328995674  0.731210552859885  0.16833686097749015  1.0000
  H   H12       1.0  0.8787661906136393  0.26878812702862825  0.8316633343036696  1.0000
  H   H13       1.0  0.61450374933019  0.4990318814918452  0.678201944409352  1.0000
  H   H14       1.0  0.6145044342567445  0.5009674139684108  0.3217964031146963  1.0000
  H   H15       1.0  0.3854966815016993  0.0009668331405948001  0.17820332277140943  1.0000
  H   H16       1.0  0.3854954829677837  0.9990313682111134  0.8217965166319059  1.0000
  H   H17       1.0  0.9219675559318432  0.5256094976971469  0.8633147929284347  1.0000
  H   H18       1.0  0.9219688600649789  0.47439445577824557  0.1366853746359951  1.0000
  H   H19       1.0  0.0780338396180085  0.9743904033391787  0.3633146581033273  1.0000
  H   H20       1.0  0.0780317295890924  0.0256066277885196  0.6366853786245912  1.0000
  H   H21       1.0  0.12995945311654108  0.6406063672849882  0.786829082457693  1.0000
  H   H22       1.0  0.12995844277461538  0.3593933300498406  0.2131689035897892  1.0000
  H   H23       1.0  0.8700422350151982  0.8593922069445555  0.2868293830151458  1.0000
  H   H24       1.0  0.8700434914453297  0.14060733642432408  0.7131701454135777  1.0000
  H   H25       1.0  0.5474620260147418  0.49999979404620387  0.9999990388967388  1.0000
  H   H26       1.0  0.45253881098211923  1.7062624805999997e-06  0.4999990259535777  1.0000
  C   C1        1.0  0.5181403556006713  0.6938267339556106  0.5195585148881674  1.0000
  C   C2        1.0  0.51813650765191  0.3061733399619655  0.4804392220305472  1.0000
  C   C3        1.0  0.481862354935977  0.8061728666511738  0.019559551347050792  1.0000
  C   C4        1.0  0.4818611298720654  0.1938263001333809  0.9804402262114988  1.0000
  C   C5        1.0  0.3407343877262362  0.7541366479674494  0.5549693870094004  1.0000
  C   C6        1.0  0.34073047345933105  0.24586499774024162  0.4450298086756134  1.0000
  C   C7        1.0  0.6592681873562896  0.745864035169596  0.05496875428805478  1.0000
  C   C8        1.0  0.6592672995191151  0.2541353037210143  0.9450309094135247  1.0000
  C   C9        1.0  0.2591895929728096  0.7222489164960915  0.6384766060320357  1.0000
  C   C10       1.0  0.2591861048358695  0.2777509062069683  0.3615212970779424  1.0000
  C   C11       1.0  0.7408126626628185  0.7777505193679916  0.13847603222893665  1.0000
  C   C12       1.0  0.7408119875891258  0.22224889863107222  0.8615235791383427  1.0000
  C   C13       1.0  0.3570759166788874  0.6298864713240562  0.6856106715504707  1.0000
  C   C14       1.0  0.3570761921508137  0.3701134463448313  0.31438784118921587  1.0000
  C   C15       1.0  0.642924521505158  0.870113244849577  0.18561115527246838  1.0000
  C   C16       1.0  0.6429237177231855  0.12988607818766698  0.8143891913713828  1.0000
  C   C17       1.0  0.5338712423825811  0.5717642550453307  0.6452579453039887  1.0000
  C   C18       1.0  0.5338699208023455  0.42823496219031654  0.3547404539696473  1.0000
  C   C19       1.0  0.4661309873094622  0.9282352211515956  0.14525874527618748  1.0000
  C   C20       1.0  0.4661281975634921  0.0717639303708069  0.8547410423790536  1.0000
  C   C21       1.0  0.3777084164404697  0.5340574340335991  0.8346388905452997  1.0000
  C   C22       1.0  0.3777112197561081  0.46594250365262724  0.16535960895189555  1.0000
  C   C23       1.0  0.6222930888027349  0.9659422964694568  0.33463972185198537  1.0000
  C   C24       1.0  0.622290897353828  0.03405787849411719  0.6653592931285529  1.0000
  C   C25       1.0  0.2523339849619859  0.5184881583250416  0.9201863749314254  1.0000
  C   C26       1.0  0.2523355304781346  0.4815160174620772  0.07981220503753408  1.0000
  C   C27       1.0  0.7476671930341467  0.9815129528765495  0.42018718009717293  1.0000
  C   C28       1.0  0.7476652767378908  0.018486471771666395  0.5798124268713564  1.0000
  C   C29       1.0  0.0231024948049381  0.5161006684600622  0.9234498594218221  1.0000
  C   C30       1.0  0.023102423644061794  0.4839032849470044  0.07655021257186687  1.0000
  C   C31       1.0  0.9768986707058785  0.9838987182549631  0.4234498533429586  1.0000
  C   C32       1.0  0.9768983960475875  0.0160974409949759  0.5765502789541798  1.0000
  C   C33       1.0  0.0794952746622002  0.6505234610703852  0.360249723689371  1.0000
  C   C34       1.0  0.0794827764370822  0.34947357147805036  0.6397530019165174  1.0000
  C   C35       1.0  0.920501221169303  0.8494755497976173  0.8602523343161863  1.0000
  C   C36       1.0  0.920517801483321  0.1505284022786526  0.1397532138095485  1.0000
  C   C37       1.0  0.36828627066493164  0.5000005790808187  0.9999990963946528  1.0000
  C   C38       1.0  0.6317162034761806  9.21230658e-07  0.49999964090828536  1.0000
  S   S1        1.0  0.2114576601214253  0.7348091206999213  0.2927826046815127  1.0000
  S   S2        1.0  0.21145117040806835  0.26519065570573025  0.7072186913289044  1.0000
  S   S3        1.0  0.7885358195056611  0.7651894889356186  0.7927843334785505  1.0000
  S   S4        1.0  0.7885442380000782  0.2348152070558029  0.20721995443879848  1.0000
  N   N1        1.0  0.9833451132747937  0.5884894445440806  0.41041701960744337  1.0000
  N   N2        1.0  0.9833313773513835  0.41150497707101863  0.5895864708194338  1.0000
  N   N3        1.0  0.0166528277917237  0.9115072488307021  0.9104190818385545  1.0000
  N   N4        1.0  0.0166644810350434  0.08849844224122451  0.08958906373142378  1.0000
  N   N5        1.0  0.6104538455784763  0.6044009931179416  0.5642132525848422  1.0000
  N   N6        1.0  0.6104521047807409  0.395598298414221  0.43578576999230717  1.0000
  N   N7        1.0  0.38954705699200787  0.8955980011036503  0.0642139878383787  1.0000
  N   N8        1.0  0.3895457035583759  0.10440020417735242  0.9357858489655013  1.0000
  N   N9        1.0  0.2739398180690884  0.5999161510202883  0.7699591333087666  1.0000
  N   N10       1.0  0.27394051647434736  0.40008368599636424  0.23003943278649783  1.0000
  N   N11       1.0  0.7260602974514896  0.9000831948293284  0.2699596682394939  1.0000
  N   N12       1.0  0.7260613532099354  0.0999162088589358  0.7300399525951133  1.0000
  N   N13       1.0  0.9115258130025765  0.5000022288108426  5.797391083000001e-07  1.0000
  N   N14       1.0  0.0884753352070575  0.9999972554795633  0.5000002147966285  1.0000
  O   O1        1.0  0.5617742727630314  0.49117780121404325  0.8247025890567626  1.0000
  O   O2        1.0  0.5617755443876646  0.5088231869824611  0.1752951198581272  1.0000
  O   O3        1.0  0.4382272347975371  0.0088209127152297  0.3247039609797966  1.0000
  O   O4        1.0  0.4382249332621198  0.9911790836813524  0.6752951721319531  1.0000
