data_image0
_chemical_formula_structural       Zn6H28C40Br4O28
_chemical_formula_sum              "Zn6 H28 C40 Br4 O28"
_cell_length_a       18.714563920797854
_cell_length_b       18.90284743837018
_cell_length_c       19.145998618225185
_cell_angle_alpha    109.98711709579165
_cell_angle_beta     108.72935660438391
_cell_angle_gamma    108.99227878511347

_space_group_name_H-M_alt    "P 1"
_space_group_IT_number       1

loop_
  _space_group_symop_operation_xyz
  'x, y, z'

loop_
  _atom_site_type_symbol
  _atom_site_label
  _atom_site_symmetry_multiplicity
  _atom_site_fract_x
  _atom_site_fract_y
  _atom_site_fract_z
  _atom_site_occupancy
  Zn  Zn1       1.0  0.0001876220459991637  0.5504401748957832  0.04892285789533459  1.0000
  Zn  Zn2       1.0  0.0026059871876853206  0.4296017850669998  0.9237923262351019  1.0000
  Zn  Zn3       1.0  0.5596968554502978  0.5733595513612855  0.5174693299338813  1.0000
  Zn  Zn4       1.0  0.4323722957173005  0.44739496389119193  0.5111309645224795  1.0000
  Zn  Zn5       1.0  0.4440167409606062  0.0189686201524992  0.9546991923773974  1.0000
  Zn  Zn6       1.0  0.563785981017503  0.0179928679290953  0.07878157189445288  1.0000
  H   H1        1.0  0.7445239120221246  0.5463068538770841  0.6717602078229917  1.0000
  H   H2        1.0  0.18384610512055843  0.41620126325487666  0.32704063341135037  1.0000
  H   H3        1.0  0.4878962484955451  0.2328988768473224  0.19027678018008498  1.0000
  H   H4        1.0  0.5924059199954357  0.8236128523711342  0.8937864253344543  1.0000
  H   H5        1.0  0.6633960033098132  0.435773031043432  0.36940256689603507  1.0000
  H   H6        1.0  0.4193408033521706  0.6267462233531091  0.7000927897796531  1.0000
  H   H7        1.0  0.4902525441923729  0.290058925852179  0.3228917368649036  1.0000
  H   H8        1.0  0.5783376594017753  0.7821717673770436  0.7369145975627733  1.0000
  H   H9        1.0  0.6231099935772378  0.42961117637236873  0.7103330752559672  1.0000
  H   H10       1.0  0.33118929497520355  0.5529339688738517  0.32904310682403803  1.0000
  H   H11       1.0  0.6026851757603567  0.22171074067111363  0.9114567775996747  1.0000
  H   H12       1.0  0.35760147712767326  0.8501045321186353  0.10122043438852316  1.0000
  H   H13       1.0  0.7227610120252876  0.1581678055356122  0.9878987543522443  1.0000
  H   H14       1.0  0.23604956242537165  0.7894540623461525  0.9151756223510507  1.0000
  H   H15       1.0  0.731896918468621  0.33216390928924266  0.9294586985427956  1.0000
  H   H16       1.0  0.22750093978919478  0.73893602182558  0.08669403263060359  1.0000
  H   H17       1.0  0.774176710754091  0.49496830585633234  0.9595914898041118  1.0000
  H   H18       1.0  0.6854743757241694  0.41392004040733354  0.8540357224234543  1.0000
  H   H19       1.0  0.67896250620457  0.5040394485310601  0.9179452459668127  1.0000
  H   H20       1.0  0.25575110725165473  0.6154058303326125  0.15556051581825164  1.0000
  H   H21       1.0  0.23550029977665327  0.5120671579588104  0.08187738409779405  1.0000
  H   H22       1.0  0.34049486752949315  0.5877315689949469  0.17379618587640527  1.0000
  H   H23       1.0  0.9349023868060726  0.22343734353361097  0.9437410715089597  1.0000
  H   H24       1.0  0.9438087552187965  0.27385029366840996  0.04709194398584048  1.0000
  H   H25       1.0  0.8941398159431202  0.15867245123865104  0.986534084259617  1.0000
  H   H26       1.0  0.15581948102287416  0.5721746105645025  0.7672483142355874  1.0000
  H   H27       1.0  0.08233252736079781  0.5170090365022234  0.7959884052760913  1.0000
  H   H28       1.0  0.09210346852215417  0.6159177006754674  0.7983137199934518  1.0000
  C   C1        1.0  0.8795158697243581  0.34617953865255663  0.9491366745633841  1.0000
  C   C2        1.0  0.12073185975788193  0.5819353646557417  0.9659743991277666  1.0000
  C   C3        1.0  0.8090370393694145  0.2746996248917882  0.9440420262541237  1.0000
  C   C4        1.0  0.18410031342737204  0.6506688105033547  0.9613718074662078  1.0000
  C   C5        1.0  0.5297803116681408  0.42336464048635497  0.40483833855200413  1.0000
  C   C6        1.0  0.526633754002127  0.6482138298341767  0.6385930070293925  1.0000
  C   C7        1.0  0.5804166990791302  0.4740412810027976  0.6203348621573144  1.0000
  C   C8        1.0  0.36032107969958826  0.49682874349939965  0.40726619527698926  1.0000
  C   C9        1.0  0.5274087593046276  0.8919734819002587  0.9377731384778162  1.0000
  C   C10       1.0  0.5402213545933705  0.1508789678868609  0.14935125471026114  1.0000
  C   C11       1.0  0.5941900840391767  0.1110203735503745  0.9721534210221846  1.0000
  C   C12       1.0  0.36327707951382865  0.9049060879910871  0.9920440134391414  1.0000
  C   C13       1.0  0.6165025122334811  0.29876795929816063  0.28360762547401924  1.0000
  C   C14       1.0  0.4634962699667399  0.7568062354456799  0.7985290892694368  1.0000
  C   C15       1.0  0.5475305280559225  0.22931362376262854  0.210921577006367  1.0000
  C   C16       1.0  0.5300950741562078  0.8220846956162405  0.8751586947080556  1.0000
  C   C17       1.0  0.6099147002794254  0.3701694495131491  0.3372489249963452  1.0000
  C   C18       1.0  0.4696507904815093  0.6942205271260563  0.7341732200597947  1.0000
  C   C19       1.0  0.5409660962935661  0.35574466603431887  0.34987053503493126  1.0000
  C   C20       1.0  0.5294204811817594  0.7155434946445994  0.7094487989120071  1.0000
  C   C21       1.0  0.888428272232147  0.5220073013898625  0.9035987695426824  1.0000
  C   C22       1.0  0.10417619520897863  0.5014751548415789  0.12426099273637457  1.0000
  C   C23       1.0  0.7297312869132001  0.5119922170788627  0.7053886455623087  1.0000
  C   C24       1.0  0.21237702609003148  0.460846077979184  0.30730030515568535  1.0000
  C   C25       1.0  0.6458136044514405  0.4692591858045532  0.6840520368195585  1.0000
  C   C26       1.0  0.29968349608967776  0.5057476251566584  0.3443533174221615  1.0000
  C   C27       1.0  0.8019828137168687  0.5138683917662021  0.7655409089045693  1.0000
  C   C28       1.0  0.1532900926193578  0.46801686461756736  0.2432789550841862  1.0000
  C   C29       1.0  0.8133740539705271  0.5200180267799863  0.8418024218180661  1.0000
  C   C30       1.0  0.1705384078291914  0.49987916204658944  0.1929101192274417  1.0000
  C   C31       1.0  0.6621021907666389  0.2175887096600704  0.9329358598379683  1.0000
  C   C32       1.0  0.29985392922584725  0.8054150974306041  0.038633429979825204  1.0000
  C   C33       1.0  0.6640590541690728  0.1618454784192522  0.9620205991618463  1.0000
  C   C34       1.0  0.2936833951356519  0.8270655493906246  0.9774572507226225  1.0000
  C   C35       1.0  0.7349148349597955  0.2775950815438862  0.9350083409715071  1.0000
  C   C36       1.0  0.23472167498289317  0.7313929483565716  0.030679232162931818  1.0000
  C   C37       1.0  0.7224285825099271  0.48306851787236843  0.9020160554116857  1.0000
  C   C38       1.0  0.27079977519458254  0.5626518545791798  0.14890336605827076  1.0000
  C   C39       1.0  0.9038458811989755  0.21726220050846476  0.9827004295911195  1.0000
  C   C40       1.0  0.1268524841147212  0.580237380999364  0.8088389699929766  1.0000
  Br  Br1       1.0  0.8890878052675647  0.5195659370534215  0.7329115565701232  1.0000
  Br  Br2       1.0  0.03715085606427952  0.4222921997512756  0.22464864830014622  1.0000
  Br  Br3       1.0  0.7304126999506622  0.31398171654738866  0.32463179326105523  1.0000
  Br  Br4       1.0  0.34665872004750053  0.734530430944453  0.7609356532388676  1.0000
  O   O1        1.0  0.9014218044436146  0.4229084070628417  0.9995860953900076  1.0000
  O   O2        1.0  0.09362585729122942  0.5023297995034285  0.9132927539476798  1.0000
  O   O3        1.0  0.5798327828143499  0.9232746157160393  0.017269579248285667  1.0000
  O   O4        1.0  0.481894732497345  0.1174521841882452  0.07298302289427737  1.0000
  O   O5        1.0  0.5150863517142525  0.0905936693329323  0.9255247714874528  1.0000
  O   O6        1.0  0.43908392745585445  0.9400195882532926  0.05354152721618289  1.0000
  O   O7        1.0  0.6173165496094839  0.08999214945994541  0.02879156030266465  1.0000
  O   O8        1.0  0.3413138672624286  0.931387532742228  0.9386385636345979  1.0000
  O   O9        1.0  0.9133064519548741  0.32464951608516673  0.9018131923811838  1.0000
  O   O10       1.0  0.09717154456840403  0.605318832639199  0.021210586640009462  1.0000
  O   O11       1.0  0.9168455582377675  0.5727868913972499  0.9831152958803671  1.0000
  O   O12       1.0  0.08245450947929812  0.4520146297898222  0.04825416560850476  1.0000
  O   O13       1.0  0.9168764428278919  0.4728764644716179  0.8753532985174034  1.0000
  O   O14       1.0  0.07842893538742152  0.5560714031384251  0.14848101619086412  1.0000
  O   O15       1.0  0.5814560898737895  0.5034617645879607  0.4333993700699922  1.0000
  O   O16       1.0  0.471715686549814  0.5699797665838133  0.607474080672283  1.0000
  O   O17       1.0  0.4686738774912129  0.39599035058119375  0.42096948361596287  1.0000
  O   O18       1.0  0.5802366261968788  0.6746527887509332  0.6124649870610528  1.0000
  O   O19       1.0  0.6072780693267533  0.5276643508746232  0.596658994362997  1.0000
  O   O20       1.0  0.3323976321440086  0.44110332184042994  0.43002954792032005  1.0000
  O   O21       1.0  0.4997780925361184  0.4232323039999102  0.592558334363254  1.0000
  O   O22       1.0  0.4402224904659562  0.5470749770455896  0.43551552540190397  1.0000
  O   O23       1.0  0.4765487692001927  0.9184755415310947  0.9104673737889545  1.0000
  O   O24       1.0  0.5893480334731367  0.120744519142491  0.1753137723016422  1.0000
  O   O25       1.0  0.7563509281997725  0.5335028447631558  0.8671229993598857  1.0000
  O   O26       1.0  0.2508462874494273  0.5280481149423937  0.20085071434422033  1.0000
  O   O27       1.0  0.8180660972582388  0.2064602899232142  0.9437163962279059  1.0000
  O   O28       1.0  0.19878814007498855  0.6301169305420872  0.8940125802131222  1.0000
