data_image0
_chemical_formula_structural       Cu8H112C128N16O48
_chemical_formula_sum              "Cu8 H112 C128 N16 O48"
_cell_length_a       8.579102601000304
_cell_length_b       8.596406795016522
_cell_length_c       52.642635329102184
_cell_angle_alpha    89.99977577837903
_cell_angle_beta     90.00002739942546
_cell_angle_gamma    90.00001297663025

_space_group_name_H-M_alt    "P 1"
_space_group_IT_number       1

loop_
  _space_group_symop_operation_xyz
  'x, y, z'

loop_
  _atom_site_type_symbol
  _atom_site_label
  _atom_site_symmetry_multiplicity
  _atom_site_fract_x
  _atom_site_fract_y
  _atom_site_fract_z
  _atom_site_occupancy
  Cu  Cu1       1.0  0.0861511575208382  0.44506783273415346  0.7374927650799563  1.0000
  Cu  Cu2       1.0  0.36594887099640516  0.6658210945242045  0.9844621043687952  1.0000
  Cu  Cu3       1.0  0.41384788887975776  0.5549337134701703  0.23749288846306635  1.0000
  Cu  Cu4       1.0  0.13404622994335819  0.3341745350001872  0.48446063719396903  1.0000
  Cu  Cu5       1.0  0.9138450469967409  0.9450660677923679  0.7625077229104136  1.0000
  Cu  Cu6       1.0  0.6340507667873965  0.1658178307843841  0.5155378022913268  1.0000
  Cu  Cu7       1.0  0.5861561000972131  0.0549349917364168  0.26250719031067865  1.0000
  Cu  Cu8       1.0  0.8659519945187952  0.8341798392215979  0.015539073112435601  1.0000
  H   H1        1.0  0.609996230563567  0.7862624894419881  0.7612052053327716  1.0000
  H   H2        1.0  0.5233751975237337  0.7687395645303212  0.7039759297485164  1.0000
  H   H3        1.0  0.25155183443019513  0.23706623210846794  0.7038246907859432  1.0000
  H   H4        1.0  0.277212953701138  0.19168853139721162  0.6572064094643083  1.0000
  H   H5        1.0  0.9133610977046371  0.5344040202051302  0.6461263325618062  1.0000
  H   H6        1.0  0.8996079819626457  0.5612262930180307  0.692919383570434  1.0000
  H   H7        1.0  0.9398815293576062  0.3191019533525932  0.7837948522389979  1.0000
  H   H8        1.0  0.9693846867473611  0.35306442519411246  0.8304560703629775  1.0000
  H   H9        1.0  0.3151228006035324  0.7083618258852767  0.8146958917675491  1.0000
  H   H10       1.0  0.27202031900537793  0.6603771993893376  0.7693203275118137  1.0000
  H   H11       1.0  0.09016458709228199  0.4734234946367478  0.8656742189345294  1.0000
  H   H12       1.0  0.33865329498338775  0.7248659088354402  0.8555994247617421  1.0000
  H   H13       1.0  0.1090768791740402  0.48176837655519467  0.9047007586575974  1.0000
  H   H14       1.0  0.15709828877046306  0.5075285923206039  0.9508549766393203  1.0000
  H   H15       1.0  0.4827465921120151  0.857308623384796  0.9399728236705444  1.0000
  H   H16       1.0  0.4531968113456911  0.843368476695133  0.8928063052927655  1.0000
  H   H17       1.0  0.2651753774996449  0.1846080348217356  0.5291847049334067  1.0000
  H   H18       1.0  0.23705478963167778  0.19939039734899916  0.5755182457551058  1.0000
  H   H19       1.0  0.8883700222317826  0.5582835836970194  0.5639100752153681  1.0000
  H   H20       1.0  0.9307590007985097  0.5286077885631214  0.5177617508083543  1.0000
  H   H21       1.0  0.9436439220975569  0.48622506772583324  0.6063468056920556  1.0000
  H   H22       1.0  0.21351859209561747  0.2557960475021943  0.6149748380998191  1.0000
  H   H23       1.0  0.5832463022951869  0.45524632972085755  0.7567262410046923  1.0000
  H   H24       1.0  0.5917133243794906  0.4686594518587058  0.7116067253631826  1.0000
  H   H25       1.0  0.3726765350613093  0.16913110901185752  0.0053023167440998  1.0000
  H   H26       1.0  0.3919037070176117  0.15524177929271593  0.9603777980405824  1.0000
  H   H27       1.0  0.7012855041155603  0.1406168211828742  0.0124473078456475  1.0000
  H   H28       1.0  0.6939329642406092  0.225869076408145  0.9537307037209005  1.0000
  H   H29       1.0  0.8900025815033104  0.21373860128533548  0.2612051650277962  1.0000
  H   H30       1.0  0.9766292765050792  0.23125708084556607  0.20397778466659844  1.0000
  H   H31       1.0  0.24845410796083905  0.7629465901778475  0.2038250480935773  1.0000
  H   H32       1.0  0.22278352835582638  0.8083184280746707  0.15720654578448293  1.0000
  H   H33       1.0  0.5866303865130504  0.4655998274796857  0.14612724712252861  1.0000
  H   H34       1.0  0.6003941287197136  0.4387869031269814  0.1929203163579842  1.0000
  H   H35       1.0  0.5601138514241198  0.6808927798094615  0.2837944873208897  1.0000
  H   H36       1.0  0.5306143263767281  0.6469326799275661  0.33045553487119855  1.0000
  H   H37       1.0  0.18488229805581108  0.29162740127106457  0.3146948357126078  1.0000
  H   H38       1.0  0.22798931040514248  0.3396084617355156  0.2693190542183928  1.0000
  H   H39       1.0  0.4098313345913454  0.5265761439816857  0.36567360028812607  1.0000
  H   H40       1.0  0.16134143182758007  0.27513513441740395  0.3555993272001814  1.0000
  H   H41       1.0  0.39091565894895547  0.5182349801932773  0.4047009036952645  1.0000
  H   H42       1.0  0.34289088648387883  0.4924748219819151  0.4508547544419131  1.0000
  H   H43       1.0  0.0172460484170784  0.1426950516241448  0.43997260946404293  1.0000
  H   H44       1.0  0.046796857866325994  0.1566328384601334  0.3928062744631333  1.0000
  H   H45       1.0  0.2348184016218937  0.8153985018591497  0.0291852175956109  1.0000
  H   H46       1.0  0.26294262088074294  0.8006127027536252  0.07551896004303421  1.0000
  H   H47       1.0  0.6116153951671066  0.4417036212343604  0.0639108170544063  1.0000
  H   H48       1.0  0.5692286138637002  0.47138982816813524  0.017762470335341604  1.0000
  H   H49       1.0  0.5563497778727111  0.5137739165805328  0.1063478770309416  1.0000
  H   H50       1.0  0.28647893297024035  0.7441991276807584  0.1149746405009893  1.0000
  H   H51       1.0  0.9167466686534453  0.5447548683004654  0.2567269410033788  1.0000
  H   H52       1.0  0.9082946686702655  0.5313346841743112  0.2116066734318807  1.0000
  H   H53       1.0  0.1273113466016653  0.8308655303621177  0.5053004302981634  1.0000
  H   H54       1.0  0.1081169677029834  0.8447730396910558  0.4603733429854416  1.0000
  H   H55       1.0  0.7986962669914703  0.8593925557293006  0.5124400977832053  1.0000
  H   H56       1.0  0.8060815598855342  0.774132055106783  0.4537261194502379  1.0000
  H   H57       1.0  0.39000343465249193  0.2862642916195385  0.7387944343730268  1.0000
  H   H58       1.0  0.4766349543111943  0.26873652530962744  0.7960256207617818  1.0000
  H   H59       1.0  0.7484466539575435  0.7370589702195929  0.7961755502518812  1.0000
  H   H60       1.0  0.7227866899749315  0.6916813101567741  0.842794240501597  1.0000
  H   H61       1.0  0.08663617890104548  0.03440416036881539  0.8538732781857945  1.0000
  H   H62       1.0  0.10039163199762409  0.0612205776505022  0.8070802100328935  1.0000
  H   H63       1.0  0.060108818354215984  0.8190941257445418  0.7162060961974248  1.0000
  H   H64       1.0  0.030610331192541206  0.853057708813182  0.669545046322739  1.0000
  H   H65       1.0  0.6848756812484423  0.2083673025008252  0.6853047475357884  1.0000
  H   H66       1.0  0.7279793175406439  0.1603781088047  0.730680722387568  1.0000
  H   H67       1.0  0.90982929263852  0.973423636378648  0.6343268208089583  1.0000
  H   H68       1.0  0.6613440250020232  0.22486654371883216  0.6443998742721391  1.0000
  H   H69       1.0  0.890923996193379  0.9817682857498081  0.5952985661108912  1.0000
  H   H70       1.0  0.8429013129603646  0.0075327134255119  0.5491444613272165  1.0000
  H   H71       1.0  0.5172554205314839  0.3573100838914129  0.5600265806588568  1.0000
  H   H72       1.0  0.546804032499004  0.34337114043810857  0.60719253806721  1.0000
  H   H73       1.0  0.7348219333173488  0.6846058921919038  0.9708153796767365  1.0000
  H   H74       1.0  0.7629471870440695  0.6993893710801941  0.9244814494849933  1.0000
  H   H75       1.0  0.1116307566819046  0.0582829230933797  0.9360895202675295  1.0000
  H   H76       1.0  0.06923944011083448  0.0286071760969477  0.9822384335250832  1.0000
  H   H77       1.0  0.05635811990973849  0.986228110715679  0.8936534660269972  1.0000
  H   H78       1.0  0.7864880599215525  0.7557936452334957  0.8850263407641421  1.0000
  H   H79       1.0  0.41674640767528354  0.9552542197994641  0.7432761400767661  1.0000
  H   H80       1.0  0.4082922104960645  0.9686557896237745  0.7883939375072302  1.0000
  H   H81       1.0  0.6273251486771868  0.6691306965868763  0.49469635930832123  1.0000
  H   H82       1.0  0.6080947627317386  0.6552371422814927  0.5396209756222277  1.0000
  H   H83       1.0  0.2987150075066438  0.6406153426374033  0.4875523362354031  1.0000
  H   H84       1.0  0.306066687217978  0.7258665386873205  0.5462678348324275  1.0000
  H   H85       1.0  0.1099967811504854  0.713730243732556  0.23879519215241632  1.0000
  H   H86       1.0  0.023370090141305897  0.7312566389750117  0.2960237010729045  1.0000
  H   H87       1.0  0.7515487627717262  0.2629494256504898  0.2961756575470035  1.0000
  H   H88       1.0  0.777211193349153  0.30832131575508737  0.3427941308516367  1.0000
  H   H89       1.0  0.41336437101216456  0.965598087529237  0.3538719992516874  1.0000
  H   H90       1.0  0.3996076164381036  0.9387897709348253  0.3070793270754919  1.0000
  H   H91       1.0  0.4398901662413621  0.1808951343958753  0.21620532097261255  1.0000
  H   H92       1.0  0.4693861866843108  0.1469291793631982  0.1695444850932546  1.0000
  H   H93       1.0  0.8151170823382329  0.791622810538783  0.18530528171560692  1.0000
  H   H94       1.0  0.7720147434100113  0.8396085906021042  0.23068103253643102  1.0000
  H   H95       1.0  0.5901679854342203  0.026574677621482596  0.1343264966139941  1.0000
  H   H96       1.0  0.8386579448095688  0.7751326922280556  0.1444002308898007  1.0000
  H   H97       1.0  0.6090813279304611  0.018239106192162107  0.0952986286568134  1.0000
  H   H98       1.0  0.6571050427862417  0.9924769475156198  0.04914466471127811  1.0000
  H   H99       1.0  0.9827509668103076  0.6426958265044007  0.0600276031679172  1.0000
  H   H100      1.0  0.9532013261579448  0.6566348032715582  0.10719335937842803  1.0000
  H   H101      1.0  0.7651821498101653  0.3153959932437189  0.470815264556407  1.0000
  H   H102      1.0  0.7370567615597706  0.3006078080060561  0.4244811516413877  1.0000
  H   H103      1.0  0.38838285378653126  0.9417057223524952  0.4360893943949408  1.0000
  H   H104      1.0  0.4307649793592816  0.9713919965203318  0.4822379120968705  1.0000
  H   H105      1.0  0.4436460423689396  0.013773184150508698  0.3936529878950523  1.0000
  H   H106      1.0  0.7135157741302577  0.2442044790938382  0.38502550724256684  1.0000
  H   H107      1.0  0.0832584836284695  0.04474835115693311  0.24327390412015157  1.0000
  H   H108      1.0  0.09171281180118031  0.031335230922231005  0.2883936103880913  1.0000
  H   H109      1.0  0.872688328773762  0.3308717799694989  0.9946991808935552  1.0000
  H   H110      1.0  0.891883590416981  0.3447704202085616  0.0396254107479805  1.0000
  H   H111      1.0  0.2012999180099158  0.3593918455312277  0.9875585453741209  1.0000
  H   H112      1.0  0.19391548527761418  0.27413260900431174  0.0462736292400194  1.0000
  C   C1        1.0  0.1792307378542972  0.30004386246942977  0.6902330230225076  1.0000
  C   C2        1.0  0.19298971230734446  0.2764924744362958  0.664259597363696  1.0000
  C   C3        1.0  0.09961396343033609  0.3609814574290908  0.647188232878179  1.0000
  C   C4        1.0  0.9911233195382465  0.46508073699765623  0.6579555528077706  1.0000
  C   C5        1.0  0.9829278635573432  0.4818897714295003  0.6841202706562228  1.0000
  C   C6        1.0  0.0229896132985061  0.4027250685117991  0.7915354733096152  1.0000
  C   C7        1.0  0.0398165882054258  0.4232938178507766  0.817558860631145  1.0000
  C   C8        1.0  0.1469676817623693  0.5327836485073904  0.8270708916440057  1.0000
  C   C9        1.0  0.2309881084646292  0.6198702592077225  0.8090987425440944  1.0000
  C   C10       1.0  0.20787259687573817  0.593768961177311  0.7833965792636662  1.0000
  C   C11       1.0  0.1653997211401972  0.549622917031627  0.8544127932391066  1.0000
  C   C12       1.0  0.2638622628653735  0.6471251471990486  0.8666623426681996  1.0000
  C   C13       1.0  0.2802136646273539  0.6584749108791286  0.8941472858873709  1.0000
  C   C14       1.0  0.19528171881954387  0.5655277217163714  0.9113001389355164  1.0000
  C   C15       1.0  0.22043473832040658  0.5786957072900307  0.9371679516327235  1.0000
  C   C16       1.0  0.4031368447454041  0.7741716582605137  0.9311826336795477  1.0000
  C   C17       1.0  0.3849659075246946  0.7660662583258074  0.9049377488508838  1.0000
  C   C18       1.0  0.1842916480717207  0.2675169834707134  0.5376546159573438  1.0000
  C   C19       1.0  0.16717218082798976  0.2768426585729599  0.5637450614491684  1.0000
  C   C20       1.0  0.06073333662858  0.38385351104731313  0.574210114639321  1.0000
  C   C21       1.0  0.9739966742630981  0.47433115648001223  0.5570992761801037  1.0000
  C   C22       1.0  0.9968067127960791  0.4583654970533501  0.5311241388122525  1.0000
  C   C23       1.0  0.037235582788461785  0.4054121911146211  0.6013379280479328  1.0000
  C   C24       1.0  0.1203002341152057  0.3369031196331562  0.6200613699646739  1.0000
  C   C25       1.0  0.7980205137973398  0.5684460856504502  0.7475669073873874  1.0000
  C   C26       1.0  0.6199016526477336  0.5677480844477002  0.7488280456660732  1.0000
  C   C27       1.0  0.37909670942644164  0.5866586043609345  0.7220736704609794  1.0000
  C   C28       1.0  0.557364769918088  0.577380338357159  0.7213111806258183  1.0000
  C   C29       1.0  0.4873123394696534  0.13363580122589272  0.9979509656634138  1.0000
  C   C30       1.0  0.5059191674205435  0.3708259348114069  0.9701956311658579  1.0000
  C   C31       1.0  0.49913522088061757  0.1926980206429718  0.9702458372982221  1.0000
  C   C32       1.0  0.4910750636114543  0.9554280017563668  0.9974355313675078  1.0000
  C   C33       1.0  0.32077399945193713  0.699965795606836  0.19023323632552555  1.0000
  C   C34       1.0  0.3070114527207224  0.7235178058862601  0.16426017444761953  1.0000
  C   C35       1.0  0.40038715203345987  0.6390245787682148  0.1471888713273941  1.0000
  C   C36       1.0  0.5088798552550102  0.5349216640103052  0.1579569868101842  1.0000
  C   C37       1.0  0.5170742215774027  0.5181166558580798  0.18412114616770478  1.0000
  C   C38       1.0  0.4770130868735549  0.5972682033266494  0.2915350047219007  1.0000
  C   C39       1.0  0.46018502189834  0.5767034836486146  0.3175582139054001  1.0000
  C   C40       1.0  0.3530351215802057  0.4672076087282093  0.327070116512985  1.0000
  C   C41       1.0  0.26901464269739955  0.380120265324642  0.309097066666034  1.0000
  C   C42       1.0  0.2921300796661654  0.40622334237065166  0.2833960282807695  1.0000
  C   C43       1.0  0.33460199596309076  0.4503804812141396  0.35441183745696486  1.0000
  C   C44       1.0  0.23613482731042265  0.35288261068960475  0.3666612514983925  1.0000
  C   C45       1.0  0.2197765116086785  0.3415345150947857  0.39414658060453434  1.0000
  C   C46       1.0  0.30470850721671633  0.4344754769353115  0.4112997608470507  1.0000
  C   C47       1.0  0.2795555628189703  0.4213068716384569  0.4371677699412474  1.0000
  C   C48       1.0  0.09685810150881478  0.2258310640610119  0.43118237259769643  1.0000
  C   C49       1.0  0.1150266312860282  0.2339394193034181  0.4049374840176796  1.0000
  C   C50       1.0  0.31570099001670826  0.7324823706357009  0.0376549980317549  1.0000
  C   C51       1.0  0.3328251955030694  0.7231583970260189  0.0637460207132676  1.0000
  C   C52       1.0  0.43925824197100377  0.6161426407227709  0.0742117205749793  1.0000
  C   C53       1.0  0.5259933858560472  0.5256643545484323  0.0571007174464171  1.0000
  C   C54       1.0  0.5031867687781144  0.5416352893768845  0.0311253781143463  1.0000
  C   C55       1.0  0.46275840581858313  0.5945879638577836  0.10133935965440341  1.0000
  C   C56       1.0  0.3796938088518402  0.6630989133362706  0.12006237131371482  1.0000
  C   C57       1.0  0.7019805899196924  0.4315495154196327  0.24756766283648093  1.0000
  C   C58       1.0  0.8800971234851999  0.4322498129597819  0.2488290046564217  1.0000
  C   C59       1.0  0.12090462345423697  0.4133386581254399  0.22207462112670842  1.0000
  C   C60       1.0  0.9426350919464282  0.4226124018964867  0.221311960740465  1.0000
  C   C61       1.0  0.012681635004163597  0.8663641582993903  0.4979453495255656  1.0000
  C   C62       1.0  0.9940977357511753  0.6291794553919628  0.47018811500410623  1.0000
  C   C63       1.0  0.0008831512412967999  0.8073095822851144  0.47024006802339374  1.0000
  C   C64       1.0  0.008925903102543499  0.04456615374406431  0.49742911054849515  1.0000
  C   C65       1.0  0.8207712617476516  0.8000362912412343  0.8097679375972435  1.0000
  C   C66       1.0  0.807008785060347  0.7764866044203772  0.835740618470311  1.0000
  C   C67       1.0  0.9003833875579872  0.8609786892906541  0.8528119289448953  1.0000
  C   C68       1.0  0.008877552028742696  0.9650815158753192  0.8420439725881721  1.0000
  C   C69       1.0  0.017068349346544696  0.9818900157027887  0.8158798138747586  1.0000
  C   C70       1.0  0.97700774719879  0.9027246125028936  0.7084654216683434  1.0000
  C   C71       1.0  0.9601796113533821  0.9232893283910784  0.6824422111595042  1.0000
  C   C72       1.0  0.853028428851445  0.03278131653416239  0.6729291000603582  1.0000
  C   C73       1.0  0.7690068563622957  0.11986864101768188  0.6909019533299343  1.0000
  C   C74       1.0  0.7921258588747975  0.09376556916878089  0.7166037533762263  1.0000
  C   C75       1.0  0.834599890179092  0.0496235624926697  0.6455875676200691  1.0000
  C   C76       1.0  0.7361373706609626  0.1471237373977274  0.6333379558629703  1.0000
  C   C77       1.0  0.7197836402368479  0.15847182931129572  0.6058524355085737  1.0000
  C   C78       1.0  0.8047178961210405  0.0655273967660435  0.5886994519163836  1.0000
  C   C79       1.0  0.7795637139964527  0.0786994862282739  0.5628314408400429  1.0000
  C   C80       1.0  0.5968663145857248  0.27417292610706306  0.5688168237955722  1.0000
  C   C81       1.0  0.6150372499598403  0.2660680647914049  0.5950613338852763  1.0000
  C   C82       1.0  0.8157068472518672  0.7675150619730216  0.9623454156529263  1.0000
  C   C83       1.0  0.8328286478657317  0.7768402027088683  0.9362549641998827  1.0000
  C   C84       1.0  0.9392686820606785  0.8838536564291674  0.9257892727215805  1.0000
  C   C85       1.0  0.026003033787844704  0.9743283596975303  0.942900623223764  1.0000
  C   C86       1.0  0.0031929916184267994  0.9583620728416307  0.9688757707979221  1.0000
  C   C87       1.0  0.9627664408096234  0.9054071753187144  0.8986608756528657  1.0000
  C   C88       1.0  0.8797017738812372  0.8369020235078465  0.8799386172901222  1.0000
  C   C89       1.0  0.2019779361861254  0.0684544984058704  0.7524328715561879  1.0000
  C   C90       1.0  0.38009796280191915  0.0677554042358963  0.7511732534048647  1.0000
  C   C91       1.0  0.6209029103290433  0.08665486793002941  0.7779276165248705  1.0000
  C   C92       1.0  0.44263368210227577  0.0773846864459529  0.7786903022486558  1.0000
  C   C93       1.0  0.5126896222277536  0.6336297163230284  0.5020478218117006  1.0000
  C   C94       1.0  0.494081682676267  0.8708238338929063  0.5298024348029813  1.0000
  C   C95       1.0  0.5008644230238842  0.6926970857189402  0.5297532923395991  1.0000
  C   C96       1.0  0.5089304682485077  0.4554215308190166  0.5025640002014811  1.0000
  C   C97       1.0  0.6792253600661695  0.19996828917395248  0.30976712965554043  1.0000
  C   C98       1.0  0.6929879121613068  0.22351735375723075  0.335740176478673  1.0000
  C   C99       1.0  0.5996098623581503  0.13902718646062337  0.3528113436503517  1.0000
  C   C100      1.0  0.49111830104822485  0.034919852137811305  0.3420431047570958  1.0000
  C   C101      1.0  0.48292742776733627  0.0181154689631668  0.31587876618208094  1.0000
  C   C102      1.0  0.5229897461223914  0.09726843551297999  0.2084650469896516  1.0000
  C   C103      1.0  0.5398166407904768  0.0767020165147727  0.1824418509527206  1.0000
  C   C104      1.0  0.6469642988043277  0.9672056031605647  0.1729296987140074  1.0000
  C   C105      1.0  0.7309847578517789  0.8801166848175868  0.19090280423236552  1.0000
  C   C106      1.0  0.7078739893212216  0.9062226307610074  0.21660401589050346  1.0000
  C   C107      1.0  0.6653974205889382  0.9503791348292905  0.1455879885266214  1.0000
  C   C108      1.0  0.7638634014122657  0.8528815799416024  0.1333386368109259  1.0000
  C   C109      1.0  0.7802205489057883  0.8415341465072217  0.1058529350386408  1.0000
  C   C110      1.0  0.6952885744670211  0.9344778267123033  0.0887000753025973  1.0000
  C   C111      1.0  0.7204438471116958  0.921309846805876  0.0628320746263711  1.0000
  C   C112      1.0  0.9031377670299817  0.7258327737062445  0.0688172170086361  1.0000
  C   C113      1.0  0.8849715703460389  0.7339416593771446  0.09506229036536952  1.0000
  C   C114      1.0  0.6843018737754463  0.232478883446781  0.4623449672448318  1.0000
  C   C115      1.0  0.6671776661657987  0.2231532044908064  0.43625433044443446  1.0000
  C   C116      1.0  0.5607399328313107  0.11614116478019548  0.4257883190713799  1.0000
  C   C117      1.0  0.47400826520836853  0.0256636124143057  0.44289956999852365  1.0000
  C   C118      1.0  0.4968125546775042  0.041632766805278706  0.4688748991215874  1.0000
  C   C119      1.0  0.537240929696857  0.09458829580903941  0.3986601238900463  1.0000
  C   C120      1.0  0.6202997141537949  0.16310203909005586  0.37993782827411593  1.0000
  C   C121      1.0  0.2980223192128619  0.9315432000479832  0.2524327450668835  1.0000
  C   C122      1.0  0.11990578580711998  0.9322458142461514  0.2511714027985334  1.0000
  C   C123      1.0  0.8790982815319807  0.9133446589196553  0.2779257984140813  1.0000
  C   C124      1.0  0.057367815151991394  0.9226135462458487  0.2786888327937831  1.0000
  C   C125      1.0  0.9873177624120755  0.3663694400843127  0.0020539602833693  1.0000
  C   C126      1.0  0.005906270134722999  0.12918036133870464  0.029810966507419306  1.0000
  C   C127      1.0  0.9991197295929337  0.3073095498809693  0.029759089578135407  1.0000
  C   C128      1.0  0.9910769178881718  0.5445706335699257  0.0025694551709208  1.0000
  N   N1        1.0  0.0769100384944394  0.40242255551282824  0.7000259990398305  1.0000
  N   N2        1.0  0.1068783259599471  0.48615083260072806  0.7747923671882688  1.0000
  N   N3        1.0  0.3241961995482043  0.6801275154696568  0.9470285618617068  1.0000
  N   N4        1.0  0.1008691568558859  0.3573523744908442  0.5216645030147761  1.0000
  N   N5        1.0  0.42309356162314055  0.5975880312107691  0.20002761556764173  1.0000
  N   N6        1.0  0.3931266568459079  0.5138428403693283  0.2747908055633204  1.0000
  N   N7        1.0  0.17579529584198636  0.31987599051132065  0.4470276769982747  1.0000
  N   N8        1.0  0.3991246004315556  0.6426438728565458  0.021665518968255502  1.0000
  N   N9        1.0  0.9230873219305663  0.9024140786847923  0.7999731864932188  1.0000
  N   N10       1.0  0.8931167222934703  0.9861453034607592  0.7252096142215549  1.0000
  N   N11       1.0  0.6758046071167385  0.180128017443387  0.5529707657715406  1.0000
  N   N12       1.0  0.8991270276827092  0.8573512519792883  0.9783354711675402  1.0000
  N   N13       1.0  0.5769081058228591  0.09759073638457492  0.2999724359386207  1.0000
  N   N14       1.0  0.606878488395317  0.013845016856393496  0.225209299477676  1.0000
  N   N15       1.0  0.8242017597403191  0.8198803885405468  0.052972042448772114  1.0000
  N   N16       1.0  0.6008747460297883  0.14264463692443033  0.47833431377632973  1.0000
  O   O1        1.0  0.8570219956014852  0.4412360708293903  0.7387579308922697  1.0000
  O   O2        1.0  0.31414003654181494  0.47276668111157244  0.7341160345586035  1.0000
  O   O3        1.0  0.5584372184664161  0.6851213458605017  0.7647403929949377  1.0000
  O   O4        1.0  0.617762690972448  0.7078675822373414  0.7079922792070121  1.0000
  O   O5        1.0  0.387529185448038  0.4369918106935202  0.9808816205308447  1.0000
  O   O6        1.0  0.37256264460888383  0.8940641142792032  0.9860204642947465  1.0000
  O   O7        1.0  0.6016364639321735  0.8827502022797517  0.007237031194513601  1.0000
  O   O8        1.0  0.8745973106119606  0.6850796295960462  0.7542135768423109  1.0000
  O   O9        1.0  0.6213869489685989  0.43670475047475316  0.9606121278712507  1.0000
  O   O10       1.0  0.3128333665810885  0.6995593792100294  0.7118552983435792  1.0000
  O   O11       1.0  0.6018182331186352  0.1986270747973649  0.0140532080289404  1.0000
  O   O12       1.0  0.6320442016251417  0.1319891017841783  0.957536201870397  1.0000
  O   O13       1.0  0.6429790825403074  0.5587620678337615  0.2387586003742683  1.0000
  O   O14       1.0  0.18585900005569303  0.5272361092620059  0.2341165376122731  1.0000
  O   O15       1.0  0.9415581069968794  0.3148796601579632  0.26474162181632727  1.0000
  O   O16       1.0  0.8822371322238638  0.29211849742515017  0.20799427774201726  1.0000
  O   O17       1.0  0.11247056758926989  0.5630155373834712  0.4808796254526868  1.0000
  O   O18       1.0  0.1274499452007873  0.1059256615300654  0.4860189525467007  1.0000
  O   O19       1.0  0.8983534514072246  0.11725464636258207  0.507228783712705  1.0000
  O   O20       1.0  0.6254073092724184  0.31492046534481943  0.2542144008175313  1.0000
  O   O21       1.0  0.8786427482286853  0.5633020326368908  0.4606016053673728  1.0000
  O   O22       1.0  0.18717259912737208  0.3004299851130198  0.2118587958842184  1.0000
  O   O23       1.0  0.8981612114027299  0.8013741207130849  0.5140452830456965  1.0000
  O   O24       1.0  0.8679761616623125  0.8680154284181398  0.4575294728989121  1.0000
  O   O25       1.0  0.1429753736672055  0.9412457953613184  0.7612421796237498  1.0000
  O   O26       1.0  0.6858596711550858  0.9727694370279565  0.7658850056041546  1.0000
  O   O27       1.0  0.441565920584999  0.18512557088008208  0.7352606410857376  1.0000
  O   O28       1.0  0.3822404532614598  0.20787043435347388  0.7920100700541539  1.0000
  O   O29       1.0  0.6124740109664231  0.9369853393221774  0.5191177328633643  1.0000
  O   O30       1.0  0.627444038896776  0.3940655395115229  0.5139777767781979  1.0000
  O   O31       1.0  0.39836410283847806  0.3827412688592702  0.4927628380244471  1.0000
  O   O32       1.0  0.125404662803497  0.18508818435851282  0.7457847978222745  1.0000
  O   O33       1.0  0.378605756768799  0.9367047205334276  0.5393839963823767  1.0000
  O   O34       1.0  0.6871709413844654  0.1995600659841017  0.7881478160697526  1.0000
  O   O35       1.0  0.398183457337808  0.6986233305820733  0.48594563912923416  1.0000
  O   O36       1.0  0.36795542845105433  0.6319855058930415  0.5424623966963935  1.0000
  O   O37       1.0  0.3570260729310419  0.05875518188098989  0.2612416659149376  1.0000
  O   O38       1.0  0.8141449826139109  0.027239684532162304  0.2658841287468192  1.0000
  O   O39       1.0  0.0584424443170306  0.8148725389888297  0.2352592405890306  1.0000
  O   O40       1.0  0.11776224828608411  0.7921228261349853  0.2920079289304526  1.0000
  O   O41       1.0  0.8875322576035883  0.0630134081898248  0.0191194983552876  1.0000
  O   O42       1.0  0.8725540553900968  0.6059333311268489  0.013980523747925102  1.0000
  O   O43       1.0  0.10164734093644509  0.6172564882589527  0.9927696343113511  1.0000
  O   O44       1.0  0.3745955732962186  0.8149166530127515  0.24578570172039355  1.0000
  O   O45       1.0  0.12135774578482027  0.06330389818591438  0.03939827809647771  1.0000
  O   O46       1.0  0.81283144576782  0.8004357262212949  0.2881432155147436  1.0000
  O   O47       1.0  0.1018337947622712  0.3013780796720481  0.9859537771187732  1.0000
  O   O48       1.0  0.1320255673757913  0.36801722277666477  0.04246983585564831  1.0000
