data_image0
_chemical_formula_structural       Zn4H36C52N4O20
_chemical_formula_sum              "Zn4 H36 C52 N4 O20"
_cell_length_a       10.021277911214797
_cell_length_b       11.265782016197376
_cell_length_c       11.320247714754103
_cell_angle_alpha    104.95336587709737
_cell_angle_beta     96.41905033718734
_cell_angle_gamma    108.24041335030779

_space_group_name_H-M_alt    "P 1"
_space_group_IT_number       1

loop_
  _space_group_symop_operation_xyz
  'x, y, z'

loop_
  _atom_site_type_symbol
  _atom_site_label
  _atom_site_symmetry_multiplicity
  _atom_site_fract_x
  _atom_site_fract_y
  _atom_site_fract_z
  _atom_site_occupancy
  Zn  Zn1       1.0  0.22022797172694206  0.35643967476909927  0.6450179009639643  1.0000
  Zn  Zn2       1.0  0.7797704394101856  0.6435606777420233  0.35498145531497755  1.0000
  Zn  Zn3       1.0  0.25155358652495613  0.648808502257893  0.30073084117893273  1.0000
  Zn  Zn4       1.0  0.7484468377240034  0.3511918419243757  0.6992704718563447  1.0000
  H   H1        1.0  0.48764597784321495  0.47454037638809865  0.6045983325712572  1.0000
  H   H2        1.0  0.5123542048290304  0.525461938328661  0.3954025904992877  1.0000
  H   H3        1.0  0.374277618931636  0.4060904883678875  0.47246165118948386  1.0000
  H   H4        1.0  0.625723180808052  0.5939108519467668  0.5275373086125942  1.0000
  H   H5        1.0  0.08576960127221868  0.439148558921694  0.46090108224089493  1.0000
  H   H6        1.0  0.914228190464506  0.5608527723073282  0.5390993548265474  1.0000
  H   H7        1.0  0.22110566617274702  0.5488277396622722  0.5519121112610892  1.0000
  H   H8        1.0  0.7788927472973343  0.45117260853307084  0.44808812749782606  1.0000
  H   H9        1.0  0.6863510845349481  0.8462496683390129  0.525373610252281  1.0000
  H   H10       1.0  0.3136477067588217  0.15375167167292864  0.47462515775340836  1.0000
  H   H11       1.0  0.7894018801779196  0.0359296625254686  0.7203617821019893  1.0000
  H   H12       1.0  0.2105985394051191  0.9640706902883668  0.27963776597334106  1.0000
  H   H13       1.0  0.07753286169376146  0.4172037296689625  0.04713596740837297  1.0000
  H   H14       1.0  0.922466415086383  0.5827936649581957  0.9528644630067408  1.0000
  H   H15       1.0  0.15115894923222586  0.9904318240868409  0.930070152323751  1.0000
  H   H16       1.0  0.8488397058145694  0.009566553573996802  0.0699304763998896  1.0000
  H   H17       1.0  0.24906279855270702  0.14378662132836695  0.14735496460835415  1.0000
  H   H18       1.0  0.750936238983691  0.8562127395175099  0.8526459583220005  1.0000
  H   H19       1.0  0.19232390612948086  0.9717345083373418  0.7201369365654886  1.0000
  H   H20       1.0  0.8076741225180442  0.02826486098874881  0.2798621255067389  1.0000
  H   H21       1.0  0.4892222345984791  0.5050941538948734  0.8441765476399895  1.0000
  H   H22       1.0  0.5107795716971213  0.4949071822553466  0.15582339054026326  1.0000
  H   H23       1.0  0.10704172041218389  0.5691349676392152  0.7702556194348847  1.0000
  H   H24       1.0  0.8929597010608533  0.4308653896417597  0.2297431420586663  1.0000
  H   H25       1.0  0.07592867210595954  0.7935774219781919  0.517213952959388  1.0000
  H   H26       1.0  0.9240707362552459  0.20642294363163677  0.4827828517778345  1.0000
  H   H27       1.0  0.5853364681479647  0.7011005153945221  0.03274293414625628  1.0000
  H   H28       1.0  0.41466457550139063  0.2988988500698397  0.9672572981005206  1.0000
  H   H29       1.0  0.18733217767697852  0.76803026045301  0.9567252573633884  1.0000
  H   H30       1.0  0.8126678664153388  0.2319690962284327  0.04327664394513425  1.0000
  H   H31       1.0  0.6325947731927358  0.977165420754773  0.4286348851320556  1.0000
  H   H32       1.0  0.36740803732581634  0.022835915546807008  0.5713651489463845  1.0000
  H   H33       1.0  0.37135270911646523  0.9889517196664815  0.03621893424443117  1.0000
  H   H34       1.0  0.628646328419933  0.011047641179388303  0.9637819886859308  1.0000
  H   H35       1.0  0.47504213220638997  0.19178742038351973  0.22216238689942716  1.0000
  H   H36       1.0  0.5249572831536967  0.8082129322789559  0.7778370652777088  1.0000
  C   C1        1.0  0.9714833150641339  0.28627175569262425  0.8034391955890571  1.0000
  C   C2        1.0  0.028517730918182056  0.713727605455958  0.19656191913769325  1.0000
  C   C3        1.0  0.5447489588490556  0.7437214950224134  0.25178706482167734  1.0000
  C   C4        1.0  0.45525208480029267  0.25627787044195577  0.7482131674250996  1.0000
  C   C5        1.0  0.04539837371635973  0.24142024932712056  0.8971132043731063  1.0000
  C   C6        1.0  0.9545995163512301  0.7585761619636459  0.10288683593708478  1.0000
  C   C7        1.0  0.7996180093126741  0.8808086423247804  0.5694466492634265  1.0000
  C   C8        1.0  0.20037901511188494  0.1191907268499506  0.4305523169105998  1.0000
  C   C9        1.0  0.8578300273809135  0.9855526012336144  0.6793886870251459  1.0000
  C   C10       1.0  0.14216762110996234  0.014445780591650201  0.320610963320327  1.0000
  C   C11       1.0  0.001198761652041501  0.019704055868864104  0.7387104268372939  1.0000
  C   C12       1.0  0.9987998910617935  0.9802943261077601  0.2612893194063731  1.0000
  C   C13       1.0  0.06494458247160402  0.11927474970995891  0.8630967860291395  1.0000
  C   C14       1.0  0.9350526858626296  0.8807226446144868  0.1369034525895857  1.0000
  C   C15       1.0  0.09542681447212695  0.3241415138588125  0.02085232285478613  1.0000
  C   C16       1.0  0.9045704538621068  0.6758558804656334  0.979147915763939  1.0000
  C   C17       1.0  0.1694926772926522  0.28991701961776073  0.11135439168323565  1.0000
  C   C18       1.0  0.8305059777541359  0.710081358043077  0.8886462370403979  1.0000
  C   C19       1.0  0.22412905046827095  0.3800523943882085  0.24383805725740623  1.0000
  C   C20       1.0  0.7758736214703533  0.6199459838780471  0.7561629550590044  1.0000
  C   C21       1.0  0.13983906750611652  0.0864518164852939  0.9547520158352828  1.0000
  C   C22       1.0  0.8601595875406787  0.9135465611755439  0.04524861288835076  1.0000
  C   C23       1.0  0.19272983585769776  0.17062624178151256  0.07659754487642804  1.0000
  C   C24       1.0  0.8072691993457397  0.8293731233801438  0.9234024955739601  1.0000
  C   C25       1.0  0.07998285249608023  0.9478239012410159  0.6797533160031225  1.0000
  C   C26       1.0  0.9200161780414431  0.052175472552214316  0.32024495948732584  1.0000
  C   C27       1.0  0.42500139998127656  0.5653949672981542  0.8730571099618845  1.0000
  C   C28       1.0  0.5750004063143237  0.43460636885206605  0.12694282821836117  1.0000
  C   C29       1.0  0.21266417596220324  0.6021388992564242  0.8308096701530946  1.0000
  C   C30       1.0  0.7873376303333971  0.39786243689380313  0.16919026802715126  1.0000
  C   C31       1.0  0.015749870115776388  0.8478477003693642  0.5673660615171843  1.0000
  C   C32       1.0  0.984251312113507  0.15215462313032196  0.43263319249162197  1.0000
  C   C33       1.0  0.5203793016813095  0.8651930677487061  0.2384342875794234  1.0000
  C   C34       1.0  0.4796211179017292  0.13480728506512213  0.7615652604959069  1.0000
  C   C35       1.0  0.44551734387302844  0.8676897458540012  0.1263026866634008  1.0000
  C   C36       1.0  0.5544813088408063  0.13230863612262314  0.8736970595802662  1.0000
  C   C37       1.0  0.4778655754671704  0.6752825354680142  0.9786645845630209  1.0000
  C   C38       1.0  0.5221348441158682  0.3247178173458139  0.021334963512309513  1.0000
  C   C39       1.0  0.25902664219952953  0.7141283460684422  0.9343456723942015  1.0000
  C   C40       1.0  0.740975785829427  0.28587200704809856  0.06565406747752434  1.0000
  C   C41       1.0  0.3935649519200411  0.7518854576448961  0.012873708317535312  1.0000
  C   C42       1.0  0.6064364742189171  0.24811489100450512  0.9871268181359627  1.0000
  C   C43       1.0  0.5746210094172001  0.9782466013735205  0.3419668588750186  1.0000
  C   C44       1.0  0.425379027676236  0.0217527682552756  0.6580323949935905  1.0000
  C   C45       1.0  0.5597983349667076  0.0957432702016305  0.3359657072674765  1.0000
  C   C46       1.0  0.4402010803933792  0.9042570824608519  0.6640337449096594  1.0000
  C   C47       1.0  0.4267897264010542  0.9855606778187179  0.12306853966686053  1.0000
  C   C48       1.0  0.5732106955149447  0.014439670679330207  0.8769318908884433  1.0000
  C   C49       1.0  0.630839433667525  0.21913242236151126  0.4439265948106979  1.0000
  C   C50       1.0  0.3691599816925547  0.7808679303009644  0.5560728573664381  1.0000
  C   C51       1.0  0.4848298840914395  0.0989916339102663  0.22550946982075715  1.0000
  C   C52       1.0  0.5151691487790374  0.9010077355671702  0.7744896881496576  1.0000
  N   N1        1.0  0.2937404657593063  0.527655529652151  0.8007350650326688  1.0000
  N   N2        1.0  0.7062613405362937  0.47234580649807617  0.19926487314757685  1.0000
  N   N3        1.0  0.8766073885080986  0.8128954485232287  0.513426722132927  1.0000
  N   N4        1.0  0.12339240467566982  0.18710589595585253  0.48657125929099027  1.0000
  O   O1        1.0  0.43556770378798876  0.6443266138044097  0.24689983635190077  1.0000
  O   O2        1.0  0.5644327181280104  0.3556737346936316  0.753100594203403  1.0000
  O   O3        1.0  0.01683602321795523  0.2960967709146304  0.7058360249096867  1.0000
  O   O4        1.0  0.9831654029210029  0.703903577734778  0.2941645015438042  1.0000
  O   O5        1.0  0.1573777464708428  0.46064990045971393  0.27972533914718417  1.0000
  O   O6        1.0  0.8426226707792354  0.5393504566699081  0.7202733264481724  1.0000
  O   O7        1.0  0.8608417383848849  0.3128647839175472  0.831160564505716  1.0000
  O   O8        1.0  0.13915868353111455  0.687135564580494  0.16883986604958076  1.0000
  O   O9        1.0  0.39796650724233734  0.4022175009389528  0.5586393778598763  1.0000
  O   O10       1.0  0.6020340579195107  0.5977857969628462  0.44136183941738977  1.0000
  O   O11       1.0  0.3278763406281371  0.37179428301845974  0.31048204616121927  1.0000
  O   O12       1.0  0.6721236987982592  0.6282050822945564  0.6895180901873632  1.0000
  O   O13       1.0  0.13274399587048444  0.4739772305516612  0.5493252700111102  1.0000
  O   O14       1.0  0.867255039332953  0.5260221346099955  0.4506747704392781  1.0000
  O   O15       1.0  0.6732022001142823  0.7480987555119399  0.2664653463786524  1.0000
  O   O16       1.0  0.3267968304232411  0.25190061828128313  0.7335329291117961  1.0000
  O   O17       1.0  0.6339915457910692  0.3266448596886704  0.4301305212409334  1.0000
  O   O18       1.0  0.3660082473926992  0.6733564847904108  0.569867460182984  1.0000
  O   O19       1.0  0.68722624888769  0.2039277117332929  0.5453896451477933  1.0000
  O   O20       1.0  0.31277455085199807  0.7960736285813613  0.4546093146542919  1.0000
