data_image0
_chemical_formula_structural       Zn12H96C144Br24N48
_chemical_formula_sum              "Zn12 H96 C144 Br24 N48"
_cell_length_a       14.567259652089211
_cell_length_b       19.148136289632518
_cell_length_c       30.363833553637736
_cell_angle_alpha    101.22093877308903
_cell_angle_beta     89.98283794574567
_cell_angle_gamma    112.35934236006797

_space_group_name_H-M_alt    "P 1"
_space_group_IT_number       1

loop_
  _space_group_symop_operation_xyz
  'x, y, z'

loop_
  _atom_site_type_symbol
  _atom_site_label
  _atom_site_symmetry_multiplicity
  _atom_site_fract_x
  _atom_site_fract_y
  _atom_site_fract_z
  _atom_site_occupancy
  Zn  Zn1       1.0  0.5264503145007781  0.34742675297341913  0.2690086217578411  1.0000
  Zn  Zn2       1.0  0.9389124376792426  0.1630107403096801  0.5954291500964288  1.0000
  Zn  Zn3       1.0  0.27145739243849243  0.7602335815614439  0.9427194347806491  1.0000
  Zn  Zn4       1.0  0.8211048494281811  0.3474669720224384  0.7690940312183938  1.0000
  Zn  Zn5       1.0  0.22370146267465432  0.1625086648248484  0.09548942459879578  1.0000
  Zn  Zn6       1.0  0.48864844089917636  0.7600146321203809  0.44279021018079595  1.0000
  Zn  Zn7       1.0  0.1788900522432897  0.6525308350331969  0.23090650218397  1.0000
  Zn  Zn8       1.0  0.7763008824407365  0.8374902993306321  0.9045105926584966  1.0000
  Zn  Zn9       1.0  0.5113500748061314  0.23998491068147848  0.5572095495584148  1.0000
  Zn  Zn10      1.0  0.47354960559649595  0.652579718305539  0.7309929825675283  1.0000
  Zn  Zn11      1.0  0.06108730470901962  0.8369830194367651  0.4045721998892233  1.0000
  Zn  Zn12      1.0  0.728546794332587  0.23976769304715623  0.05728086801914149  1.0000
  H   H1        1.0  0.42643591246798723  0.6925254473343474  0.9331519266706676  1.0000
  H   H2        1.0  0.4609792649840544  0.5892450956536807  0.8806679509624045  1.0000
  H   H3        1.0  0.18702234822465158  0.5391298314345787  0.8027063100880125  1.0000
  H   H4        1.0  0.16648140616592855  0.6485916743098201  0.8571237309483664  1.0000
  H   H5        1.0  0.6106043067999707  0.5088639520734402  0.8306816805051793  1.0000
  H   H6        1.0  0.7650512516968816  0.47868628111225314  0.8239274696196404  1.0000
  H   H7        1.0  0.6151824327398998  0.2728467954627832  0.7333057295924661  1.0000
  H   H8        1.0  0.45486721473722  0.2942432813916512  0.7363510971618794  1.0000
  H   H9        1.0  0.1529374439680424  0.19332003601827813  0.6201525238452064  1.0000
  H   H10       1.0  0.2880829965818918  0.2783246571270794  0.6789215171068717  1.0000
  H   H11       1.0  0.09386838619825971  0.3934617900521218  0.7306553372072455  1.0000
  H   H12       1.0  0.9660459440624792  0.3044950873175408  0.6682233476879702  1.0000
  H   H13       1.0  0.023339191178259003  0.0393557723221605  0.5732506801372422  1.0000
  H   H14       1.0  0.15729238882917673  0.017121365259477297  0.5260076572420188  1.0000
  H   H15       1.0  0.17979476565098917  0.21313325464827676  0.4707102584142859  1.0000
  H   H16       1.0  0.04539510387252934  0.22773254165409185  0.5201729094927998  1.0000
  H   H17       1.0  0.43985798830005507  0.1026903823378831  0.332949300526785  1.0000
  H   H18       1.0  0.503004277389934  0.19037217762181768  0.27786254619389433  1.0000
  H   H19       1.0  0.4336335387879729  0.36250856119609415  0.3571690386338489  1.0000
  H   H20       1.0  0.36176898403742547  0.2795601029500503  0.41413070586203554  1.0000
  H   H21       1.0  0.3382933033751528  0.9591462618988231  0.5093823920506111  1.0000
  H   H22       1.0  0.39694784396687055  0.850185949327816  0.5082817598279092  1.0000
  H   H23       1.0  0.484935254253017  0.8571050396793822  0.3791237876254883  1.0000
  H   H24       1.0  0.43046587601102715  0.9661316177783164  0.37501820711064227  1.0000
  H   H25       1.0  0.2659939292725113  0.6922833327347603  0.43314125184392077  1.0000
  H   H26       1.0  0.1281928027856836  0.589037720143665  0.3806097327466347  1.0000
  H   H27       1.0  0.3522810713245762  0.5391645392509048  0.3026188576517938  1.0000
  H   H28       1.0  0.48222352368716764  0.6486017829196625  0.3570728140440805  1.0000
  H   H29       1.0  0.8982284729915622  0.5087173309486772  0.3306055008880122  1.0000
  H   H30       1.0  0.7136265035651876  0.47858171746394623  0.323819922210582  1.0000
  H   H31       1.0  0.6577912846252758  0.2727479717773704  0.23318884240831744  1.0000
  H   H32       1.0  0.8395049711801618  0.2941793029063078  0.23623535149889816  1.0000
  H   H33       1.0  0.0402463967090299  0.19339366237491618  0.1200450633179315  1.0000
  H   H34       1.0  0.9903458002999416  0.2785238415687132  0.17888860288229577  1.0000
  H   H35       1.0  0.2997633137553777  0.39335065351768617  0.23046789078593122  1.0000
  H   H36       1.0  0.3383469266809628  0.30420007507903796  0.1680282676216578  1.0000
  H   H37       1.0  0.015530973979203104  0.039071965076232104  0.0733803202022116  1.0000
  H   H38       1.0  0.8595556172050678  0.0169603701176442  0.026038890847765093  1.0000
  H   H39       1.0  0.033589427602649415  0.2128384344845884  0.9707440907289635  1.0000
  H   H40       1.0  0.18243945038469186  0.2273313278451994  0.0202884937737551  1.0000
  H   H41       1.0  0.6629758459899762  0.1026972361412533  0.8331029095899966  1.0000
  H   H42       1.0  0.6873941171317812  0.1903102304519564  0.7780041734587753  1.0000
  H   H43       1.0  0.9289519204501815  0.36249551645486383  0.8571896429192448  1.0000
  H   H44       1.0  0.9180673234747728  0.27961444903120736  0.9141516386491018  1.0000
  H   H45       1.0  0.6209312702071443  0.9590538666447939  0.009358394943610876  1.0000
  H   H46       1.0  0.45322869490637885  0.8501219812902363  0.008237032039751596  1.0000
  H   H47       1.0  0.37251401299811704  0.8570245424895403  0.8790275615311172  1.0000
  H   H48       1.0  0.5361441795438893  0.9660309031376713  0.8749383919631342  1.0000
  H   H49       1.0  0.7340037194490137  0.30771447624239556  0.5668586229193407  1.0000
  H   H50       1.0  0.8718045571385602  0.4109595112180102  0.6193900706184008  1.0000
  H   H51       1.0  0.6477167573222502  0.4608350025814331  0.6973812313565587  1.0000
  H   H52       1.0  0.5177753890954763  0.3513971812796656  0.6429272034652342  1.0000
  H   H53       1.0  0.10177279153959522  0.49128221670959243  0.6693926125559031  1.0000
  H   H54       1.0  0.2863780389129857  0.5214230160069561  0.6761831136105485  1.0000
  H   H55       1.0  0.3422020986063076  0.7272550358267225  0.7668116754430514  1.0000
  H   H56       1.0  0.1604873362026283  0.7058242960269467  0.7637606287891997  1.0000
  H   H57       1.0  0.9597588753817234  0.8066070365572672  0.8799545095453494  1.0000
  H   H58       1.0  0.009658100041569681  0.7214768593375993  0.8211103116443255  1.0000
  H   H59       1.0  0.7002409807038248  0.6066494638946126  0.7695329276044731  1.0000
  H   H60       1.0  0.6616571860771431  0.695798306543182  0.8319733241798701  1.0000
  H   H61       1.0  0.9844693123284712  0.9609270000838561  0.9266193679875555  1.0000
  H   H62       1.0  0.14044513664133265  0.9830409035565068  0.9739617414227906  1.0000
  H   H63       1.0  0.9664113274276077  0.787162841146156  0.029255883104120483  1.0000
  H   H64       1.0  0.8175612347761078  0.7726670616472335  0.9797104645299086  1.0000
  H   H65       1.0  0.3370183698068773  0.8973005719014467  0.16689729464403058  1.0000
  H   H66       1.0  0.3126011845766783  0.8096870028926233  0.22199497162000625  1.0000
  H   H67       1.0  0.0710445382231981  0.637504030286493  0.14280880009623328  1.0000
  H   H68       1.0  0.08193021874249243  0.7203845190988432  0.08584706208608138  1.0000
  H   H69       1.0  0.3790683278581924  0.0409450955891657  0.9906422809527697  1.0000
  H   H70       1.0  0.5467701054527082  0.1498781322790279  0.9917651036288433  1.0000
  H   H71       1.0  0.6274842079906121  0.14297441291388677  0.1209754189972259  1.0000
  H   H72       1.0  0.4638527809352979  0.0339669029133631  0.125062470506748  1.0000
  H   H73       1.0  0.5735642637838441  0.3074746711088565  0.0668485628034361  1.0000
  H   H74       1.0  0.5390219942197305  0.41075444319992016  0.11933312545013308  1.0000
  H   H75       1.0  0.8129806455386301  0.46087317604675343  0.19729420705768053  1.0000
  H   H76       1.0  0.8335205034615428  0.35141191080451517  0.1428768576963648  1.0000
  H   H77       1.0  0.3893934147506642  0.4911367479334956  0.16931756369382361  1.0000
  H   H78       1.0  0.2349478416029954  0.5213144169205606  0.17607243291602254  1.0000
  H   H79       1.0  0.38481745530658185  0.7271527463432507  0.266694359264676  1.0000
  H   H80       1.0  0.5451322774157816  0.705756840973507  0.2636480754876871  1.0000
  H   H81       1.0  0.8470608557690867  0.8066818201979018  0.37984653393151996  1.0000
  H   H82       1.0  0.7119167867361116  0.7216760467667387  0.3210764100659773  1.0000
  H   H83       1.0  0.9061298395259029  0.6065371731776777  0.2693450095712109  1.0000
  H   H84       1.0  0.03395141231018072  0.695502138174362  0.3317784309894805  1.0000
  H   H85       1.0  0.9766628645479188  0.9606426132395498  0.4267495949405528  1.0000
  H   H86       1.0  0.8427115079607572  0.9828793297770556  0.47399323259702436  1.0000
  H   H87       1.0  0.8202041471316548  0.7868657095510516  0.529289759095029  1.0000
  H   H88       1.0  0.9546022548678509  0.7722646877509902  0.47982755230970736  1.0000
  H   H89       1.0  0.5601423690609408  0.8973114709170956  0.6670507447549311  1.0000
  H   H90       1.0  0.4969970552348926  0.8096302532398737  0.722137570435649  1.0000
  H   H91       1.0  0.566365555103829  0.6374921378150163  0.6428305346830854  1.0000
  H   H92       1.0  0.6382303992435894  0.7204411746548232  0.5858686096343817  1.0000
  H   H93       1.0  0.6617077422281811  0.040855594282277315  0.4906166655244988  1.0000
  H   H94       1.0  0.6030528021914067  0.1498164815426364  0.4917183568520399  1.0000
  H   H95       1.0  0.5150642367161282  0.1428950807291827  0.6208760434615499  1.0000
  H   H96       1.0  0.5695313768170253  0.03386677175796391  0.6249807514450437  1.0000
  C   C1        1.0  0.3752511542831131  0.6574406682579692  0.9038233190759826  1.0000
  C   C2        1.0  0.3941020712002442  0.5996715451017495  0.8747177740375135  1.0000
  C   C3        1.0  0.3258694081295204  0.5557939375980041  0.8376749165152688  1.0000
  C   C4        1.0  0.24204648944522947  0.5727091380615548  0.8309260180684105  1.0000
  C   C5        1.0  0.22971402104622737  0.6323646789171702  0.8610432282315585  1.0000
  C   C6        1.0  0.3402922929023191  0.49236355487999356  0.8059489971363618  1.0000
  C   C7        1.0  0.4290625141739781  0.41944719491522875  0.7825538709916913  1.0000
  C   C8        1.0  0.27952909977576473  0.39149145979946104  0.7461523397960904  1.0000
  C   C9        1.0  0.5208823425784459  0.4034803708901649  0.7837709519956204  1.0000
  C   C10       1.0  0.6087603360787811  0.45562219488227385  0.8092310530758339  1.0000
  C   C11       1.0  0.6940680022460626  0.4391479290187661  0.8056509433557792  1.0000
  C   C12       1.0  0.6096343807540167  0.3233867419863188  0.7551341977410642  1.0000
  C   C13       1.0  0.5218359818950732  0.33566102650770807  0.7566881235540066  1.0000
  C   C14       1.0  0.14222336428118612  0.2383078881926508  0.6450180620158575  1.0000
  C   C15       1.0  0.2175858023466476  0.28553026132237147  0.678047314862738  1.0000
  C   C16       1.0  0.20122961476700144  0.34237451683722503  0.7097833718830344  1.0000
  C   C17       1.0  0.10999076412690564  0.35046690031237665  0.7063421151893365  1.0000
  C   C18       1.0  0.03873670668368597  0.3011496490106397  0.6718198406507412  1.0000
  C   C19       1.0  0.060764856986260406  0.07618255581262902  0.5499959321327734  1.0000
  C   C20       1.0  0.13405842932976242  0.06420116463084471  0.5240271111131065  1.0000
  C   C21       1.0  0.17852775419370914  0.11415152898929648  0.4951447618408053  1.0000
  C   C22       1.0  0.14658218994454594  0.17386126416132444  0.4931097353766276  1.0000
  C   C23       1.0  0.07312407971759431  0.1821630936944487  0.5202228840135276  1.0000
  C   C24       1.0  0.2564597839493175  0.10359761811176328  0.46654810983074657  1.0000
  C   C25       1.0  0.3505890463881158  0.0359529098521492  0.4413472062377224  1.0000
  C   C26       1.0  0.35449138271226843  0.1345004078882397  0.40979942811478043  1.0000
  C   C27       1.0  0.39518255203464764  0.18482504224691348  0.3772944536299149  1.0000
  C   C28       1.0  0.43699829110921234  0.15971588514892693  0.3390232451235065  1.0000
  C   C29       1.0  0.4729690096066648  0.2081991142782584  0.3090185211790271  1.0000
  C   C30       1.0  0.4323487354301748  0.30424137604666174  0.3532261644598549  1.0000
  C   C31       1.0  0.39275626058118723  0.258484119585745  0.3842983461659982  1.0000
  C   C32       1.0  0.3821581013879439  0.971475544427463  0.4424619681436397  1.0000
  C   C33       1.0  0.37121460169622394  0.9381700022165237  0.48020608270937964  1.0000
  C   C34       1.0  0.4030316134638526  0.8782290668608966  0.4797365562549202  1.0000
  C   C35       1.0  0.452144405036016  0.8818175962814722  0.4071196433082775  1.0000
  C   C36       1.0  0.42287796118476734  0.9420912403865106  0.4050912447206798  1.0000
  C   C37       1.0  0.2820971536710673  0.6572399316902492  0.4037888841370218  1.0000
  C   C38       1.0  0.20552612020677696  0.5994946417362073  0.3746638305568126  1.0000
  C   C39       1.0  0.23002643089030536  0.555752285116121  0.3375915126577027  1.0000
  C   C40       1.0  0.3307956960299451  0.5727199660732012  0.3308476968478615  1.0000
  C   C41       1.0  0.40273749155595356  0.6323569990544727  0.3609911443698336  1.0000
  C   C42       1.0  0.15219261725120956  0.492323655633072  0.30587342650280647  1.0000
  C   C43       1.0  0.9904721721445001  0.41936981127811634  0.2824817309885006  1.0000
  C   C44       1.0  0.11210879847421752  0.39147789034068126  0.24607063477986907  1.0000
  C   C45       1.0  0.8826348605973635  0.40337038815465587  0.2836804736399614  1.0000
  C   C46       1.0  0.8468617600427208  0.45549881278510185  0.3091346284173895  1.0000
  C   C47       1.0  0.7451028618546758  0.43905649891640053  0.3055369996758941  1.0000
  C   C48       1.0  0.7138232443134102  0.32330329616715403  0.25501775162315704  1.0000
  C   C49       1.0  0.8138856174917423  0.33556065034244403  0.2565863859847042  1.0000
  C   C50       1.0  0.09598052954114425  0.238326366557864  0.1448999966135531  1.0000
  C   C51       1.0  0.06800154985178612  0.2856268421019053  0.1779601634982839  1.0000
  C   C52       1.0  0.14125924510323534  0.3423514763309754  0.20969672787440166  1.0000
  C   C53       1.0  0.24056213131987653  0.35037393621315266  0.20620217760890108  1.0000
  C   C54       1.0  0.26235406335074163  0.300976369300713  0.17166098197315446  1.0000
  C   C55       1.0  0.015153238674862715  0.07584627053844172  0.05006120116724589  1.0000
  C   C56       1.0  0.9299699916697008  0.06398109384794282  0.024083832686265797  1.0000
  C   C57       1.0  0.9357302289989635  0.1139316681128619  0.9951710383184391  1.0000
  C   C58       1.0  0.027471501548859596  0.17353551536204037  0.9931272579796582  1.0000
  C   C59       1.0  0.10909524369839833  0.1817962714510273  0.020290701355499197  1.0000
  C   C60       1.0  0.8473425325453406  0.1034446642900235  0.9665646387711033  1.0000
  C   C61       1.0  0.6856276326260583  0.0357768241036638  0.9413219517450243  1.0000
  C   C62       1.0  0.7802923623910729  0.13442174869896917  0.9098426026896148  1.0000
  C   C63       1.0  0.7898924464301588  0.18480792471194016  0.877375465184066  1.0000
  C   C64       1.0  0.7228603760439398  0.15971331421557977  0.8391573485789363  1.0000
  C   C65       1.0  0.7352768634820136  0.2081772345405284  0.8091420493335164  1.0000
  C   C66       1.0  0.8719831501233059  0.30421972737147474  0.8532744061525149  1.0000
  C   C67       1.0  0.8659475708807421  0.2584874584530397  0.8843469371070822  1.0000
  C   C68       1.0  0.589578059736944  0.9712989291495121  0.9423950989695198  1.0000
  C   C69       1.0  0.5671179895816677  0.9380449010758338  0.9801602426791403  1.0000
  C   C70       1.0  0.475299420061461  0.8781627802952271  0.9796897455877269  1.0000
  C   C71       1.0  0.42998767140802135  0.8816665994070974  0.9070190832311835  1.0000
  C   C72       1.0  0.5195443863880699  0.941953678134979  0.9050058743527032  1.0000
  C   C73       1.0  0.7179039244235597  0.3427578723515694  0.5962126364678967  1.0000
  C   C74       1.0  0.7944730807812237  0.40050489910029796  0.6253365875694641  1.0000
  C   C75       1.0  0.7699719048897011  0.44424552483055635  0.6624080328364241  1.0000
  C   C76       1.0  0.6692012662250305  0.4272778429127229  0.669152177965806  1.0000
  C   C77       1.0  0.5972601583494354  0.3676408118792693  0.6390080719559562  1.0000
  C   C78       1.0  0.8478062961233661  0.5076753095445525  0.6941262617877725  1.0000
  C   C79       1.0  0.009529961146228283  0.5806314731397536  0.7175152797751494  1.0000
  C   C80       1.0  0.8878934425046338  0.6085222368808872  0.7539268915743873  1.0000
  C   C81       1.0  0.11736737978954888  0.5966297380886089  0.7163173819330382  1.0000
  C   C82       1.0  0.15313870796604334  0.5445018881650583  0.6908642863612611  1.0000
  C   C83       1.0  0.2549019001432526  0.5609459270099606  0.694464762795306  1.0000
  C   C84       1.0  0.28617707463699554  0.676702599444148  0.7449831228161087  1.0000
  C   C85       1.0  0.18611022576840955  0.6644417845025856  0.7434124141731359  1.0000
  C   C86       1.0  0.9040254284242268  0.7616743313872547  0.855099905418065  1.0000
  C   C87       1.0  0.9320027499347746  0.7143732841150552  0.8220376919234977  1.0000
  C   C88       1.0  0.8587433911771641  0.6576480693531579  0.7903020439061662  1.0000
  C   C89       1.0  0.7594410073582553  0.6496238697589546  0.7937986844073277  1.0000
  C   C90       1.0  0.7376517833749291  0.6990254799709277  0.8283403797802648  1.0000
  C   C91       1.0  0.9848473364300931  0.9241532722371135  0.9499385584207471  1.0000
  C   C92       1.0  0.07003076276862417  0.9360201808045046  0.9759164703655542  1.0000
  C   C93       1.0  0.06426954958359946  0.8860690279545835  0.004829522604296712  1.0000
  C   C94       1.0  0.9725289646841163  0.8264651826532302  0.006872644455199914  1.0000
  C   C95       1.0  0.8909052219426459  0.8182044255859469  0.9797095302980948  1.0000
  C   C96       1.0  0.15265587310413062  0.8965560317949652  0.033435922252437  1.0000
  C   C97       1.0  0.3143715677700101  0.9642227157545377  0.05867879559999517  1.0000
  C   C98       1.0  0.21970448980806628  0.8655772135700773  0.09015807340838929  1.0000
  C   C99       1.0  0.2101042968969936  0.8151921927968219  0.12262535376079602  1.0000
  C   C100      1.0  0.2771359003364183  0.8402844957574018  0.1608421970664082  1.0000
  C   C101      1.0  0.2647156911763845  0.7918199968825377  0.19085775438436062  1.0000
  C   C102      1.0  0.12801432163256984  0.6957763536419748  0.14672360827198358  1.0000
  C   C103      1.0  0.13404790897723032  0.7415115048118396  0.11565340987299783  1.0000
  C   C104      1.0  0.4104212507149612  0.0286994574255743  0.057604847091162995  1.0000
  C   C105      1.0  0.43288178781703834  0.0619557930350254  0.019840976681067  1.0000
  C   C106      1.0  0.5247031020195863  0.1218379118239596  0.020312132008335496  1.0000
  C   C107      1.0  0.5700098642980151  0.1183323579616911  0.09298323891010087  1.0000
  C   C108      1.0  0.4804526829630974  0.058042972676339816  0.09499484527031397  1.0000
  C   C109      1.0  0.6247511902403459  0.34255829491921475  0.09617702740004569  1.0000
  C   C110      1.0  0.6058990797234927  0.40032914996987046  0.12528311600314618  1.0000
  C   C111      1.0  0.6741308769942977  0.4442050256054841  0.1623254301119772  1.0000
  C   C112      1.0  0.7579555290542218  0.427293291813065  0.1690744277294627  1.0000
  C   C113      1.0  0.7702885034025401  0.36763601711519567  0.1389573324895608  1.0000
  C   C114      1.0  0.6597075945522234  0.5076359859477433  0.19405142093950897  1.0000
  C   C115      1.0  0.5709371584962569  0.580554661283415  0.21744518668422327  1.0000
  C   C116      1.0  0.7204715475663691  0.6085109730275917  0.2538471184463802  1.0000
  C   C117      1.0  0.4791157766414572  0.5965197514925364  0.21622822075475057  1.0000
  C   C118      1.0  0.39123864953297277  0.5443796603468414  0.19076833386922223  1.0000
  C   C119      1.0  0.3059316692403088  0.5608539252232845  0.19434877275760698  1.0000
  C   C120      1.0  0.39036510962319676  0.6766133774439493  0.2448659625647096  1.0000
  C   C121      1.0  0.4781634019778808  0.6643402520754621  0.24331086272367491  1.0000
  C   C122      1.0  0.8577747537548532  0.7616922322334501  0.35498176917198515  1.0000
  C   C123      1.0  0.782414269768637  0.7144710201869131  0.3219506837083372  1.0000
  C   C124      1.0  0.7987701661832887  0.6576261831434069  0.290215872164751  1.0000
  C   C125      1.0  0.8900080385998947  0.649533217170074  0.293658703604315  1.0000
  C   C126      1.0  0.9612634672004318  0.6988504655193851  0.32818196569830593  1.0000
  C   C127      1.0  0.9392375964091784  0.9238152521248395  0.45000427149638966  1.0000
  C   C128      1.0  0.86594586512944  0.9357989527814468  0.47597370727729776  1.0000
  C   C129      1.0  0.821472819727383  0.8858480118296727  0.5048556561846594  1.0000
  C   C130      1.0  0.853416722838098  0.8261377000379965  0.5068902821326872  1.0000
  C   C131      1.0  0.9268764924277166  0.8178364441896235  0.4797785216681517  1.0000
  C   C132      1.0  0.7435403934863772  0.8964025022880336  0.5334517212058856  1.0000
  C   C133      1.0  0.6494117098259977  0.964048367735188  0.5586521091578901  1.0000
  C   C134      1.0  0.6455079993848898  0.8655008677600406  0.5902005458191155  1.0000
  C   C135      1.0  0.6048175159371356  0.8151762324143023  0.622705849472311  1.0000
  C   C136      1.0  0.5630006939106167  0.8402859691018917  0.6609764710402855  1.0000
  C   C137      1.0  0.5270313471623994  0.7918027379984309  0.6909818533214319  1.0000
  C   C138      1.0  0.5676499602004343  0.695759899610387  0.6467738095244471  1.0000
  C   C139      1.0  0.6072444938571379  0.7415171550667025  0.6157019568858217  1.0000
  C   C140      1.0  0.6178400178319593  0.028524577955238314  0.5575372046067315  1.0000
  C   C141      1.0  0.6287864427232462  0.06183185200798389  0.5197936333032017  1.0000
  C   C142      1.0  0.5969691421583364  0.12177220974814419  0.520263088359428  1.0000
  C   C143      1.0  0.5478553753223424  0.11818310272086312  0.5928799299582508  1.0000
  C   C144      1.0  0.5771195804405735  0.0579077267652437  0.5949077852332323  1.0000
  Br  Br1       1.0  0.4967818658403758  0.46146734067941947  0.293517390093406  1.0000
  Br  Br2       1.0  0.4803259588259152  0.26153503833831593  0.19783555644217896  1.0000
  Br  Br3       1.0  0.865369042707492  0.2307246999631616  0.5600952871712508  1.0000
  Br  Br4       1.0  0.8667364748313205  0.0574252624504226  0.6303844786884836  1.0000
  Br  Br5       1.0  0.15486924821323111  0.7919151498239645  0.9044563239975287  1.0000
  Br  Br6       1.0  0.2625546532540995  0.7267361428268303  0.013659496954034001  1.0000
  Br  Br7       1.0  0.9648880316100802  0.46153296302230024  0.7936293764614745  1.0000
  Br  Br8       1.0  0.7814154186150618  0.2618648010893523  0.6978759451795681  1.0000
  Br  Br9       1.0  0.36505966299075965  0.2301040995875212  0.0600171138010879  1.0000
  Br  Br10      1.0  0.18942059641384648  0.05702865901808001  0.1305647416615017  1.0000
  Br  Br11      1.0  0.6370626605023163  0.7908846421383303  0.4046303484916152  1.0000
  Br  Br12      1.0  0.4627973337582533  0.72654819053934  0.5137445552913106  1.0000
  Br  Br13      1.0  0.03510983663120031  0.5384625384103147  0.20636922495186377  1.0000
  Br  Br14      1.0  0.2185690421757372  0.738127226973134  0.30212486245117987  1.0000
  Br  Br15      1.0  0.6349419974338703  0.7698948675116171  0.9399819158503958  1.0000
  Br  Br16      1.0  0.8105819280349138  0.942972037014293  0.8694358190596104  1.0000
  Br  Br17      1.0  0.36293726595474857  0.20911085731138004  0.5953689112079771  1.0000
  Br  Br18      1.0  0.5372021578028168  0.2734519308475214  0.4862549465769845  1.0000
  Br  Br19      1.0  0.5032171896408358  0.538537400688007  0.7064830123810708  1.0000
  Br  Br20      1.0  0.519690004532194  0.7384760595588065  0.8021646427484936  1.0000
  Br  Br21      1.0  0.1346226768664921  0.7692667445176085  0.43990742381922837  1.0000
  Br  Br22      1.0  0.13327544521338575  0.942566766239587  0.3696159977073136  1.0000
  Br  Br23      1.0  0.8451326968651787  0.20808438804257182  0.09554508158333867  1.0000
  Br  Br24      1.0  0.7374687557642192  0.2732651334928207  0.9863401459969408  1.0000
  N   N1        1.0  0.2948941796973373  0.6737036180604008  0.8970185542148315  1.0000
  N   N2        1.0  0.6947187935809184  0.37442027627085384  0.7788595096005294  1.0000
  N   N3        1.0  0.05416826731858045  0.24545849150579366  0.6419231821922864  1.0000
  N   N4        1.0  0.4231789155057868  0.4790904706961995  0.8122979355189057  1.0000
  N   N5        1.0  0.35790219370500154  0.37213239278560195  0.7502759678745861  1.0000
  N   N6        1.0  0.26810812275117973  0.4518912558305956  0.772568173389473  1.0000
  N   N7        1.0  0.03138451740834822  0.1344672583277742  0.5483723951936739  1.0000
  N   N8        1.0  0.44320916662725574  0.8508844858448869  0.4439311495357002  1.0000
  N   N9        1.0  0.4712126730717402  0.27933752529258277  0.31607527804596447  1.0000
  N   N10       1.0  0.28782481527331777  0.14892015921098078  0.436546805323907  1.0000
  N   N11       1.0  0.28896522496523147  0.048676585180288605  0.4718145207642407  1.0000
  N   N12       1.0  0.3855504720905217  0.0769771285292364  0.40952448531617586  1.0000
  N   N13       1.0  0.3787538119640957  0.6736063303748523  0.3969822161095138  1.0000
  N   N14       1.0  0.6797419978445874  0.374337229801732  0.2787408064243024  1.0000
  N   N15       1.0  0.19114937576618027  0.24533016379666614  0.1417942198744839  1.0000
  N   N16       1.0  0.055999258389967124  0.47905816826129666  0.31219895528464997  1.0000
  N   N17       1.0  0.014360728754077559  0.37205806088133647  0.2502168588098641  1.0000
  N   N18       1.0  0.18392173690218536  0.45184886312395633  0.2724884512636265  1.0000
  N   N19       1.0  0.102873578035755  0.13407277066388454  0.0484556470585744  1.0000
  N   N20       1.0  0.4079015131415319  0.8508017583105955  0.9438594064894941  1.0000
  N   N21       1.0  0.8081771834774898  0.2793118996171772  0.8161607038442114  1.0000
  N   N22       1.0  0.861318721805894  0.14886089715201223  0.9366114074261205  1.0000
  N   N23       1.0  0.7599301129647672  0.048461191355734505  0.9717835322290753  1.0000
  N   N24       1.0  0.6917351530851618  0.07684467314103932  0.9095267882819227  1.0000
  N   N25       1.0  0.6212448126131991  0.32639205718729875  0.6030174007828393  1.0000
  N   N26       1.0  0.3202567641039025  0.6256669261238487  0.721262158401835  1.0000
  N   N27       1.0  0.8088582439295707  0.7546711117463828  0.8582057534545484  1.0000
  N   N28       1.0  0.9440016078799972  0.5209419560429182  0.6877995588266258  1.0000
  N   N29       1.0  0.9856410080512388  0.6279438031173683  0.749779564964946  1.0000
  N   N30       1.0  0.8160779724028446  0.5481489477834814  0.7275107649109456  1.0000
  N   N31       1.0  0.8971269970692007  0.8659267721116777  0.9515441125294188  1.0000
  N   N32       1.0  0.5920994548972515  0.14919719901434553  0.0561429153997537  1.0000
  N   N33       1.0  0.19181605764745788  0.7206853317971211  0.18383909982325264  1.0000
  N   N34       1.0  0.13868008151283823  0.8511392213087347  0.06338908214878809  1.0000
  N   N35       1.0  0.24006840037282018  0.9515383475329455  0.028217544385078994  1.0000
  N   N36       1.0  0.3082647331855243  0.9231548657300978  0.09047428823142671  1.0000
  N   N37       1.0  0.7051086335487116  0.3262976555874388  0.10298207790451387  1.0000
  N   N38       1.0  0.3052802985351024  0.6255804198053598  0.22114105137261222  1.0000
  N   N39       1.0  0.9458295613282459  0.7545410503265443  0.3580769068160662  1.0000
  N   N40       1.0  0.5768221265459701  0.5209113796151287  0.1877030973686118  1.0000
  N   N41       1.0  0.6420987436182842  0.6278706196135105  0.24972290332864588  1.0000
  N   N42       1.0  0.7318914770899454  0.5481077093382611  0.2274315148507  1.0000
  N   N43       1.0  0.9686155877901683  0.865529972020532  0.45162773718848104  1.0000
  N   N44       1.0  0.5567915884030016  0.14911678978585738  0.5560688242973839  1.0000
  N   N45       1.0  0.5287868889507196  0.7206654832108867  0.6839249101330152  1.0000
  N   N46       1.0  0.7121739892292709  0.8510799612063593  0.5634530258135371  1.0000
  N   N47       1.0  0.7110366142008432  0.9513241128174456  0.5281853815698057  1.0000
  N   N48       1.0  0.6144498864543311  0.9230247266823427  0.5904749015280686  1.0000
