data_image0
_chemical_formula_structural       H24Pb8C56N8O32
_chemical_formula_sum              "H24 Pb8 C56 N8 O32"
_cell_length_a       12.442860456100787
_cell_length_b       12.442884232618818
_cell_length_c       12.442889747320493
_cell_angle_alpha    65.72808430500291
_cell_angle_beta     79.75444971566314
_cell_angle_gamma    114.27186534836827

_space_group_name_H-M_alt    "P 1"
_space_group_IT_number       1

loop_
  _space_group_symop_operation_xyz
  'x, y, z'

loop_
  _atom_site_type_symbol
  _atom_site_label
  _atom_site_symmetry_multiplicity
  _atom_site_fract_x
  _atom_site_fract_y
  _atom_site_fract_z
  _atom_site_occupancy
  H   H1        1.0  0.35470671653966696  0.03202340596827482  0.8847249997656661  1.0000
  H   H2        1.0  0.11527525891491307  0.2605699660727296  0.9167473184234611  1.0000
  H   H3        1.0  0.0832511337272877  0.46797691829988247  0.17731835213688646  1.0000
  H   H4        1.0  0.82268251725381  0.2394310397842999  0.6452943459755361  1.0000
  H   H5        1.0  0.645293739406327  0.9679758027742551  0.11527435446496538  1.0000
  H   H6        1.0  0.8847251946698477  0.7394312111245822  0.08325115722310288  1.0000
  H   H7        1.0  0.9167502877478172  0.5320240971948993  0.82268148376631  1.0000
  H   H8        1.0  0.1773169639446976  0.760568843198527  0.35470629769041306  1.0000
  H   H9        1.0  0.2638583314407655  0.8691447242371168  0.12720487827363772  1.0000
  H   H10       1.0  0.8727947079276107  0.10893683491728018  0.9963492451459003  1.0000
  H   H11       1.0  0.0036517504952371005  0.6308572202640831  0.10528450118368231  1.0000
  H   H12       1.0  0.8947135685544225  0.3910631342824758  0.7361424457184284  1.0000
  H   H13       1.0  0.7361411508817284  0.13085552272495699  0.8727948833233086  1.0000
  H   H14       1.0  0.12720574340919907  0.8910636143215243  0.0036509946386687176  1.0000
  H   H15       1.0  0.9963487019655446  0.3691435929539748  0.8947148565318843  1.0000
  H   H16       1.0  0.1052868827823872  0.6089373149563286  0.2638577940661406  1.0000
  H   H17       1.0  0.3351580732532041  0.7033216014174853  0.21471623332732295  1.0000
  H   H18       1.0  0.785284969015308  0.9501259396434704  0.9180375644743962  1.0000
  H   H19       1.0  0.08196245495524579  0.7966774527278556  0.8681636867149224  1.0000
  H   H20       1.0  0.1318354839709386  0.5498734321114896  0.6648415501332894  1.0000
  H   H21       1.0  0.6648423798262043  0.2966780455835617  0.7852840047147824  1.0000
  H   H22       1.0  0.21471548232150184  0.049874509595333905  0.08196267531017301  1.0000
  H   H23       1.0  0.918037029109847  0.20332199199646087  0.13183607313955284  1.0000
  H   H24       1.0  0.8681640012181331  0.45012637659208077  0.3351573276521836  1.0000
  Pb  Pb1       1.0  0.7031542486140694  0.07937950788709003  0.43061840029116655  1.0000
  Pb  Pb2       1.0  0.5693809504793919  0.36622680957723464  0.5099984567483773  1.0000
  Pb  Pb3       1.0  0.4900018303745313  0.42062019887652713  0.8762255920821501  1.0000
  Pb  Pb4       1.0  0.12377423471709649  0.13377237730004043  0.2968458628718765  1.0000
  Pb  Pb5       1.0  0.29684620558931124  0.9206205030932038  0.5693809556819361  1.0000
  Pb  Pb6       1.0  0.43061562480014703  0.633772830554669  0.4899998702856864  1.0000
  Pb  Pb7       1.0  0.5099986227048775  0.579379448124513  0.12377464595995485  1.0000
  Pb  Pb8       1.0  0.8762262183623122  0.8662272697009995  0.7031543751702288  1.0000
  C   C1        1.0  0.5264590446962246  0.05308803777923282  0.702612961511129  1.0000
  C   C2        1.0  0.29738837868754325  0.2709286979231961  0.7557005653072723  1.0000
  C   C3        1.0  0.24430077919879517  0.44691298686220887  0.02662790879322332  1.0000
  C   C4        1.0  0.9733723413608146  0.22907087814981958  0.4735408563342105  1.0000
  C   C5        1.0  0.4735404365022902  0.9469118452035944  0.2973876821548203  1.0000
  C   C6        1.0  0.7026120709066531  0.7290725535533724  0.24429967621976803  1.0000
  C   C7        1.0  0.7556996721380074  0.5530874623765952  0.9733723309913457  1.0000
  C   C8        1.0  0.026627141580299003  0.7709282025952504  0.5264597855892674  1.0000
  C   C9        1.0  0.5092696204401079  0.858608626211051  0.9040295422313778  1.0000
  C   C10       1.0  0.09597191140018418  0.086700933777898  0.7626383300381863  1.0000
  C   C11       1.0  0.23736200932211907  0.6413909516139142  0.8493394251023573  1.0000
  C   C12       1.0  0.15066016143597954  0.41329754847760103  0.4907309505905817  1.0000
  C   C13       1.0  0.49073180103498976  0.14139238928373038  0.09597029367181162  1.0000
  C   C14       1.0  0.9040285416792313  0.9132987132231492  0.2373619080039191  1.0000
  C   C15       1.0  0.7626384431386626  0.35860986160414393  0.150659932613209  1.0000
  C   C16       1.0  0.8493383524908183  0.5867013299907382  0.5092692131452737  1.0000
  C   C17       1.0  0.47171296747620056  0.9520922117391492  0.8466925331455858  1.0000
  C   C18       1.0  0.15330775645864486  0.18159671656052004  0.7987851332131157  1.0000
  C   C19       1.0  0.20121607785445403  0.5479080495390743  0.9803812191120048  1.0000
  C   C20       1.0  0.019619789308123404  0.3184032850910512  0.5282888615181848  1.0000
  C   C21       1.0  0.5282884546175238  0.04790763753862131  0.15330818308414976  1.0000
  C   C22       1.0  0.8466917247398696  0.8184031664223069  0.20121551045283345  1.0000
  C   C23       1.0  0.7987843746063349  0.4520927636789835  0.01961813860356894  1.0000
  C   C24       1.0  0.9803796947569694  0.6815961596332658  0.4717108983362906  1.0000
  C   C25       1.0  0.3811550150595764  0.9559137169150845  0.9277210399096562  1.0000
  C   C26       1.0  0.07227876874917881  0.19112551214432458  0.8836336254485674  1.0000
  C   C27       1.0  0.1163663725995789  0.5440877789212735  0.07475921269870867  1.0000
  C   C28       1.0  0.9252399982580356  0.3088742628323827  0.6188474250412952  1.0000
  C   C29       1.0  0.6188464099007333  0.044085694104175704  0.07227879250860524  1.0000
  C   C30       1.0  0.927721683711603  0.8088753010737335  0.11636573226700618  1.0000
  C   C31       1.0  0.8836340798612029  0.4559130342967848  0.9252401450168648  1.0000
  C   C32       1.0  0.0747594818164998  0.6911252561711975  0.38115410069364947  1.0000
  C   C33       1.0  0.6209231300119881  0.8630036344997121  0.8259669536999542  1.0000
  C   C34       1.0  0.17403678091395852  0.05311216827465153  0.6889707963100593  1.0000
  C   C35       1.0  0.31102945891898065  0.6369928922573678  0.7420821838462077  1.0000
  C   C36       1.0  0.25791818439711284  0.4468876043759593  0.3790778537382522  1.0000
  C   C37       1.0  0.3790792610960594  0.13699641705478166  0.174034240717404  1.0000
  C   C38       1.0  0.8259636721654503  0.9468874787263956  0.311029441732046  1.0000
  C   C39       1.0  0.6889700262700842  0.3630069164462029  0.25791669393926514  1.0000
  C   C40       1.0  0.742081298544001  0.5531114763691108  0.6209227881852258  1.0000
  C   C41       1.0  0.331202448809627  0.8665027336936717  0.06097872832781091  1.0000
  C   C42       1.0  0.9390213075902097  0.10781846868165697  0.9274809401152523  1.0000
  C   C43       1.0  0.0725191492333366  0.6334983616845092  0.0352993175821297  1.0000
  C   C44       1.0  0.9646984872467427  0.3921813793535803  0.668797653063699  1.0000
  C   C45       1.0  0.6687980053937536  0.1334972772866222  0.9390206276452917  1.0000
  C   C46       1.0  0.06097914723180509  0.8921803760816259  0.07251929618438882  1.0000
  C   C47       1.0  0.927481303227445  0.3665024515335486  0.964700040133437  1.0000
  C   C48       1.0  0.035300024937456  0.6078183013525162  0.33120251241462034  1.0000
  C   C49       1.0  0.36983955363679394  0.7728638678166462  0.11072641569732165  1.0000
  C   C50       1.0  0.8892734927641966  0.01943333352675572  0.8835901756888096  1.0000
  C   C51       1.0  0.11640941991402799  0.7271364318141378  0.9030237293237494  1.0000
  C   C52       1.0  0.0969757694255975  0.480566580033063  0.6301604376386437  1.0000
  C   C53       1.0  0.6301609005665937  0.2271361431636476  0.889272940275781  1.0000
  C   C54       1.0  0.11072696143919099  0.9805666774535381  0.11640918028429335  1.0000
  C   C55       1.0  0.8835900624084586  0.2728638151479427  0.0969760322731903  1.0000
  C   C56       1.0  0.9030246830351915  0.5194342331849953  0.3698389200769227  1.0000
  N   N1        1.0  0.4561307167794553  0.769114295268565  0.033891675022054854  1.0000
  N   N2        1.0  0.9661102625908741  0.009978214667199803  0.8030057886114649  1.0000
  N   N3        1.0  0.1969948465829176  0.7308846658324409  0.8129823496384461  1.0000
  N   N4        1.0  0.18701558305866683  0.4900224030968658  0.5438695916518128  1.0000
  N   N5        1.0  0.5438697374239326  0.23088571571172886  0.9661076809510478  1.0000
  N   N6        1.0  0.033890187003322594  0.9900230368093617  0.19699445291556833  1.0000
  N   N7        1.0  0.8030046374821748  0.26911477889187524  0.18701741021602927  1.0000
  N   N8        1.0  0.81298389926382  0.5099778438652152  0.45613016994512623  1.0000
  O   O1        1.0  0.492315982776617  0.0035200900152501527  0.6350269913392456  1.0000
  O   O2        1.0  0.36497288469578854  0.37265670168552845  0.638549634736748  1.0000
  O   O3        1.0  0.36145127849512443  0.496479611579872  0.011205572352153633  1.0000
  O   O4        1.0  0.988794296857833  0.12734186160220431  0.5076856517960947  1.0000
  O   O5        1.0  0.5076854421836927  0.9964793210040099  0.3649728410790162  1.0000
  O   O6        1.0  0.6350285373979361  0.6273431475922351  0.3614510814929801  1.0000
  O   O7        1.0  0.6385501441039522  0.5035217678941633  0.9887933814820401  1.0000
  O   O8        1.0  0.0112061573455549  0.8726581493780897  0.49231370417700754  1.0000
  O   O9        1.0  0.5981754442681719  0.181440735432723  0.6633300238298221  1.0000
  O   O10       1.0  0.33667031019216154  0.23849529613683276  0.8447713903481641  1.0000
  O   O11       1.0  0.15522932788214658  0.3185589649708902  0.08326516577603371  1.0000
  O   O12       1.0  0.9167343816214172  0.26150443217640884  0.4018256417726036  1.0000
  O   O13       1.0  0.40182306617342073  0.8185597475111378  0.3366701433909611  1.0000
  O   O14       1.0  0.6633291681397679  0.7615050251045048  0.15523013712924447  1.0000
  O   O15       1.0  0.8447711234546558  0.6814414842679142  0.9167350740085356  1.0000
  O   O16       1.0  0.0832651013197037  0.738494648568654  0.5981750001508743  1.0000
  O   O17       1.0  0.6908615349983123  0.9614539636419508  0.7087466359941389  1.0000
  O   O18       1.0  0.2912548115154223  0.10039334905022905  0.6702008525524762  1.0000
  O   O19       1.0  0.3297988844254292  0.5385453054222679  0.770594114527512  1.0000
  O   O20       1.0  0.2294060474970436  0.39960642892004467  0.3091402147491353  1.0000
  O   O21       1.0  0.3091408561097282  0.038546087912550264  0.2912545584232192  1.0000
  O   O22       1.0  0.7087446703017122  0.8996053677155871  0.32980067143999753  1.0000
  O   O23       1.0  0.6702005990210367  0.4614553055190597  0.2294047650004246  1.0000
  O   O24       1.0  0.770593434825443  0.6003938180420361  0.6908595468478042  1.0000
  O   O25       1.0  0.6441469638384304  0.7691904614045341  0.8870547570782322  1.0000
  O   O26       1.0  0.11294741248633497  0.9687987862268059  0.656246652029637  1.0000
  O   O27       1.0  0.3437543806626806  0.7308072006634845  0.6250448579446798  1.0000
  O   O28       1.0  0.3749559451523368  0.5312016591983239  0.3558520820810145  1.0000
  O   O29       1.0  0.35585251972131  0.2308074531235178  0.1129467651717846  1.0000
  O   O30       1.0  0.8870530388504675  0.03120166301199828  0.34375358775493237  1.0000
  O   O31       1.0  0.6562451034024123  0.2691922440608323  0.3749549019097955  1.0000
  O   O32       1.0  0.625044509051051  0.4687983517819704  0.644147273892088  1.0000
