data_image0
_chemical_formula_structural       Sm4H36C36N12O36
_chemical_formula_sum              "Sm4 H36 C36 N12 O36"
_cell_length_a       6.054759912693262
_cell_length_b       10.461695584190917
_cell_length_c       19.077886439052957
_cell_angle_alpha    90.00007837976285
_cell_angle_beta     89.99974202686255
_cell_angle_gamma    89.92306433497151

_space_group_name_H-M_alt    "P 1"
_space_group_IT_number       1

loop_
  _space_group_symop_operation_xyz
  'x, y, z'

loop_
  _atom_site_type_symbol
  _atom_site_label
  _atom_site_symmetry_multiplicity
  _atom_site_fract_x
  _atom_site_fract_y
  _atom_site_fract_z
  _atom_site_occupancy
  Sm  Sm1       1.0  0.7430983891079919  0.8105860178345168  0.4035250833420392  1.0000
  Sm  Sm2       1.0  0.7569061671914667  0.6894126354028032  0.9035232865682306  1.0000
  Sm  Sm3       1.0  0.25690263045053996  0.18941356113278834  0.5964747668501218  1.0000
  Sm  Sm4       1.0  0.2430981396658467  0.31058886189846663  0.09647656362231061  1.0000
  H   H1        1.0  0.12288818458181791  0.5079482640057194  0.5437537335664331  1.0000
  H   H2        1.0  0.37710556308604737  0.9920525678616205  0.04375390342621441  1.0000
  H   H3        1.0  0.8771111754785964  0.4920522675202434  0.4562455924601921  1.0000
  H   H4        1.0  0.6228937969706366  0.007947963664996402  0.9562459467674885  1.0000
  H   H5        1.0  0.5281993507084835  0.7661021744800325  0.11768538025364711  1.0000
  H   H6        1.0  0.971809253006029  0.7338976776729284  0.6176843587496421  1.0000
  H   H7        1.0  0.47180663942937423  0.23389550267248185  0.882314469934251  1.0000
  H   H8        1.0  0.0281851364676058  0.26610475566912584  0.3823160156154089  1.0000
  H   H9        1.0  0.11727478451444279  0.9599650296538872  0.150990274282556  1.0000
  H   H10       1.0  0.3827289918634023  0.5400370486245976  0.6509908062414527  1.0000
  H   H11       1.0  0.8827262350440889  0.04003454931341821  0.8490095759096123  1.0000
  H   H12       1.0  0.6172654134589735  0.4599634729918166  0.3490100922899374  1.0000
  H   H13       1.0  0.884696966358959  0.5877918374434686  0.30086048602578336  1.0000
  H   H14       1.0  0.6153007914517161  0.912206543257007  0.800860107538064  1.0000
  H   H15       1.0  0.1153007579782965  0.4122067790523547  0.6991388400012896  1.0000
  H   H16       1.0  0.38469857652747663  0.08779303240712012  0.19914026682235433  1.0000
  H   H17       1.0  0.10307324281843223  0.6442453815958517  0.33225133453162675  1.0000
  H   H18       1.0  0.3969263370146622  0.8557533219468283  0.8322531325397764  1.0000
  H   H19       1.0  0.8969261330907159  0.35575323820446414  0.6677485156613516  1.0000
  H   H20       1.0  0.6030730309608004  0.14424625371794522  0.16774776598771982  1.0000
  H   H21       1.0  0.455031226507522  0.0198552501020899  0.3433065801697169  1.0000
  H   H22       1.0  0.0449743323799581  0.4801430256633241  0.8433042565597761  1.0000
  H   H23       1.0  0.5449697851210614  0.9801452847290196  0.6566937941898915  1.0000
  H   H24       1.0  0.9550233840236191  0.519856546696964  0.15669611780182183  1.0000
  H   H25       1.0  0.6890737973812409  0.07814838143823982  0.3469771772385358  1.0000
  H   H26       1.0  0.8109310688548205  0.4218525298160785  0.8469754785900536  1.0000
  H   H27       1.0  0.31092721425478953  0.9218521533915625  0.6530221487869171  1.0000
  H   H28       1.0  0.18906829913182585  0.578147045846734  0.1530238474362022  1.0000
  H   H29       1.0  0.7052404935345393  0.027315745760972704  0.5164283072071144  1.0000
  H   H30       1.0  0.7947591699797698  0.4726833655053612  0.0164291041210447  1.0000
  H   H31       1.0  0.294760541880187  0.9726819214793782  0.4835710188172371  1.0000
  H   H32       1.0  0.20524019006946054  0.5273171660225628  0.9835717944068141  1.0000
  H   H33       1.0  0.8956641081595292  0.9392688043610633  0.5413972138514965  1.0000
  H   H34       1.0  0.6043340110506747  0.5607317902851394  0.04139639942847851  1.0000
  H   H35       1.0  0.1043385788382665  0.06072886618181883  0.45860106383752003  1.0000
  H   H36       1.0  0.3956620458584936  0.4392687346331528  0.9586029266004986  1.0000
  C   C1        1.0  0.26115649668286517  0.7307553158469491  0.4754484585624469  1.0000
  C   C2        1.0  0.23884101586615714  0.7692475682457882  0.9754504169004863  1.0000
  C   C3        1.0  0.7388445308205291  0.26924330725393725  0.524548770793956  1.0000
  C   C4        1.0  0.7611566846849483  0.23075391584080054  0.02454995746184351  1.0000
  C   C5        1.0  0.3845065439581817  0.6074461187175687  0.4880283339854118  1.0000
  C   C6        1.0  0.1154990635087572  0.8925549015367835  0.988028464574036  1.0000
  C   C7        1.0  0.6154977628991319  0.39255537858370826  0.5119715162051294  1.0000
  C   C8        1.0  0.8845035997028958  0.10744563659685012  0.011970861450237203  1.0000
  C   C9        1.0  0.2910758904797461  0.5041791835502922  0.5236947864084415  1.0000
  C   C10       1.0  0.20892475656481221  0.9958206556463199  0.0236941507194146  1.0000
  C   C11       1.0  0.7089251370050178  0.4958194395538628  0.4763050637833573  1.0000
  C   C12       1.0  0.7910795582150102  0.004179885792460401  0.9763062236378417  1.0000
  C   C13       1.0  0.4332745313019686  0.7218330625152234  0.26157453602120034  1.0000
  C   C14       1.0  0.06672934846520918  0.7781664272442372  0.7615730774660393  1.0000
  C   C15       1.0  0.5667264961865256  0.27816556058827774  0.7384247900035136  1.0000
  C   C16       1.0  0.9332683679458071  0.22183314511474359  0.23842624856139594  1.0000
  C   C17       1.0  0.6215765529358777  0.7914401935304627  0.22675925057274784  1.0000
  C   C18       1.0  0.8784271971142701  0.7085599240181467  0.7267588673599904  1.0000
  C   C19       1.0  0.37841950397329066  0.20856033138782243  0.7732400754562293  1.0000
  C   C20       1.0  0.12157546608992931  0.29144061411679445  0.2732415069984384  1.0000
  C   C21       1.0  0.649298905056689  0.8048233792761151  0.15426954971043472  1.0000
  C   C22       1.0  0.8507108381179691  0.6951756115473772  0.654267099287921  1.0000
  C   C23       1.0  0.3507054335018225  0.19517429457321364  0.8457308246457202  1.0000
  C   C24       1.0  0.1492868465844026  0.3048277842648446  0.3457327509080629  1.0000
  C   C25       1.0  0.9724118067943621  0.9123752695336053  0.1721759554932163  1.0000
  C   C26       1.0  0.5275960223286021  0.5876247185043582  0.6721744091500952  1.0000
  C   C27       1.0  0.027592531764156495  0.0876224043157308  0.8278244188629388  1.0000
  C   C28       1.0  0.47239835921880063  0.41237867070084644  0.3278259652153181  1.0000
  C   C29       1.0  0.9445489132894593  0.9027952450135506  0.2445131252692434  1.0000
  C   C30       1.0  0.5554562438995987  0.5972039642472639  0.744511022230249  1.0000
  C   C31       1.0  0.0554537578409651  0.09720433725824759  0.7554872490888159  1.0000
  C   C32       1.0  0.4445431082271297  0.402797523143157  0.2554893521309013  1.0000
  C   C33       1.0  0.1017255189573447  0.9569813995165934  0.297758114583445  1.0000
  C   C34       1.0  0.3982712639407567  0.5430152996686105  0.7977549574408799  1.0000
  C   C35       1.0  0.8982738490144015  0.04301817614883421  0.7022433081111359  1.0000
  C   C36       1.0  0.601724792957242  0.45698522525164287  0.20224594108933763  1.0000
  N   N1        1.0  0.5934597857960284  0.6024041013492153  0.4645261037289076  1.0000
  N   N2        1.0  0.9065455390731503  0.897596619041174  0.9645258228880639  1.0000
  N   N3        1.0  0.40654618848936513  0.39759548752959256  0.5354737464597221  1.0000
  N   N4        1.0  0.0934554646329246  0.10240487165242486  0.035474027304836404  1.0000
  N   N5        1.0  0.770079057955634  0.8413627299718061  0.27072367716970563  1.0000
  N   N6        1.0  0.7299224314100317  0.6586355821823561  0.7707229440268223  1.0000
  N   N7        1.0  0.22992031003100522  0.15863684569100667  0.7292756488565574  1.0000
  N   N8        1.0  0.27007692071296674  0.3413659052087183  0.22927795450140562  1.0000
  N   N9        1.0  0.8251491335456578  0.8645084399042561  0.1270478778721653  1.0000
  N   N10       1.0  0.6748576775820467  0.6354923881548374  0.6270461575134123  1.0000
  N   N11       1.0  0.1748518780829187  0.13549209492684616  0.8729524964874431  1.0000
  N   N12       1.0  0.3251383634709342  0.3645100484904021  0.3729536926833817  1.0000
  O   O1        1.0  0.38307141558382807  0.8265469328592516  0.46202973048599477  1.0000
  O   O2        1.0  0.11692960672946381  0.6734540126501259  0.9620302180497403  1.0000
  O   O3        1.0  0.6169279603439434  0.17345168693780272  0.5379674988715878  1.0000
  O   O4        1.0  0.883069753338397  0.3265465188745296  0.037968059642729216  1.0000
  O   O5        1.0  0.05278779565799851  0.7298538666892115  0.47966500684023566  1.0000
  O   O6        1.0  0.447214635455822  0.7701461702408707  0.9796671927452039  1.0000
  O   O7        1.0  0.9472099207642019  0.270145705667808  0.5203327466859663  1.0000
  O   O8        1.0  0.5527847563020599  0.2298505378338049  0.020333181614113  1.0000
  O   O9        1.0  0.44274409443143264  0.7148923352098963  0.32871718441260367  1.0000
  O   O10       1.0  0.0572621498995431  0.785105416866365  0.8287146962625515  1.0000
  O   O11       1.0  0.557260252053311  0.28510438277628947  0.6712831899431819  1.0000
  O   O12       1.0  0.9427421569540472  0.2148960804355654  0.1712856780950673  1.0000
  O   O13       1.0  0.2809828877504472  0.67613080783147  0.22456371418200408  1.0000
  O   O14       1.0  0.2190215022935575  0.8238705013565022  0.7245605003029781  1.0000
  O   O15       1.0  0.7190181476642792  0.32386685940888077  0.7754356118423475  1.0000
  O   O16       1.0  0.7809745466819252  0.17613097942624023  0.275439874060524  1.0000
  O   O17       1.0  0.051119520208253305  0.9393064118164035  0.3618166026933026  1.0000
  O   O18       1.0  0.4488763124464228  0.5606952264313776  0.8618144350115315  1.0000
  O   O19       1.0  0.9488765049848098  0.06069793655644421  0.6381842958383785  1.0000
  O   O20       1.0  0.5511263507540463  0.43930531170421716  0.1381864635139749  1.0000
  O   O21       1.0  0.27198032452028537  0.015583266455365698  0.2764497224326661  1.0000
  O   O22       1.0  0.22802123794559043  0.4844138768123473  0.776448189224631  1.0000
  O   O23       1.0  0.728019035543845  0.9844172650699435  0.7235490794268814  1.0000
  O   O24       1.0  0.7719797974616825  0.5155837904293108  0.22355218513387604  1.0000
  O   O25       1.0  0.9476372844137871  0.6262705319750455  0.3440717412527691  1.0000
  O   O26       1.0  0.552363146434196  0.8737298748180252  0.8440719477231439  1.0000
  O   O27       1.0  0.052358780425343796  0.3737290370794426  0.6559270606087679  1.0000
  O   O28       1.0  0.4476378731206196  0.12626970414993371  0.1559284266360947  1.0000
  O   O29       1.0  0.5910740005089608  0.019801475061662206  0.3732254157824713  1.0000
  O   O30       1.0  0.9089272053009054  0.48019758331566476  0.8732241454679442  1.0000
  O   O31       1.0  0.40892370797583066  0.9801990531604688  0.6267739102453335  1.0000
  O   O32       1.0  0.09107215475950173  0.5198029482102983  0.1267751805586812  1.0000
  O   O33       1.0  0.7824633036791296  0.9452669943071187  0.5052585976306859  1.0000
  O   O34       1.0  0.7175353450992148  0.5547315984927084  0.005258141351369301  1.0000
  O   O35       1.0  0.2175311412781298  0.05472874799289682  0.49474177673180014  1.0000
  O   O36       1.0  0.2824640228874244  0.4452679771701116  0.9947411846748868  1.0000
