data_image0
_chemical_formula_structural       Ag4H20C60N16
_chemical_formula_sum              "Ag4 H20 C60 N16"
_cell_length_a       7.7160541510914165
_cell_length_b       11.736411351964241
_cell_length_c       14.058872923987767
_cell_angle_alpha    79.99185437961076
_cell_angle_beta     75.60076409618473
_cell_angle_gamma    88.28694478803777

_space_group_name_H-M_alt    "P 1"
_space_group_IT_number       1

loop_
  _space_group_symop_operation_xyz
  'x, y, z'

loop_
  _atom_site_type_symbol
  _atom_site_label
  _atom_site_symmetry_multiplicity
  _atom_site_fract_x
  _atom_site_fract_y
  _atom_site_fract_z
  _atom_site_occupancy
  Ag  Ag1       1.0  0.9999984772905323  1.2017278471900623e-05  6.819264797906328e-08  1.0000
  Ag  Ag2       1.0  0.4999484786959769  0.4999290256118554  0.9999901267540565  1.0000
  Ag  Ag3       1.0  0.49994558795984995  0.9999861374065093  0.49997539051619094  1.0000
  Ag  Ag4       1.0  0.9999788996338238  0.9998721911441988  0.5001057730705298  1.0000
  H   H1        1.0  0.30043600322311903  0.9197272649826616  0.7299949244805647  1.0000
  H   H2        1.0  0.6995633128129055  0.0802952670325539  0.270002031214716  1.0000
  H   H3        1.0  0.021811186835208198  0.64084857712038  0.0574188664787485  1.0000
  H   H4        1.0  0.9782071301468777  0.35915325255003694  0.9425770195125409  1.0000
  H   H5        1.0  0.16810432726642688  0.6132195220651511  0.19692926112524134  1.0000
  H   H6        1.0  0.83191486921487  0.38678515062628804  0.8030702902731903  1.0000
  H   H7        1.0  0.4536046932490336  0.7168169636450159  0.1818089080828217  1.0000
  H   H8        1.0  0.5464120599923418  0.2831875627618032  0.8181887888865589  1.0000
  H   H9        1.0  0.5959754961222785  0.8479844877840744  0.02779151865924238  1.0000
  H   H10       1.0  0.4040387396008995  0.1520251174100338  0.9722040876600602  1.0000
  H   H11       1.0  0.30713476760163155  0.40195903885136636  0.7838758519331962  1.0000
  H   H12       1.0  0.6928883178315743  0.5980372541422483  0.216113411899606  1.0000
  H   H13       1.0  0.13461392674076222  0.3137417020112209  0.4701971194020444  1.0000
  H   H14       1.0  0.8653627425962326  0.686251164470626  0.5298069535183033  1.0000
  H   H15       1.0  0.14750371545471813  0.46797986357214677  0.325444979744141  1.0000
  H   H16       1.0  0.8524717700571571  0.532012045810184  0.6745579673065976  1.0000
  H   H17       1.0  0.2440470555751304  0.6686971842174003  0.3273022838542304  1.0000
  H   H18       1.0  0.7559423232074564  0.33129372691345077  0.6726943840573085  1.0000
  H   H19       1.0  0.33482708611282425  0.7160456661850529  0.47114930838337443  1.0000
  H   H20       1.0  0.6651813780576817  0.28394611049952795  0.5288416161783192  1.0000
  C   C1        1.0  0.4361411658146038  0.8937998168532174  0.8535671064851941  1.0000
  C   C2        1.0  0.563875933208152  0.10620782792445742  0.1464392544218285  1.0000
  C   C3        1.0  0.3031712063469313  0.8773307949045799  0.8045898253662217  1.0000
  C   C4        1.0  0.6968378783866741  0.1226810864873045  0.19541660702169858  1.0000
  C   C5        1.0  0.17402963097968177  0.7961905469259847  0.8663767517990024  1.0000
  C   C6        1.0  0.8259676540074493  0.20380898915870918  0.13363105081315044  1.0000
  C   C7        1.0  0.22485442250933113  0.762123662467232  0.9622558995383983  1.0000
  C   C8        1.0  0.7751627083526245  0.23787116007807904  0.03773996926288693  1.0000
  C   C9        1.0  0.1456740321625816  0.6873697400141339  0.04932999185590602  1.0000
  C   C10       1.0  0.8543484439631043  0.3126285962437406  0.9506646678175628  1.0000
  C   C11       1.0  0.22989542834508114  0.6717759576559813  0.12853971253648672  1.0000
  C   C12       1.0  0.7701281560160355  0.3282251036158427  0.8714564703167796  1.0000
  C   C13       1.0  0.3895193510331509  0.7294358363132362  0.11996961114505207  1.0000
  C   C14       1.0  0.6104961421376985  0.27056777232975543  0.8800276740305009  1.0000
  C   C15       1.0  0.47101687003820564  0.804748242023777  0.03177273805534502  1.0000
  C   C16       1.0  0.5289990037039444  0.1952534413620269  0.9682212935068933  1.0000
  C   C17       1.0  0.388050223497835  0.821025432977542  0.9535897053494226  1.0000
  C   C18       1.0  0.6119708413779463  0.1789755213453574  0.04640533715057419  1.0000
  C   C19       1.0  0.5882473481681599  0.9671156098196291  0.8135684737854377  1.0000
  C   C20       1.0  0.41175879636474383  0.0328965427456396  0.18642823485614465  1.0000
  C   C21       1.0  0.7213614918776868  0.978394434856753  0.863451455241325  1.0000
  C   C22       1.0  0.278636790201169  0.021620147072610497  0.1365442134951849  1.0000
  C   C23       1.0  0.6140153883970783  0.03337341392042959  0.7171934014920822  1.0000
  C   C24       1.0  0.3860023540674078  0.9666254153862041  0.2827959627889172  1.0000
  C   C25       1.0  0.028081048963898122  0.752404730502455  0.8402188094886044  1.0000
  C   C26       1.0  0.9719042170484469  0.2476076426738203  0.1597879124738739  1.0000
  C   C27       1.0  0.9029210315646523  0.6730570556284761  0.9075445941860991  1.0000
  C   C28       1.0  0.09706247971141829  0.32696086726755874  0.0924527379856528  1.0000
  C   C29       1.0  0.9996900427572014  0.7857212479271709  0.7436141463246314  1.0000
  C   C30       1.0  0.0003123446225928061  0.21434141373545398  0.2563965288214618  1.0000
  C   C31       1.0  0.33066492745800247  0.5398142913011341  0.6515689918445631  1.0000
  C   C32       1.0  0.6693187284402741  0.46018280997866157  0.3484307133628803  1.0000
  C   C33       1.0  0.2904054115442208  0.42899605768693755  0.7087702112803029  1.0000
  C   C34       1.0  0.7096027492839596  0.5710001977872494  0.29122277767051225  1.0000
  C   C35       1.0  0.23143608614593356  0.3569621369645263  0.6523477745636299  1.0000
  C   C36       1.0  0.7685734106703208  0.6430341326484381  0.34764507048804205  1.0000
  C   C37       1.0  0.22908968982030592  0.4267763846868462  0.5544807428461311  1.0000
  C   C38       1.0  0.7708968648231861  0.5732154411272106  0.4455174826324679  1.0000
  C   C39       1.0  0.1801540989092345  0.39995661491669665  0.4723135216128895  1.0000
  C   C40       1.0  0.8198241331849019  0.6000309619606411  0.5276892154777713  1.0000
  C   C41       1.0  0.1875515809691208  0.4883239889416514  0.3897814135455775  1.0000
  C   C42       1.0  0.8124210031746698  0.5116662815914668  0.6102242802964142  1.0000
  C   C43       1.0  0.2425313015454762  0.5999906990430831  0.390517047053109  1.0000
  C   C44       1.0  0.7574500609808155  0.39999926296576394  0.609480642636129  1.0000
  C   C45       1.0  0.2938302092450371  0.627560044355789  0.4731621002215221  1.0000
  C   C46       1.0  0.7061576820422458  0.37243352417577563  0.5268356645923192  1.0000
  C   C47       1.0  0.28769263882662693  0.5405375469861581  0.5545563980226405  1.0000
  C   C48       1.0  0.7123019320731673  0.4594552279498955  0.44544080567825267  1.0000
  C   C49       1.0  0.40831348210246426  0.6304876194979554  0.6819552249629127  1.0000
  C   C50       1.0  0.5916604409801282  0.3695104437782532  0.3180488995347091  1.0000
  C   C51       1.0  0.45266485454816063  0.739423421632516  0.6229750499032961  1.0000
  C   C52       1.0  0.5472891062701705  0.26057784738389245  0.37702988547459176  1.0000
  C   C53       1.0  0.45298525977901244  0.6080712487960865  0.7746503581253776  1.0000
  C   C54       1.0  0.5470136996563113  0.39191964329909723  0.22534316026474238  1.0000
  C   C55       1.0  0.1868674991084376  0.23894462180014392  0.6858640199252051  1.0000
  C   C56       1.0  0.8131611991573209  0.7610531568763645  0.31413436309001963  1.0000
  C   C57       1.0  0.13167192596331742  0.166610598444997  0.6292750034237287  1.0000
  C   C58       1.0  0.868345089929008  0.8333789355916182  0.370735397597926  1.0000
  C   C59       1.0  0.20207572862292977  0.186114659566897  0.7815276657378762  1.0000
  C   C60       1.0  0.7979510282815382  0.813895519707529  0.21847435642354185  1.0000
  N   N1        1.0  0.8355671093048046  0.9879962674153969  0.9030069980665658  1.0000
  N   N2        1.0  0.1644382378757356  0.012028560001802201  0.09698248020163901  1.0000
  N   N3        1.0  0.6314595719948315  0.0864922764882579  0.6364569806312802  1.0000
  N   N4        1.0  0.3685880137782575  0.9134910706485824  0.36352778430412513  1.0000
  N   N5        1.0  0.8001096679458044  0.6069873887358525  0.964332476424481  1.0000
  N   N6        1.0  0.19985849800988123  0.3930308747630704  0.03565999747222289  1.0000
  N   N7        1.0  0.9777446767449263  0.8115412169359641  0.6630596458914296  1.0000
  N   N8        1.0  0.02230758258045281  0.1885734471010636  0.33694478541099215  1.0000
  N   N9        1.0  0.4908898528141918  0.8306311218623889  0.5741586269933805  1.0000
  N   N10       1.0  0.5090484577021286  0.16937064509966857  0.425844306412607  1.0000
  N   N11       1.0  0.48698977327360626  0.5801662253030244  0.8518372043998711  1.0000
  N   N12       1.0  0.5130419351005598  0.41982205923338267  0.14814690887697426  1.0000
  N   N13       1.0  0.08631252664109472  0.10321852961439497  0.5842517224071174  1.0000
  N   N14       1.0  0.9137044872840792  0.8967658186859992  0.41575962891135276  1.0000
  N   N15       1.0  0.21666359921142236  0.1442006217893379  0.8610311536571231  1.0000
  N   N16       1.0  0.7833516340397182  0.855817655671821  0.13897844908590426  1.0000
