data_image0
_chemical_formula_structural       Mn2H28C28S4N8O12
_chemical_formula_sum              "Mn2 H28 C28 S4 N8 O12"
_cell_length_a       9.84094584853054
_cell_length_b       9.617862444357515
_cell_length_c       11.171800063464563
_cell_angle_alpha    106.6791521943357
_cell_angle_beta     101.11180173647341
_cell_angle_gamma    109.35675796982991

_space_group_name_H-M_alt    "P 1"
_space_group_IT_number       1

loop_
  _space_group_symop_operation_xyz
  'x, y, z'

loop_
  _atom_site_type_symbol
  _atom_site_label
  _atom_site_symmetry_multiplicity
  _atom_site_fract_x
  _atom_site_fract_y
  _atom_site_fract_z
  _atom_site_occupancy
  Mn  Mn1       1.0  0.8005013264083728  0.8160908230302155  0.2878072943911291  1.0000
  Mn  Mn2       1.0  0.19943078728440605  0.18385378627265678  0.7122284159074539  1.0000
  H   H1        1.0  0.054719980861506194  0.8487698282302459  0.4502345853983271  1.0000
  H   H2        1.0  0.9452546718426119  0.15120592109187206  0.5497348649600511  1.0000
  H   H3        1.0  0.12335723038909668  0.9169842675412312  0.35376685728676444  1.0000
  H   H4        1.0  0.8767142800082297  0.08302951398069071  0.6462610440645733  1.0000
  H   H5        1.0  0.9025102249151756  0.9794196495328013  0.14196933770694647  1.0000
  H   H6        1.0  0.09751375387987339  0.020569248380262216  0.8581205653120064  1.0000
  H   H7        1.0  0.9738780983859456  0.8515401830546309  0.11618915273701443  1.0000
  H   H8        1.0  0.026120023264262198  0.14846166520301549  0.8838203594696736  1.0000
  H   H9        1.0  0.9751332775221185  0.5987688104342013  0.23319866552007795  1.0000
  H   H10       1.0  0.02482131629213315  0.40124392340226217  0.7668216709084065  1.0000
  H   H11       1.0  0.9418555525840873  0.3994858271135016  0.16802734499496097  1.0000
  H   H12       1.0  0.05809814409831663  0.6004885122236275  0.8319846714428181  1.0000
  H   H13       1.0  0.6330228837886266  0.04428294673129329  0.3602381046167977  1.0000
  H   H14       1.0  0.3669689158038096  0.9557375219865705  0.6397283530471113  1.0000
  H   H15       1.0  0.44443464507901337  0.0316105455725548  0.3529543649764548  1.0000
  H   H16       1.0  0.5555586376205497  0.9683944337778101  0.6470374734164608  1.0000
  H   H17       1.0  0.3595920774521275  0.2342889132717261  0.04632133343522329  1.0000
  H   H18       1.0  0.6403809223082318  0.7657234407272355  0.9536403564901761  1.0000
  H   H19       1.0  0.2173170065985488  0.4180287487895455  0.09719926607505158  1.0000
  H   H20       1.0  0.7826772014726513  0.5819632369092957  0.9028481679480008  1.0000
  H   H21       1.0  0.6939892261600348  0.5305733777486951  0.38647151543160163  1.0000
  H   H22       1.0  0.3060387888286442  0.4694087353260911  0.6135085319822907  1.0000
  H   H23       1.0  0.5002792664419431  0.7389982106992575  0.6626168438725699  1.0000
  H   H24       1.0  0.49970969982928176  0.2609850478235387  0.3373745413566028  1.0000
  H   H25       1.0  0.1428733263832598  0.43925335763183426  0.3461460663031772  1.0000
  H   H26       1.0  0.8571276400605824  0.5607480559312991  0.6538421829282016  1.0000
  H   H27       1.0  0.7742829496038226  0.2841709560218034  0.4989122452173547  1.0000
  H   H28       1.0  0.22572130159960577  0.7158255560301541  0.501076837164362  1.0000
  C   C1        1.0  0.5392748156436015  0.47927595721959193  0.13863355070915873  1.0000
  C   C2        1.0  0.460731425512023  0.5207275755770977  0.8613613697287761  1.0000
  C   C3        1.0  0.4785332838931069  0.31642181736676633  0.08234601589171579  1.0000
  C   C4        1.0  0.5214744636778406  0.683565155762409  0.9177026684441856  1.0000
  C   C5        1.0  0.7558528750219508  0.44751460647996305  0.14445243509829442  1.0000
  C   C6        1.0  0.244140111177316  0.5524930052814553  0.8555338365797737  1.0000
  C   C7        1.0  0.4604299765623665  0.5812486763850089  0.17179196384815038  1.0000
  C   C8        1.0  0.5395521601657691  0.4187395938406056  0.8282286310058354  1.0000
  C   C9        1.0  0.3076125924556193  0.5366697234034347  0.14848102697452242  1.0000
  C   C10       1.0  0.6923813262617458  0.46333524035549806  0.851543159607914  1.0000
  C   C11       1.0  0.4650803171937454  0.823056888771987  0.26857269209810397  1.0000
  C   C12       1.0  0.5349125076477678  0.17693925592767815  0.7313968600425866  1.0000
  C   C13       1.0  0.7243072227416505  0.8127391264219455  0.5483479221704072  1.0000
  C   C14       1.0  0.2757038477090958  0.18729193823494938  0.4516536489556202  1.0000
  C   C15       1.0  0.6083937716877088  0.6522302259687719  0.5250673636310167  1.0000
  C   C16       1.0  0.3916305335258982  0.3477544941092319  0.4749407240921073  1.0000
  C   C17       1.0  0.6081134094215841  0.515808019514381  0.43552994980604615  1.0000
  C   C18       1.0  0.39191634021928223  0.48419597788352325  0.5644789422447616  1.0000
  C   C19       1.0  0.4992916832855059  0.6348255152669039  0.5901054226555473  1.0000
  C   C20       1.0  0.5007562014972746  0.36517692919827727  0.40990809661487754  1.0000
  C   C21       1.0  0.9036924258749722  0.17868846471279198  0.3154817771287384  1.0000
  C   C22       1.0  0.09631730202726632  0.8213296180714167  0.6845114534881347  1.0000
  C   C23       1.0  0.9520783576704375  0.3443544474413542  0.4106285062811779  1.0000
  C   C24       1.0  0.04795157909352815  0.6556440634267844  0.5893654084454313  1.0000
  C   C25       1.0  0.07957763616892782  0.4670322045139486  0.41272125047075287  1.0000
  C   C26       1.0  0.9204495962735135  0.5329699691615984  0.5872724522186061  1.0000
  C   C27       1.0  0.8731161217975796  0.37834011497857734  0.49877907885663564  1.0000
  C   C28       1.0  0.12690892040139098  0.6216668779125671  0.5012157036293274  1.0000
  S   S1        1.0  0.620543396999551  0.2505058856274474  0.0737691704349288  1.0000
  S   S2        1.0  0.37946584494328317  0.7494979259933957  0.9262817974046699  1.0000
  S   S3        1.0  0.2703567454922293  0.7009230157081987  0.21258414410305443  1.0000
  S   S4        1.0  0.7296272460801703  0.2990798006923399  0.7874031729801061  1.0000
  N   N1        1.0  0.6965682915498589  0.5531609785606123  0.17357879125124503  1.0000
  N   N2        1.0  0.30340825962137075  0.4468322388548884  0.8263761432508971  1.0000
  N   N3        1.0  0.5495287768405888  0.7435728907378304  0.23912247546657273  1.0000
  N   N4        1.0  0.4504581468576347  0.256403635452024  0.7609196177028538  1.0000
  N   N5        1.0  0.9062180625475875  0.4865773633024376  0.16385116174195247  1.0000
  N   N6        1.0  0.09378690108712105  0.5134537205297319  0.8361514065736912  1.0000
  N   N7        1.0  0.51859397122724  0.9805698999915508  0.33378451709653933  1.0000
  N   N8        1.0  0.48139614626457217  0.0194415440766278  0.6661970872331153  1.0000
  O   O1        1.0  0.033213094666521684  0.8265403898207635  0.35509431372810235  1.0000
  O   O2        1.0  0.966802334174254  0.17347745208051177  0.6448718089452612  1.0000
  O   O3        1.0  0.8781718401085141  0.8604987212279978  0.1160912141877616  1.0000
  O   O4        1.0  0.12180485816216449  0.1394786979085723  0.8838655326537079  1.0000
  O   O5        1.0  0.8146630909434123  0.8192764074927154  0.4799464616375316  1.0000
  O   O6        1.0  0.1853119764804205  0.18074120064512295  0.5200358136304075  1.0000
  O   O7        1.0  0.729402809822858  0.936152035895759  0.6355893536065763  1.0000
  O   O8        1.0  0.2706026518146984  0.0638599209405868  0.36440695788061117  1.0000
  O   O9        1.0  0.8375946665084301  0.06572789367714899  0.3524548619395915  1.0000
  O   O10       1.0  0.1624153310732695  0.9342643174736623  0.6475185158774722  1.0000
  O   O11       1.0  0.9306837066297005  0.1594450596760879  0.20687409036086277  1.0000
  O   O12       1.0  0.06932497934262477  0.8405793910345167  0.7931109499621627  1.0000
