data_image0
_chemical_formula_structural       Ho2H30C36O18
_chemical_formula_sum              "Ho2 H30 C36 O18"
_cell_length_a       7.843883401719556
_cell_length_b       9.475524617523762
_cell_length_c       12.552725257067717
_cell_angle_alpha    75.45797006179828
_cell_angle_beta     74.53136892538197
_cell_angle_gamma    75.68046761865376

_space_group_name_H-M_alt    "P 1"
_space_group_IT_number       1

loop_
  _space_group_symop_operation_xyz
  'x, y, z'

loop_
  _atom_site_type_symbol
  _atom_site_label
  _atom_site_symmetry_multiplicity
  _atom_site_fract_x
  _atom_site_fract_y
  _atom_site_fract_z
  _atom_site_occupancy
  Ho  Ho1       1.0  0.23295942335098382  0.2057981610646279  0.0003439191484843869  1.0000
  Ho  Ho2       1.0  0.767042510071356  0.7942011261305238  0.9996581066131609  1.0000
  H   H1        1.0  0.2078657608486978  0.5089869503364567  0.02594809524276087  1.0000
  H   H2        1.0  0.792133263724324  0.4910134408334413  0.9740542083143354  1.0000
  H   H3        1.0  0.033014627852843155  0.46302974156975535  0.11210189062099123  1.0000
  H   H4        1.0  0.9669849267038232  0.5369684271425683  0.8879007526064342  1.0000
  H   H5        1.0  0.5479071098433436  0.33804789151638903  0.002439454693316616  1.0000
  H   H6        1.0  0.4520916497378451  0.6619536108822999  0.9975626790286255  1.0000
  H   H7        1.0  0.45587934496026616  0.4362028241564316  0.9049850302803436  1.0000
  H   H8        1.0  0.5441159788183327  0.563796444903616  0.09501811455783128  1.0000
  H   H9        1.0  0.10304997096120172  0.9050668177746384  0.08991990835018977  1.0000
  H   H10       1.0  0.8969429881336949  0.09493135171047835  0.9100870345169058  1.0000
  H   H11       1.0  0.3166955641833979  0.8724673699108293  0.060834803488432995  1.0000
  H   H12       1.0  0.6832979325012475  0.12753415106858054  0.9391737914802292  1.0000
  H   H13       1.0  0.4800881747122716  0.42586789882903275  0.26176745209698293  1.0000
  H   H14       1.0  0.5199116098964255  0.5741346758827034  0.7382271317074185  1.0000
  H   H15       1.0  0.3638173617178921  0.37404680467545137  0.4679825114366665  1.0000
  H   H16       1.0  0.6361911534993754  0.6259580273369493  0.5320117562718423  1.0000
  H   H17       1.0  0.3948171511314272  0.22536387013742137  0.657937396460305  1.0000
  H   H18       1.0  0.6051897943776083  0.7746365286136834  0.34206117878260045  1.0000
  H   H19       1.0  0.8051783562391464  0.831103489190724  0.6880385414216975  1.0000
  H   H20       1.0  0.19482118768104337  0.16889466534068723  0.3119617163833652  1.0000
  H   H21       1.0  0.9192839584132316  0.8783658167227625  0.4799837180277678  1.0000
  H   H22       1.0  0.08071664598937642  0.12163345739142525  0.5200169412676132  1.0000
  H   H23       1.0  0.9078834433511888  0.042498663373223194  0.29104645773537646  1.0000
  H   H24       1.0  0.09211821444285555  0.9575017208697999  0.7089530127687524  1.0000
  H   H25       1.0  0.8468601489264955  0.2169275532419732  0.7336274395530181  1.0000
  H   H26       1.0  0.15313966707650206  0.7830694995145958  0.2663745783687759  1.0000
  H   H27       1.0  0.7698307809012876  0.30016496361843525  0.5459285789442418  1.0000
  H   H28       1.0  0.23016215743577823  0.6998387420027681  0.45407331522781647  1.0000
  H   H29       1.0  0.18801155920295543  0.5407599006444668  0.6464176791475608  1.0000
  H   H30       1.0  0.8119840300825844  0.45924382168472266  0.3535853576754563  1.0000
  C   C1        1.0  0.7837949005260397  0.27744617354547774  0.14086524818300467  1.0000
  C   C2        1.0  0.2162041098650107  0.7225541987165299  0.8591338748109506  1.0000
  C   C3        1.0  0.7046597489704142  0.23781086148579073  0.2641408169890838  1.0000
  C   C4        1.0  0.29533845529357455  0.7621872657837299  0.7358556889273588  1.0000
  C   C5        1.0  0.5474331952414602  0.3304770298698115  0.314501823188138  1.0000
  C   C6        1.0  0.45256447549338225  0.6695233151303126  0.6854935479171971  1.0000
  C   C7        1.0  0.48222655335943193  0.30158556125203956  0.4291728400371397  1.0000
  C   C8        1.0  0.5177780061929481  0.6984137095622883  0.570824762389968  1.0000
  C   C9        1.0  0.5670158344639591  0.17704156224828438  0.49944076718023206  1.0000
  C   C10       1.0  0.4329873996141772  0.8229577002120505  0.5005562639214034  1.0000
  C   C11       1.0  0.5080287028818943  0.14915967296424523  0.6182349626789049  1.0000
  C   C12       1.0  0.49197108881779167  0.8508429112014396  0.381761211407067  1.0000
  C   C13       1.0  0.5943907164959229  0.027848549353933494  0.685077484846289  1.0000
  C   C14       1.0  0.4056146314560607  0.9721529428180206  0.31491875895440546  1.0000
  C   C15       1.0  0.5370244307914475  0.004410997216162099  0.8109773645604861  1.0000
  C   C16       1.0  0.46297987086008874  0.9955893942808981  0.1890216583130383  1.0000
  C   C17       1.0  0.7420100161704256  0.927770326020081  0.6340134880364943  1.0000
  C   C18       1.0  0.2579921680617688  0.07222783103838988  0.3659855269971715  1.0000
  C   C19       1.0  0.8042485678802225  0.9538434402835914  0.51883492958072  1.0000
  C   C20       1.0  0.19575335490564078  0.046155832730640584  0.48116471075856987  1.0000
  C   C21       1.0  0.7212810273821475  0.07940782733972898  0.4484531018656313  1.0000
  C   C22       1.0  0.27871692201136966  0.9205858608415765  0.5515458974883317  1.0000
  C   C23       1.0  0.7883114503652281  0.11389351807653006  0.33041761954881826  1.0000
  C   C24       1.0  0.2116899388914959  0.886107972668306  0.6695808859793643  1.0000
  C   C25       1.0  0.08212184217624241  0.317183103856216  0.8090574359803925  1.0000
  C   C26       1.0  0.9178808831911955  0.6828184094235323  0.19094402629563229  1.0000
  C   C27       1.0  0.024745742120522607  0.37370617298792996  0.6999793261516559  1.0000
  C   C28       1.0  0.9752546043812417  0.6262942218089903  0.3000227535901415  1.0000
  C   C29       1.0  0.9048787384672677  0.30561491960697396  0.67193869890216  1.0000
  C   C30       1.0  0.09512108108121708  0.6943821378765662  0.32806411416041925  1.0000
  C   C31       1.0  0.8629298028992665  0.35124868594934355  0.5674308296196457  1.0000
  C   C32       1.0  0.1370671077999077  0.6487494755089428  0.4325722612383914  1.0000
  C   C33       1.0  0.9410542354847636  0.46437170149415147  0.48538037898644154  1.0000
  C   C34       1.0  0.05894504698909487  0.5356275689930143  0.5146205041242524  1.0000
  C   C35       1.0  0.09695084388859951  0.48879697503488  0.6234808600468611  1.0000
  C   C36       1.0  0.9030484492217353  0.511202309633205  0.3765224084861886  1.0000
  O   O1        1.0  0.15826119850827786  0.42201892962443555  0.07771109080907479  1.0000
  O   O2        1.0  0.8417394129853122  0.577980353943701  0.9222911587678836  1.0000
  O   O3        1.0  0.4921080243034125  0.3317770407218674  0.9417179640618586  1.0000
  O   O4        1.0  0.507888359957605  0.668223347920957  0.05828558226663462  1.0000
  O   O5        1.0  0.21097191331175225  0.9529845828625407  0.061500704279275564  1.0000
  O   O6        1.0  0.789019186779761  0.0470157959991724  0.9385045324512262  1.0000
  O   O7        1.0  0.946473860270203  0.21800970796540034  0.10468065079447082  1.0000
  O   O8        1.0  0.053523556109297515  0.7819917624444271  0.8953169358980587  1.0000
  O   O9        1.0  0.6864968179832758  0.3725958644949257  0.07783682461040797  1.0000
  O   O10       1.0  0.31350218886228026  0.6274045030401039  0.9221615032427621  1.0000
  O   O11       1.0  0.601317220760251  0.8801020695973418  0.8679564612825671  1.0000
  O   O12       1.0  0.3986973842384601  0.1198994526907242  0.13203901095177167  1.0000
  O   O13       1.0  0.4323601854223043  0.10962723591524076  0.855073753067721  1.0000
  O   O14       1.0  0.5676361912326088  0.8903675787757163  0.14492848082952756  1.0000
  O   O15       1.0  0.15982619117486513  0.39667984136762147  0.8434973903512742  1.0000
  O   O16       1.0  0.8401775840385144  0.6033227773139913  0.15650208799271326  1.0000
  O   O17       1.0  0.060288855452668606  0.189046287701636  0.8672193972210067  1.0000
  O   O18       1.0  0.9397136049229431  0.8109563368068959  0.1327818952198569  1.0000
