data_image0
_chemical_formula_structural       Al6H36C74O28
_chemical_formula_sum              "Al6 H36 C74 O28"
_cell_length_a       12.118073793602603
_cell_length_b       12.200766021706437
_cell_length_c       27.001900068033006
_cell_angle_alpha    82.46772858750833
_cell_angle_beta     82.89111673793502
_cell_angle_gamma    64.02474220293021

_space_group_name_H-M_alt    "P 1"
_space_group_IT_number       1

loop_
  _space_group_symop_operation_xyz
  'x, y, z'

loop_
  _atom_site_type_symbol
  _atom_site_label
  _atom_site_symmetry_multiplicity
  _atom_site_fract_x
  _atom_site_fract_y
  _atom_site_fract_z
  _atom_site_occupancy
  Al  Al1       1.0  0.399962082623766  0.4051173892844346  0.5109954204459085  1.0000
  Al  Al2       1.0  0.6582153149887305  0.424076965461026  0.4952748458437739  1.0000
  Al  Al3       1.0  0.4252203565143376  0.658109089732477  0.4962575452368228  1.0000
  Al  Al4       1.0  0.9355234492042042  0.9333836309326384  0.9770269097044846  1.0000
  Al  Al5       1.0  0.9173788602275151  0.6763470253791295  0.9945653358870457  1.0000
  Al  Al6       1.0  0.6811630735825034  0.9073785590313503  0.9932444943366149  1.0000
  H   H1        1.0  0.6035118993530303  0.3469145273851523  0.1935005529438527  1.0000
  H   H2        1.0  0.7203233896906553  0.8682745968461273  0.660224904669043  1.0000
  H   H3        1.0  0.5576899175644742  0.9256364193449894  0.6699131134690859  1.0000
  H   H4        1.0  0.69114687136733  0.4680938044912039  0.7940076762929706  1.0000
  H   H5        1.0  0.8587662201681068  0.49099015910055493  0.7148268755258725  1.0000
  H   H6        1.0  0.9281972182459625  0.7062970795183146  0.7197810589742416  1.0000
  H   H7        1.0  0.8509493690439315  0.7905025910874737  0.7725841011313574  1.0000
  H   H8        1.0  0.9421071319916692  0.6296229487939369  0.7809704813766911  1.0000
  H   H9        1.0  0.0797102698603428  0.8987300611039468  0.2694450021732848  1.0000
  H   H10       1.0  0.4728666094347958  0.527915322232424  0.23115895202620607  1.0000
  H   H11       1.0  0.4428098139329964  0.6243036341313368  0.2799029489945681  1.0000
  H   H12       1.0  0.8051694211686566  0.2548240547508627  0.25482010087811346  1.0000
  H   H13       1.0  0.4298728851956212  0.48410917979727225  0.2934462751290212  1.0000
  H   H14       1.0  0.2751555676114492  0.37514657109773697  0.2489776915291557  1.0000
  H   H15       1.0  0.177659142682991  0.4355236081107704  0.19855787660497273  1.0000
  H   H16       1.0  0.3299326647293838  0.4229014566454338  0.18962905987194023  1.0000
  H   H17       1.0  0.977808158228541  0.537149157049889  0.2812204092846001  1.0000
  H   H18       1.0  0.08652959926915575  0.4883039344727606  0.32759529146071736  1.0000
  H   H19       1.0  0.9547963952302894  0.6304928172113478  0.3305041330015541  1.0000
  H   H20       1.0  0.9419500287121991  0.7979863961242084  0.22892079809212626  1.0000
  H   H21       1.0  0.4714120993032863  0.022872264762248996  0.2734530784560292  1.0000
  H   H22       1.0  0.4465105482585372  0.09385494384856227  0.21122094442861788  1.0000
  H   H23       1.0  0.4809506971563949  0.8292472202628287  0.7763761934553699  1.0000
  H   H24       1.0  0.5711675509359182  0.947936262661294  0.22196210429284244  1.0000
  H   H25       1.0  0.7727468382719068  0.8504078405325753  0.2884121291504513  1.0000
  H   H26       1.0  0.8347252241424529  0.9118069993102863  0.32809633730497006  1.0000
  H   H27       1.0  0.6792890831559647  0.9333499463710663  0.33917258339955225  1.0000
  H   H28       1.0  0.4604615386708986  0.2861090402191237  0.2745538458902388  1.0000
  H   H29       1.0  0.4917522015675003  0.6220770552156125  0.7353742667226371  1.0000
  H   H30       1.0  0.3402340362725839  0.8403100867475287  0.21084597730752108  1.0000
  H   H31       1.0  0.3635179946376681  0.7483220283564903  0.16096837797416444  1.0000
  H   H32       1.0  0.23143186594692391  0.8902604823594868  0.1645651646248609  1.0000
  H   H33       1.0  0.885551046726924  0.020928548555737288  0.2192379952672496  1.0000
  H   H34       1.0  0.6415086768772296  0.9509234417965048  0.7132850251366348  1.0000
  H   H35       1.0  0.3093002099281961  0.2816447420351621  0.4935923573202529  1.0000
  H   H36       1.0  0.06394551448756398  0.021033070890943896  0.9920706528721155  1.0000
  C   C1        1.0  0.6176286054663152  0.2798174158951879  0.436208907797365  1.0000
  C   C2        1.0  0.14660331707824534  0.6904618558014018  0.19575485601096426  1.0000
  C   C3        1.0  0.09462550261143592  0.6305338810094125  0.27323212325330093  1.0000
  C   C4        1.0  0.6134738866509366  0.6194662774604253  0.4166437859911269  1.0000
  C   C5        1.0  0.17164329254717373  0.6870076949563638  0.29564659611737193  1.0000
  C   C6        1.0  0.20378057302912833  0.5707730971461372  0.2327809237950405  1.0000
  C   C7        1.0  0.28107967480916335  0.6266949453581816  0.2541194691290727  1.0000
  C   C8        1.0  0.1283766347736305  0.6942423365016308  0.1448877889945877  1.0000
  C   C9        1.0  0.19363512509495012  0.6765667317051224  0.34651047783138  1.0000
  C   C10       1.0  0.7118114626701413  0.04528482436207779  0.2760709133839184  1.0000
  C   C11       1.0  0.5984459742263439  0.09799362095431967  0.2428007846534328  1.0000
  C   C12       1.0  0.6680259432954473  0.6673660352451731  0.2681474934966062  1.0000
  C   C13       1.0  0.696429407836952  0.09024746041978908  0.1032528634069223  1.0000
  C   C14       1.0  0.6457881927390899  0.22678676074146137  0.3892778851081501  1.0000
  C   C15       1.0  0.7911082507718347  0.08024414245534219  0.2320776607134789  1.0000
  C   C16       1.0  0.2767547118429975  0.6213371303871467  0.4366937116155114  1.0000
  C   C17       1.0  0.6793368648131803  0.1314447683693629  0.19778658753106973  1.0000
  C   C18       1.0  0.7466333703733382  0.20971443885508015  0.25079078016501194  1.0000
  C   C19       1.0  0.6665625377869586  0.17712872395121337  0.2957690618569088  1.0000
  C   C20       1.0  0.6341557015835873  0.26169693069837047  0.21788272136866738  1.0000
  C   C21       1.0  0.5548351879041178  0.22743592817011657  0.26158707747762827  1.0000
  C   C22       1.0  0.6868697342212754  0.11003862897378977  0.1470726734164529  1.0000
  C   C23       1.0  0.6554483760885933  0.6570476438333085  0.31838381057189474  1.0000
  C   C24       1.0  0.6573918396755474  0.20173023102897494  0.3461023681775471  1.0000
  C   C25       1.0  0.6571359763017313  0.7676558673407424  0.7190758328824957  1.0000
  C   C26       1.0  0.564666414900941  0.7537669385752253  0.7624774682167441  1.0000
  C   C27       1.0  0.6998441762337393  0.6844891431086707  0.8895299639470976  1.0000
  C   C28       1.0  0.6119817344653171  0.28256944884988394  0.576970087669977  1.0000
  C   C29       1.0  0.6476751708084054  0.6373150927641474  0.6006003161511088  1.0000
  C   C30       1.0  0.7692639454210165  0.6807736426745378  0.7505287529242111  1.0000
  C   C31       1.0  0.6746187602087373  0.6685937604804976  0.795647286284442  1.0000
  C   C32       1.0  0.774541036843864  0.5658796707839001  0.7287683191960568  1.0000
  C   C33       1.0  0.6645727954317097  0.6506979324560047  0.6956323012155536  1.0000
  C   C34       1.0  0.6415509195979183  0.6460414781758741  0.36428589553936763  1.0000
  C   C35       1.0  0.6816872745476701  0.5531285002632343  0.7719711184149742  1.0000
  C   C36       1.0  0.5708407817423194  0.6390316228491171  0.7404952163959918  1.0000
  C   C37       1.0  0.6860040588529374  0.6765038479057848  0.8462662054313981  1.0000
  C   C38       1.0  0.6558954638378792  0.6435027144237253  0.6447186265294107  1.0000
  C   C39       1.0  0.1140730579020258  0.689283759948772  0.8630961979681899  1.0000
  C   C40       1.0  0.6243005711003562  0.6134066296176072  0.5537076008237847  1.0000
  C   C41       1.0  0.14566520964999796  0.6746605386721072  0.8185886642495744  1.0000
  C   C42       1.0  0.17527760247185145  0.6614929083118779  0.7695547120079098  1.0000
  C   C43       1.0  0.19626103264809563  0.65252355763198  0.724004484388601  1.0000
  C   C44       1.0  0.21841966191109213  0.6431828557806438  0.6745151787248957  1.0000
  C   C45       1.0  0.1149330255192994  0.8053134622523572  0.258555534797388  1.0000
  C   C46       1.0  0.2396734559158773  0.6345905256079404  0.6292099612388569  1.0000
  C   C47       1.0  0.6945714199898345  0.10134735456930598  0.8615861661042458  1.0000
  C   C48       1.0  0.6856486030313746  0.12674336222353588  0.8163451067113242  1.0000
  C   C49       1.0  0.6764583467631625  0.15276773448390193  0.7668538574774999  1.0000
  C   C50       1.0  0.6683823580133678  0.17493249866488006  0.7211830933092145  1.0000
  C   C51       1.0  0.656386320938921  0.20204942559771402  0.671877781902502  1.0000
  C   C52       1.0  0.28558196107276507  0.6128428430025109  0.5780120109378329  1.0000
  C   C53       1.0  0.6430143422355741  0.22955666081247725  0.6269698023460533  1.0000
  C   C54       1.0  0.061635984533815295  0.7191505634212162  0.053169151001206685  1.0000
  C   C55       1.0  0.7208596354056738  0.7204585858946755  0.07287478971087322  1.0000
  C   C56       1.0  0.22359234846251755  0.7468253159762952  0.2181400087395602  1.0000
  C   C57       1.0  0.7259397325279976  0.04666243574436629  0.05426920336402931  1.0000
  C   C58       1.0  0.058107524361346974  0.7225478989077627  0.912333890996997  1.0000
  C   C59       1.0  0.7267892485785764  0.7090635522607015  0.9356557657448474  1.0000
  C   C60       1.0  0.7197670705144787  0.05149500056750609  0.9123384319180017  1.0000
  C   C61       1.0  0.6962661438284953  0.6947247516304174  0.1256434876931749  1.0000
  C   C62       1.0  0.6862659739843552  0.6845149201473998  0.1716310329840738  1.0000
  C   C63       1.0  0.6763812629895652  0.6749783244981911  0.22188326128751612  1.0000
  C   C64       1.0  0.29349647389538824  0.8096662648978705  0.1870695743920834  1.0000
  C   C65       1.0  0.6436037187549813  0.8841849822960198  0.6890534516070586  1.0000
  C   C66       1.0  0.8781291919968127  0.7032897430173575  0.7564299988841794  1.0000
  C   C67       1.0  0.10929424714578337  0.6978847057699794  0.10123454900523399  1.0000
  C   C68       1.0  0.41353563171286833  0.5621178262902047  0.2651834914179787  1.0000
  C   C69       1.0  0.24929858270508742  0.4443889811589015  0.21682589028355886  1.0000
  C   C70       1.0  0.024769208665311737  0.5682198866106488  0.30469354445710206  1.0000
  C   C71       1.0  0.5176278482609575  0.037306121615067384  0.2371593410283452  1.0000
  C   C72       1.0  0.7519134166991607  0.9290723217336989  0.3096335497568816  1.0000
  C   C73       1.0  0.22151022424385058  0.6579823001786732  0.3897569308202407  1.0000
  C   C74       1.0  0.03864284088755462  0.7496110918704487  0.2371536905091816  1.0000
  O   O1        1.0  0.30543771073280374  0.5122630439140891  0.4548523099406835  1.0000
  O   O2        1.0  0.6441217683408741  0.8217885029418565  0.05276704173869012  1.0000
  O   O3        1.0  0.6420104535004184  0.030583646126672182  0.03495987439954721  1.0000
  O   O4        1.0  0.5145970378281319  0.2987832578801387  0.4594659036439878  1.0000
  O   O5        1.0  0.8197960496414252  0.03850740762485569  0.9271100174256545  1.0000
  O   O6        1.0  0.027714551839871336  0.8314776216503287  0.9210890629376536  1.0000
  O   O7        1.0  0.04013764289754826  0.6393831305188299  0.9422033641357925  1.0000
  O   O8        1.0  0.8302083397837946  0.635262446900107  0.9532910895718911  1.0000
  O   O9        1.0  0.6489870898646828  0.8063557975226986  0.9555779266606235  1.0000
  O   O10       1.0  0.6390651529483619  0.019687505838199094  0.9373947141721073  1.0000
  O   O11       1.0  0.8435875830359193  0.8376751841214799  0.9886484214346325  1.0000
  O   O12       1.0  0.6990339411222808  0.5114357538956824  0.5361957672035089  1.0000
  O   O13       1.0  0.6994044310312331  0.3088506880553509  0.449905851748909  1.0000
  O   O14       1.0  0.6907807054774296  0.5207358071251774  0.43796061169791045  1.0000
  O   O15       1.0  0.5104806273455581  0.6940569441967737  0.43602101878413885  1.0000
  O   O16       1.0  0.29747682288226684  0.7018866171134873  0.4559114952903514  1.0000
  O   O17       1.0  0.2964694078655015  0.5153104400212953  0.5624638194941552  1.0000
  O   O18       1.0  0.5043632699510782  0.30869726055087904  0.5663275156817775  1.0000
  O   O19       1.0  0.6957134142088534  0.3028028603177474  0.5483878319116967  1.0000
  O   O20       1.0  0.527165282125033  0.6918069800955278  0.5329541479570777  1.0000
  O   O21       1.0  0.3164953660963263  0.6943093112869434  0.5533165206651347  1.0000
  O   O22       1.0  0.4958946638443109  0.49667764238736106  0.5006091852136335  1.0000
  O   O23       1.0  0.8331409375514055  0.022914236549183883  0.0344920833134736  1.0000
  O   O24       1.0  0.047287645682772175  0.8177801627357933  0.027097588294381598  1.0000
  O   O25       1.0  0.031679806430460755  0.6368838421549083  0.041141658781107496  1.0000
  O   O26       1.0  0.8197062827816454  0.6438340194030302  0.05186380292914089  1.0000
  O   O27       1.0  0.3120620923990599  0.3217368104614308  0.5216831432283797  1.0000
  O   O28       1.0  0.017802013444096994  0.0221901762089729  0.9651125369035539  1.0000
