data_image0
_chemical_formula_structural       CoH8C8S2N8
_chemical_formula_sum              "Co1 H8 C8 S2 N8"
_cell_length_a       5.524436487439803
_cell_length_b       6.322605113761816
_cell_length_c       8.58705502733305
_cell_angle_alpha    101.74659376234092
_cell_angle_beta     100.89912881174594
_cell_angle_gamma    93.33134333038906

_space_group_name_H-M_alt    "P 1"
_space_group_IT_number       1

loop_
  _space_group_symop_operation_xyz
  'x, y, z'

loop_
  _atom_site_type_symbol
  _atom_site_label
  _atom_site_symmetry_multiplicity
  _atom_site_fract_x
  _atom_site_fract_y
  _atom_site_fract_z
  _atom_site_occupancy
  Co  Co1       1.0  0.9999929029782634  2.2503096702020656e-06  4.086249312284312e-06  1.0000
  H   H1        1.0  0.564776467773271  0.9794369961814695  0.6867771083656392  1.0000
  H   H2        1.0  0.4352219846759481  0.0205680997093651  0.3132219343879115  1.0000
  H   H3        1.0  0.2886370997659569  0.3014566555950963  0.8133341247952117  1.0000
  H   H4        1.0  0.7113630022988103  0.6985467833817085  0.1866671884738977  1.0000
  H   H5        1.0  0.07857830178701158  0.30374983353297585  0.3890783079247626  1.0000
  H   H6        1.0  0.9214256398144017  0.6962406153691916  0.6109144764740081  1.0000
  H   H7        1.0  0.27214200269978767  0.46835901088903137  0.5676918905166559  1.0000
  H   H8        1.0  0.7278639856540041  0.5316330446498229  0.43230138453981937  1.0000
  C   C1        1.0  0.7304044725309637  0.0788895640327354  0.6854983833950642  1.0000
  C   C2        1.0  0.26959519814170824  0.9211106524357859  0.3144988891255309  1.0000
  C   C3        1.0  0.10060995084777602  0.23761404634351638  0.7519402644433625  1.0000
  C   C4        1.0  0.8993901306638249  0.7623894172587456  0.248057556461923  1.0000
  C   C5        1.0  0.0799680157683369  0.4065843254382315  0.5087360673336363  1.0000
  C   C6        1.0  0.9200369591902203  0.5933995958492916  0.49125816500364994  1.0000
  C   C7        1.0  0.5819819362862404  0.24268033431300043  0.10450008476415458  1.0000
  C   C8        1.0  0.4180325198581086  0.7573196810461269  0.8955082324495081  1.0000
  S   S1        1.0  0.3347884839517121  0.3519594975608413  0.14381865920478276  1.0000
  S   S2        1.0  0.6652077854274553  0.6480569232821127  0.856192347055945  1.0000
  N   N1        1.0  0.986180039918395  0.2758323689955589  0.6092479541016189  1.0000
  N   N2        1.0  0.013816755472973329  0.7241597547772687  0.39074656687060383  1.0000
  N   N3        1.0  0.7508657715701261  0.17553756793267178  0.5645808850444424  1.0000
  N   N4        1.0  0.24912917563727893  0.8244545809788235  0.4354122553411557  1.0000
  N   N5        1.0  0.9422012573947143  0.1121583429980078  0.8033328218287038  1.0000
  N   N6        1.0  0.05779067195391009  0.8878532902556202  0.19666994419661418  1.0000
  N   N7        1.0  0.757399484773913  0.1576059185939016  0.07360081918889697  1.0000
  N   N8        1.0  0.24258674941179234  0.8424041008409873  0.926406843854366  1.0000
