data_image0
_chemical_formula_structural       Al4H8C36Br4N4O28
_chemical_formula_sum              "Al4 H8 C36 Br4 N4 O28"
_cell_length_a       6.640103106346607
_cell_length_b       16.23999785540824
_cell_length_c       18.103777506722807
_cell_angle_alpha    89.99984303715549
_cell_angle_beta     90.00091837591951
_cell_angle_gamma    87.537618098493

_space_group_name_H-M_alt    "P 1"
_space_group_IT_number       1

loop_
  _space_group_symop_operation_xyz
  'x, y, z'

loop_
  _atom_site_type_symbol
  _atom_site_label
  _atom_site_symmetry_multiplicity
  _atom_site_fract_x
  _atom_site_fract_y
  _atom_site_fract_z
  _atom_site_occupancy
  Al  Al1       1.0  0.2608606129950672  0.2843148752447179  0.24835127759097728  1.0000
  Al  Al2       1.0  0.7391491595881876  0.7156810697696799  0.7483515396846555  1.0000
  Al  Al3       1.0  0.7606858551790198  0.2811898526619245  0.2481653597047639  1.0000
  Al  Al4       1.0  0.23932099797239914  0.7188042692147645  0.7481673690576826  1.0000
  H   H1        1.0  0.7977917840566563  0.17159190879037564  0.04982245722520419  1.0000
  H   H2        1.0  0.27315141316836394  0.8044110959916181  0.9712285357183674  1.0000
  H   H3        1.0  0.20218512616614256  0.8284173216140472  0.5498300759592778  1.0000
  H   H4        1.0  0.7268689971408763  0.19558582702462954  0.47123263214553646  1.0000
  H   H5        1.0  0.505435342515412  0.38678585882748706  0.274508775628739  1.0000
  H   H6        1.0  0.49458473259699076  0.6132099097209505  0.774506328416173  1.0000
  H   H7        1.0  0.027673269781345804  0.18050051728983627  0.2782727155038174  1.0000
  H   H8        1.0  0.9723455143116128  0.8194946327223676  0.7782739658545166  1.0000
  C   C1        1.0  0.5089662840110663  0.18437337987112554  0.1493705090580661  1.0000
  C   C2        1.0  0.47273318852125357  0.8198405821357966  0.8458756521664981  1.0000
  C   C3        1.0  0.49103076965487696  0.8156304081843827  0.6493780415127332  1.0000
  C   C4        1.0  0.5272858395124658  0.1801543285704739  0.34587485608408747  1.0000
  C   C5        1.0  0.005219127929571201  0.380647372402386  0.34941888775377805  1.0000
  C   C6        1.0  0.006633246451620804  0.6233650795239427  0.6466620834007059  1.0000
  C   C7        1.0  0.9947958257384144  0.619342631949827  0.8494146726316387  1.0000
  C   C8        1.0  0.9933700839724436  0.37663189130211794  0.14666384200177157  1.0000
  C   C9        1.0  0.9945833553040444  0.42874160128949507  0.08233687498781708  1.0000
  C   C10       1.0  0.004934096956525001  0.5659214021483479  0.9128684699875649  1.0000
  C   C11       1.0  0.005415609448668592  0.5712513197400143  0.582334132989338  1.0000
  C   C12       1.0  0.9950866181596113  0.43407387545804  0.4128673349376654  1.0000
  C   C13       1.0  0.00018850439356300674  0.47263823748473743  0.027580957341214695  1.0000
  C   C14       1.0  0.0036687375275832003  0.5214114190094961  0.9673251118060975  1.0000
  C   C15       1.0  0.9998227880698707  0.5273566222329578  0.5275808612531633  1.0000
  C   C16       1.0  0.9963485739949363  0.47858369540657003  0.46732276957312263  1.0000
  C   C17       1.0  0.5224557432009931  0.1204836246231267  0.08944832263681947  1.0000
  C   C18       1.0  0.47089385440449405  0.8805765427258477  0.9082967994858604  1.0000
  C   C19       1.0  0.47752454924594195  0.8795260548159972  0.5894572835418259  1.0000
  C   C20       1.0  0.5291174605051266  0.11942129185896985  0.4082989240140762  1.0000
  C   C21       1.0  0.3362108887221851  0.9148270104423659  0.028888220082968995  1.0000
  C   C22       1.0  0.7128996285552205  0.0699500134930631  0.98359322166624  1.0000
  C   C23       1.0  0.6637863865488924  0.08517719871792198  0.5288962555287282  1.0000
  C   C24       1.0  0.2870769504616177  0.9300601606728092  0.48360256290639825  1.0000
  C   C25       1.0  0.3527189769516852  0.8616456506190671  0.9702045819078435  1.0000
  C   C26       1.0  0.6887593628586259  0.12431014070520519  0.04126820878010311  1.0000
  C   C27       1.0  0.6472937454924548  0.13835318693692497  0.47020673749757685  1.0000
  C   C28       1.0  0.31121864210535216  0.875699110732242  0.5412757403066593  1.0000
  C   C29       1.0  0.57991753383007  0.9516909951725268  0.9088432976406793  1.0000
  C   C30       1.0  0.392084863943424  0.05635979271631441  0.08181760213739857  1.0000
  C   C31       1.0  0.42007709249506325  0.0483094383128986  0.4088466725782424  1.0000
  C   C32       1.0  0.6079026647065647  0.9436486222047548  0.5818254435324732  1.0000
  C   C33       1.0  0.5817508403599163  0.0036300312044303964  0.972874748417354  1.0000
  C   C34       1.0  0.4355674271060579  0.9908873140893205  0.030259376173482597  1.0000
  C   C35       1.0  0.4182344019977222  0.9963776457092876  0.47288131179952586  1.0000
  C   C36       1.0  0.5644176168100189  0.009121302230589398  0.5302676209531683  1.0000
  Br  Br1       1.0  0.1425030298577781  0.05970383159854719  0.13260025697959318  1.0000
  Br  Br2       1.0  0.6910613609344765  0.9888205432195035  0.8190015250270193  1.0000
  Br  Br3       1.0  0.8574931466386317  0.9403012543803797  0.6326088844888815  1.0000
  Br  Br4       1.0  0.3089274286928116  0.011180253589785099  0.3190066081160978  1.0000
  N   N1        1.0  0.23446924798130206  0.8816995226663734  0.0945013677538782  1.0000
  N   N2        1.0  0.9046354274350392  0.0765831215425905  0.9429585587321794  1.0000
  N   N3        1.0  0.7655372863188034  0.1183031482499999  0.5945076547621112  1.0000
  N   N4        1.0  0.09534224170246122  0.9234265703851036  0.4429652371933912  1.0000
  O   O1        1.0  0.6962382568061685  0.20994920735889613  0.330128279980677  1.0000
  O   O2        1.0  0.3240386413589534  0.8017348953386615  0.68053796112801  1.0000
  O   O3        1.0  0.3037847058364491  0.7900426466675938  0.8301299057668601  1.0000
  O   O4        1.0  0.6759618349943325  0.19826136411005277  0.1805334941491878  1.0000
  O   O5        1.0  0.33940859182440875  0.21848260501963077  0.1646143476492625  1.0000
  O   O6        1.0  0.6410040293863163  0.8012059833724053  0.8156669585565766  1.0000
  O   O7        1.0  0.660586113434391  0.7815223806762717  0.6646190008968273  1.0000
  O   O8        1.0  0.35901508421676454  0.19878841675236458  0.3156630104103185  1.0000
  O   O9        1.0  0.1596160399812305  0.3666780801358839  0.18110748203768168  1.0000
  O   O10       1.0  0.8190674745740691  0.6469405525296497  0.831446649613298  1.0000
  O   O11       1.0  0.8403812428053357  0.6333218991069883  0.6811007525529219  1.0000
  O   O12       1.0  0.180945140641974  0.3530489181854363  0.3314502119320366  1.0000
  O   O13       1.0  0.5071481284464383  0.33338592046923304  0.2504359691892119  1.0000
  O   O14       1.0  0.4928618135633442  0.6666087839874918  0.7504350389521548  1.0000
  O   O15       1.0  0.8396511774850665  0.3662733500998741  0.31717537268343676  1.0000
  O   O16       1.0  0.17316271178473394  0.6542379680495427  0.6636252475142753  1.0000
  O   O17       1.0  0.1603696538849277  0.6337185669091172  0.8171755127811267  1.0000
  O   O18       1.0  0.8268353735863416  0.3457596022571962  0.1636239847521992  1.0000
  O   O19       1.0  0.017337730183612607  0.2319259081750005  0.2508297334918197  1.0000
  O   O20       1.0  0.9826752449086981  0.7680687699701989  0.7508333745382101  1.0000
  O   O21       1.0  0.3270675720413792  0.885362158469654  0.15378371287889075  1.0000
  O   O22       1.0  0.07239629474189263  0.8484464099510091  0.0849653976506417  1.0000
  O   O23       1.0  0.011415321031513798  0.0123123694752962  0.9366862949874388  1.0000
  O   O24       1.0  0.9517021816051  0.1459055829402658  0.9228837832736544  1.0000
  O   O25       1.0  0.6729463402590525  0.11464024372681078  0.6537906200895945  1.0000
  O   O26       1.0  0.927611286941719  0.1515562858369535  0.584969705080617  1.0000
  O   O27       1.0  0.9885605387670539  0.9876973593407284  0.4366903957821576  1.0000
  O   O28       1.0  0.04827445101321361  0.854105419826844  0.4228876190512807  1.0000
