data_image0
_chemical_formula_structural       Hg2H24C24S4N8O26
_chemical_formula_sum              "Hg2 H24 C24 S4 N8 O26"
_cell_length_a       7.500111281063606
_cell_length_b       7.500124210070567
_cell_length_c       18.063951258899387
_cell_angle_alpha    91.61520120297352
_cell_angle_beta     91.61555813355064
_cell_angle_gamma    115.35174377972295

_space_group_name_H-M_alt    "P 1"
_space_group_IT_number       1

loop_
  _space_group_symop_operation_xyz
  'x, y, z'

loop_
  _atom_site_type_symbol
  _atom_site_label
  _atom_site_symmetry_multiplicity
  _atom_site_fract_x
  _atom_site_fract_y
  _atom_site_fract_z
  _atom_site_occupancy
  Hg  Hg1       1.0  0.9596011343611364  0.04040158394388979  0.7500006138463036  1.0000
  Hg  Hg2       1.0  0.040401129653446166  0.9596011251178282  0.2500002669796118  1.0000
  H   H1        1.0  0.6274471325364033  0.18352546656396376  0.7334418445030622  1.0000
  H   H2        1.0  0.18352459679133645  0.6274445345073401  0.23344150347355003  1.0000
  H   H3        1.0  0.37254998083492535  0.8164713465138931  0.2665577717673955  1.0000
  H   H4        1.0  0.816472516579985  0.37255227857051654  0.7665581127969077  1.0000
  H   H5        1.0  0.5732860303245669  0.6704901738441577  0.799825259479654  1.0000
  H   H6        1.0  0.6704883301212378  0.5732878985789895  0.2998262074835409  1.0000
  H   H7        1.0  0.42671306089615496  0.32950813901674536  0.20017385268829455  1.0000
  H   H8        1.0  0.3295099640946049  0.42671482712755454  0.7001729561713574  1.0000
  H   H9        1.0  0.5188439600288957  0.8480886878196755  0.8079256395907706  1.0000
  H   H10       1.0  0.8480890127122437  0.5188456351295657  0.3079252488794069  1.0000
  H   H11       1.0  0.48115447660867255  0.15190811970990134  0.19207454907002836  1.0000
  H   H12       1.0  0.1519106047698457  0.48115708502870563  0.6920744871658258  1.0000
  H   H13       1.0  0.739515831966507  0.12647548775267836  0.8907451668018992  1.0000
  H   H14       1.0  0.12647355552753217  0.739519292793524  0.3907463434959411  1.0000
  H   H15       1.0  0.26048469656451795  0.8735199033132944  0.1092533706045273  1.0000
  H   H16       1.0  0.8735232871002837  0.26048634042733454  0.6092539481387504  1.0000
  H   H17       1.0  0.6815835270433865  0.23298992709069918  0.016918732161563792  1.0000
  H   H18       1.0  0.23299286595715057  0.6815879174481265  0.5169196581152207  1.0000
  H   H19       1.0  0.31841564966592967  0.7670054409623291  0.9830803392910639  1.0000
  H   H20       1.0  0.7670066660363445  0.3184177475180192  0.4830801186453328  1.0000
  H   H21       1.0  0.2793686010954133  0.35942696007428043  0.0909189628216822  1.0000
  H   H22       1.0  0.3594331524615909  0.2793709720154069  0.5909194689760255  1.0000
  H   H23       1.0  0.7206318988801498  0.6405684024304679  0.9090806810212866  1.0000
  H   H24       1.0  0.6405723557355072  0.7206362046501764  0.4090804144164863  1.0000
  C   C1        1.0  0.04366933899547117  0.19037354039004128  0.919693290388963  1.0000
  C   C2        1.0  0.1903762880520361  0.0436750980594667  0.419693314654765  1.0000
  C   C3        1.0  0.9563331102740308  0.8096232933365428  0.0803069557880391  1.0000
  C   C4        1.0  0.809623869969151  0.9563320436767809  0.5803064920494805  1.0000
  C   C5        1.0  0.8564509085821612  0.17913647225212506  0.9338965644091387  1.0000
  C   C6        1.0  0.17913722348291816  0.8564527057609794  0.4338971205591661  1.0000
  C   C7        1.0  0.14355228075908846  0.8208589219979104  0.0661025645596922  1.0000
  C   C8        1.0  0.8208603449389072  0.14355147370272897  0.566102607085625  1.0000
  C   C9        1.0  0.8243713931646681  0.2376971798808469  0.004113379500893198  1.0000
  C   C10       1.0  0.23769957596287114  0.8243737572734487  0.5041129866543841  1.0000
  C   C11       1.0  0.1756290213223009  0.7623011274317758  0.9958863050573896  1.0000
  C   C12       1.0  0.762301322130064  0.1756319449862573  0.4958857028416901  1.0000
  C   C13       1.0  0.9755929291016444  0.3015537298341898  0.05968419153622051  1.0000
  C   C14       1.0  0.3015591846710349  0.9755938408671625  0.5596842644897322  1.0000
  C   C15       1.0  0.02440890841789664  0.6984416414029013  0.9403154714788186  1.0000
  C   C16       1.0  0.6984431221767409  0.024408911036388804  0.4403149566813624  1.0000
  C   C17       1.0  0.16417196748837165  0.3116490170300494  0.0472849771981032  1.0000
  C   C18       1.0  0.3116548067532817  0.16417490525269324  0.547285017493543  1.0000
  C   C19       1.0  0.8358291727926142  0.6883478365254163  0.9527141433702865  1.0000
  C   C20       1.0  0.6883507014438165  0.8358322714128901  0.45271486589896875  1.0000
  C   C21       1.0  0.19285660925680045  0.2586787390462106  0.9770916707908057  1.0000
  C   C22       1.0  0.2586861960720981  0.19286072152586098  0.47709163618354467  1.0000
  C   C23       1.0  0.8071452994736033  0.7413136731023897  0.022908504727183795  1.0000
  C   C24       1.0  0.7413153137707977  0.8071464432233314  0.5229076364744998  1.0000
  S   S1        1.0  0.3475512846983762  0.20141303779998762  0.8644679043464193  1.0000
  S   S2        1.0  0.20141483472597332  0.3475543254480725  0.364468058918888  1.0000
  S   S3        1.0  0.6524457574620823  0.7985867343663529  0.13553119942108788  1.0000
  S   S4        1.0  0.7985847827561157  0.6524483947101984  0.6355316771263446  1.0000
  N   N1        1.0  0.11059223684540599  0.14309189314839443  0.8550616398007094  1.0000
  N   N2        1.0  0.1430911983772774  0.11059366792566291  0.35506196232706333  1.0000
  N   N3        1.0  0.8894155768777382  0.8569049897881343  0.14493812984628815  1.0000
  N   N4        1.0  0.8569043067065608  0.8894119565628672  0.644938310135565  1.0000
  N   N5        1.0  0.9412582885039029  0.36359296480259223  0.1315748822202423  1.0000
  N   N6        1.0  0.3635965737122999  0.9412580828898811  0.6315755887190875  1.0000
  N   N7        1.0  0.05874346352704394  0.6364053512423736  0.8684248215101106  1.0000
  N   N8        1.0  0.6364036840752121  0.05874612831910749  0.3684236240515659  1.0000
  O   O1        1.0  0.7670722860098848  0.2329261533119862  0.7500003089551157  1.0000
  O   O2        1.0  0.23292485591689865  0.7670706883270954  0.2499982008787995  1.0000
  O   O3        1.0  0.6295835630596756  0.8124174398196118  0.8115159277352717  1.0000
  O   O4        1.0  0.8124159023356013  0.6295839949111439  0.3115158609012028  1.0000
  O   O5        1.0  0.37041551388331584  0.1875808587606826  0.18848373765094809  1.0000
  O   O6        1.0  0.18758308911879593  0.37041724847701823  0.6884838452003378  1.0000
  O   O7        1.0  0.4679997960976293  0.3732177193976298  0.82529683336395  1.0000
  O   O8        1.0  0.37321602688237476  0.46800166651412667  0.3252953257793364  1.0000
  O   O9        1.0  0.5320025675054865  0.6267790286452807  0.17470673212269355  1.0000
  O   O10       1.0  0.626780175440011  0.5320024756560217  0.674705489129934  1.0000
  O   O11       1.0  0.3896802268647903  0.0325019314184658  0.8561652940077877  1.0000
  O   O12       1.0  0.03250009768267148  0.38968221417619736  0.3561662217094578  1.0000
  O   O13       1.0  0.6103242857426989  0.9674934572832967  0.1438344073513846  1.0000
  O   O14       1.0  0.9674940555794507  0.6103233872993884  0.6438345847993714  1.0000
  O   O15       1.0  0.3706852356278816  0.2652935504637952  0.9540112673150674  1.0000
  O   O16       1.0  0.2653023707023435  0.370689655568725  0.454010485925906  1.0000
  O   O17       1.0  0.6293126888482586  0.7346958335574881  0.045991022844489686  1.0000
  O   O18       1.0  0.7346957951917117  0.6293159721038604  0.5459903780991269  1.0000
  O   O19       1.0  0.7940030356387596  0.3965160216054571  0.1402540455849888  1.0000
  O   O20       1.0  0.3965203889120232  0.7940039291459728  0.6402544532206349  1.0000
  O   O21       1.0  0.20599675282051783  0.6034808089370716  0.8597456090296091  1.0000
  O   O22       1.0  0.6034805803917749  0.20599881402524298  0.3597447487783967  1.0000
  O   O23       1.0  0.06525892497251107  0.3840643875488751  0.18368556312341863  1.0000
  O   O24       1.0  0.384067314128167  0.06525907688273243  0.6836862936975121  1.0000
  O   O25       1.0  0.9347421155421498  0.6159353965338569  0.8163141513785632  1.0000
  O   O26       1.0  0.6159355901918389  0.9347451232296963  0.31631406385382377  1.0000
