data_image0
_chemical_formula_structural       Cu12H24C60N28
_chemical_formula_sum              "Cu12 H24 C60 N28"
_cell_length_a       23.358849602179536
_cell_length_b       23.683277064231646
_cell_length_c       23.741035197396517
_cell_angle_alpha    90.04081807385685
_cell_angle_beta     89.96610133578604
_cell_angle_gamma    90.12082537278499

_space_group_name_H-M_alt    "P 1"
_space_group_IT_number       1

loop_
  _space_group_symop_operation_xyz
  'x, y, z'

loop_
  _atom_site_type_symbol
  _atom_site_label
  _atom_site_symmetry_multiplicity
  _atom_site_fract_x
  _atom_site_fract_y
  _atom_site_fract_z
  _atom_site_occupancy
  Cu  Cu1       1.0  0.581101536417087  0.3377886183395021  0.4388044514855098  1.0000
  Cu  Cu2       1.0  0.6643423274536532  0.4416924654238558  0.4168004227836876  1.0000
  Cu  Cu3       1.0  0.5590412868652592  0.41822315553257994  0.3341400447771862  1.0000
  Cu  Cu4       1.0  0.4191911241059998  0.8386424315334935  0.0601937678760436  1.0000
  Cu  Cu5       1.0  0.3363996718201676  0.9423156383263915  0.08227675847616922  1.0000
  Cu  Cu6       1.0  0.4420940365702393  0.9194933474585556  0.1645079477139717  1.0000
  Cu  Cu7       1.0  0.08148620549155788  0.1620490013837568  0.5615139877994154  1.0000
  Cu  Cu8       1.0  0.1647336664227268  0.058818026080516  0.5837606080764887  1.0000
  Cu  Cu9       1.0  0.05880271427087541  0.08167530332811172  0.6661457264890914  1.0000
  Cu  Cu10      1.0  0.9187953025884072  0.6612896451193535  0.9397526123935833  1.0000
  Cu  Cu11      1.0  0.8352481939728236  0.5577006013652837  0.9174994780321556  1.0000
  Cu  Cu12      1.0  0.9413972493569817  0.5806443318229171  0.8354964034492482  1.0000
  H   H1        1.0  0.6377329816099648  0.28571299201758654  0.5495987091808561  1.0000
  H   H2        1.0  0.7513599091874851  0.42718727377925353  0.518424168225856  1.0000
  H   H3        1.0  0.44709259419953185  0.3602519630110592  0.28181285036930603  1.0000
  H   H4        1.0  0.4791520344209346  0.2506158911951673  0.4243701726490272  1.0000
  H   H5        1.0  0.7174095924425714  0.5519301767213634  0.359416196808816  1.0000
  H   H6        1.0  0.5746625824476653  0.5185848968898198  0.2476843709636186  1.0000
  H   H7        1.0  0.3621389686135927  0.7861437755195338  0.9496180520857466  1.0000
  H   H8        1.0  0.24895707925912802  0.9274904003985541  0.9809428823615607  1.0000
  H   H9        1.0  0.5535410936029095  0.8611249112501229  0.2169857325238524  1.0000
  H   H10       1.0  0.5203855331969224  0.7511945163197354  0.0746540682282841  1.0000
  H   H11       1.0  0.28323156677586075  0.0520004362960051  0.13989905732901783  1.0000
  H   H12       1.0  0.42618205188392727  0.019658335490952108  0.2514524876363993  1.0000
  H   H13       1.0  0.13801316231567992  0.21408115879233947  0.4504975505277288  1.0000
  H   H14       1.0  0.2517586586496705  0.07329754012312861  0.4818675911264023  1.0000
  H   H15       1.0  0.9465538155189036  0.13961232846809682  0.7180542339048301  1.0000
  H   H16       1.0  0.979690942473667  0.2488990127257226  0.5753687141785377  1.0000
  H   H17       1.0  0.2175880000766952  0.9489585997041061  0.641133757215144  1.0000
  H   H18       1.0  0.0744514774279565  0.9813206672818354  0.752647358518047  1.0000
  H   H19       1.0  0.86200216123261  0.7137738659587854  0.05023204270383271  1.0000
  H   H20       1.0  0.7477702504713336  0.5727749323549035  0.018933258771817004  1.0000
  H   H21       1.0  0.053362879743325216  0.638960921357601  0.7830830336284507  1.0000
  H   H22       1.0  0.0205098293335411  0.7487499521331673  0.9255331772344351  1.0000
  H   H23       1.0  0.7818942855927774  0.44781664314528064  0.859517140986924  1.0000
  H   H24       1.0  0.9255365105425639  0.4805742194354892  0.748594337286626  1.0000
  C   C1        1.0  0.6597980422405456  0.32286722291230774  0.533883054680999  1.0000
  C   C2        1.0  0.709035117036322  0.3499131772455684  0.5550895602864119  1.0000
  C   C3        1.0  0.7180156548286405  0.39526113747012215  0.5176795961299661  1.0000
  C   C4        1.0  0.463066969221785  0.33919682129100454  0.3191794316890438  1.0000
  C   C5        1.0  0.4418275992043804  0.29081926522889756  0.34666683265165693  1.0000
  C   C6        1.0  0.479757206778352  0.28304380153985426  0.3921320293374678  1.0000
  C   C7        1.0  0.6799301127053283  0.5356955429123147  0.3377998346339979  1.0000
  C   C8        1.0  0.6526508475611124  0.5563079833570016  0.28912660494458464  1.0000
  C   C9        1.0  0.6068905333727487  0.5184011321413564  0.28056302217339635  1.0000
  C   C10       1.0  0.3402042034202282  0.8232831817126184  0.9653317577593514  1.0000
  C   C11       1.0  0.2910336888330889  0.8502311998555359  0.9441672953687005  1.0000
  C   C12       1.0  0.2822009806260866  0.895599491184285  0.9815991678278169  1.0000
  C   C13       1.0  0.5373589978368898  0.8400921107572973  0.1796464911835258  1.0000
  C   C14       1.0  0.5580432243846262  0.7914110885443082  0.1523827899101278  1.0000
  C   C15       1.0  0.520141802990331  0.7837452754630121  0.10682970473538941  1.0000
  C   C16       1.0  0.3208445954632495  0.0360860236277247  0.16141336968002662  1.0000
  C   C17       1.0  0.3479145807629678  0.05667068651376891  0.21028164962875454  1.0000
  C   C18       1.0  0.3939935717069148  0.0192852402652832  0.21855446755346014  1.0000
  C   C19       1.0  0.1601476467442069  0.17713812081818503  0.4663073441026881  1.0000
  C   C20       1.0  0.20925263798175564  0.150159626464351  0.4449690041925011  1.0000
  C   C21       1.0  0.21843039620906524  0.10509046320279233  0.48259877468377976  1.0000
  C   C22       1.0  0.9627750479679025  0.16055653036808343  0.6806789253530213  1.0000
  C   C23       1.0  0.9418860536747857  0.2088971654078549  0.6530435574118982  1.0000
  C   C24       1.0  0.9800343897330848  0.21655980880125722  0.6076814518420477  1.0000
  C   C25       1.0  0.18001699264812743  0.9649228665917422  0.6627153122175004  1.0000
  C   C26       1.0  0.15262954325024944  0.9441183751117777  0.7113188052303414  1.0000
  C   C27       1.0  0.10677730762716922  0.9817529215307063  0.7198321281120528  1.0000
  C   C28       1.0  0.8397916488896869  0.6767101590292767  0.034524024816093415  1.0000
  C   C29       1.0  0.7904180787846826  0.6498968277421184  0.055707004988470005  1.0000
  C   C30       1.0  0.7812669869245994  0.604563571466251  0.018256670009705506  1.0000
  C   C31       1.0  0.03720724913399211  0.6599544620700898  0.8204432126448751  1.0000
  C   C32       1.0  0.0580688125272459  0.7086229066740516  0.8477474473575414  1.0000
  C   C33       1.0  0.0201508069325413  0.7162252839199469  0.8933238176881133  1.0000
  C   C34       1.0  0.8196476294470684  0.4638518872495113  0.8381543264203517  1.0000
  C   C35       1.0  0.8470182897921957  0.4432844509633114  0.7894374901707835  1.0000
  C   C36       1.0  0.8931511208175991  0.4808621272263169  0.7813459554575531  1.0000
  C   C37       1.0  0.2566802305477509  0.8360982385819683  0.8975230626697481  1.0000
  C   C38       1.0  0.22275837051160613  0.8275811427084961  0.8596050415125447  1.0000
  C   C39       1.0  0.7433395652957842  0.335879352794919  0.6017791224415349  1.0000
  C   C40       1.0  0.7771938535570158  0.32737839745364283  0.6397154110419763  1.0000
  C   C41       1.0  0.7561365287465591  0.6641186010660506  0.1023878871227097  1.0000
  C   C42       1.0  0.722352753168714  0.6727662913147369  0.14039903956977182  1.0000
  C   C43       1.0  0.2432319227026341  0.16401920556636906  0.3979521421759103  1.0000
  C   C44       1.0  0.2767632331537939  0.17234896772286126  0.3596434455014261  1.0000
  C   C45       1.0  0.10478443559048153  0.7437027372333774  0.833958649804984  1.0000
  C   C46       1.0  0.1423009811559979  0.7785128374772157  0.8261628831938453  1.0000
  C   C47       1.0  0.3948213188362644  0.2560622760037461  0.3330949586317118  1.0000
  C   C48       1.0  0.35702940326059013  0.2214441069713331  0.3257157134571217  1.0000
  C   C49       1.0  0.8950301428561432  0.24377072424641713  0.6664134351882539  1.0000
  C   C50       1.0  0.857435967872071  0.27848209038376137  0.6736369676245247  1.0000
  C   C51       1.0  0.6046123835042322  0.7564049660684804  0.1661739027708435  1.0000
  C   C52       1.0  0.6420739690525324  0.721721117955042  0.17404364749030782  1.0000
  C   C53       1.0  0.16664047863840642  0.8975710637668756  0.7454472629043637  1.0000
  C   C54       1.0  0.1746554168924206  0.8597180029968996  0.7790930950481681  1.0000
  C   C55       1.0  0.6666353883851458  0.6029119787100045  0.2549546989736342  1.0000
  C   C56       1.0  0.6744736555327009  0.6407442105170915  0.22119918944659392  1.0000
  C   C57       1.0  0.33334918893555715  0.10282520506778785  0.24479932555006914  1.0000
  C   C58       1.0  0.32464859977080357  0.14028908418038813  0.2787714432919515  1.0000
  C   C59       1.0  0.8328395477053759  0.3969988732712722  0.7548280221353566  1.0000
  C   C60       1.0  0.8248137806406391  0.35950176420450225  0.7206938632082257  1.0000
  N   N1        1.0  0.6774083965494597  0.39502429980889536  0.477606291592565  1.0000
  N   N2        1.0  0.6414129115619787  0.34997595840433604  0.487467841393091  1.0000
  N   N3        1.0  0.5200861131043624  0.3235790972238918  0.39159549459437676  1.0000
  N   N4        1.0  0.5099527562814218  0.35829821365135933  0.3461998970525358  1.0000
  N   N5        1.0  0.6070692114821056  0.4786752646601898  0.3209411853548475  1.0000
  N   N6        1.0  0.6525131149745818  0.4892258555554961  0.3563859047564081  1.0000
  N   N7        1.0  0.3228653828594688  0.8954801855429013  0.0216103176669336  1.0000
  N   N8        1.0  0.3587300826836426  0.8504836639655408  0.011714638909467102  1.0000
  N   N9        1.0  0.480327685637235  0.8246093361428352  0.10716711394275792  1.0000
  N   N10       1.0  0.49078594518652346  0.8594547226234679  0.152469412011385  1.0000
  N   N11       1.0  0.3941744012189616  0.979824704103386  0.17785858863149429  1.0000
  N   N12       1.0  0.3486442452594859  0.9900629197942906  0.14250549641375443  1.0000
  N   N13       1.0  0.1780281627958403  0.10541470380355383  0.5229065887136102  1.0000
  N   N14       1.0  0.1419836003598505  0.1502423717951302  0.5129846664707715  1.0000
  N   N15       1.0  0.0201689099512734  0.17601871858345666  0.6084009489705127  1.0000
  N   N16       1.0  0.0096941456762707  0.14138419820562834  0.6538323073034108  1.0000
  N   N17       1.0  0.10699667377546973  0.0215222078313815  0.6794906583226705  1.0000
  N   N18       1.0  0.1525869200638112  0.0112637892073337  0.6441404010601275  1.0000
  N   N19       1.0  0.8219629923017211  0.6045786626933917  0.9782157348285881  1.0000
  N   N20       1.0  0.8581461209778709  0.64947113629092  0.9881208227512774  1.0000
  N   N21       1.0  0.9801525560758577  0.6753685536462797  0.8929403678450498  1.0000
  N   N22       1.0  0.9905121726488135  0.6405640164232268  0.8476018956032408  1.0000
  N   N23       1.0  0.8931206488316904  0.5203800882738604  0.8219845241908105  1.0000
  N   N24       1.0  0.8473713886823405  0.5100116551647319  0.8571521604917509  1.0000
  N   N25       1.0  0.18294388920526222  0.819051811921959  0.8186654153683791  1.0000
  N   N26       1.0  0.8168190697659341  0.3189473722194691  0.6808350442120742  1.0000
  N   N27       1.0  0.6826904122118407  0.6813432821295108  0.18149447469964033  1.0000
  N   N28       1.0  0.316318529036927  0.1809411484905468  0.31842190380858443  1.0000
