data_image0
_chemical_formula_structural       Zr6H20C68Br32O32
_chemical_formula_sum              "Zr6 H20 C68 Br32 O32"
_cell_length_a       15.557096956481972
_cell_length_b       17.40980958822545
_cell_length_c       17.650332171640724
_cell_angle_alpha    86.53498109062433
_cell_angle_beta     89.98577516274182
_cell_angle_gamma    89.70450724475543

_space_group_name_H-M_alt    "P 1"
_space_group_IT_number       1

loop_
  _space_group_symop_operation_xyz
  'x, y, z'

loop_
  _atom_site_type_symbol
  _atom_site_label
  _atom_site_symmetry_multiplicity
  _atom_site_fract_x
  _atom_site_fract_y
  _atom_site_fract_z
  _atom_site_occupancy
  Zr  Zr1       1.0  0.012119520973854497  0.1439540160931543  0.9915947415131754  1.0000
  Zr  Zr2       1.0  0.018210037141756195  0.9934704852549247  0.8653211013413864  1.0000
  Zr  Zr3       1.0  0.007598115964548  0.009990531710222704  0.1492161963452006  1.0000
  Zr  Zr4       1.0  9.108126076280025e-05  0.8541705123560916  0.0238593320860971  1.0000
  Zr  Zr5       1.0  0.8491366906476827  0.0041882579746471  0.0031528438241323997  1.0000
  Zr  Zr6       1.0  0.17023274010652759  0.9961213026156417  0.011192005892361582  1.0000
  H   H1        1.0  0.14486257917021564  0.11075525194799955  0.8895011261858343  1.0000
  H   H2        1.0  0.8834321503829584  0.8858941569145174  0.8994197127744953  1.0000
  H   H3        1.0  0.12175185765435968  0.8806775968990763  0.1359000732949553  1.0000
  H   H4        1.0  0.8867232729111619  0.1269241385551183  0.1079576639197271  1.0000
  H   H5        1.0  0.06924770619354349  0.8869119777721652  0.776646139994092  1.0000
  H   H6        1.0  0.0098608884224163  0.8233921236792483  0.8690195790150809  1.0000
  H   H7        1.0  0.9486228734631578  0.7517806841263166  0.1271942358278366  1.0000
  H   H8        1.0  0.051523258073245884  0.9394958556761712  0.2859785315473005  1.0000
  H   H9        1.0  0.9565065834141604  0.1164413360110998  0.2443048676981334  1.0000
  H   H10       1.0  0.9610259374784391  0.28393165767372613  0.050596286746987594  1.0000
  H   H11       1.0  0.9635359257867221  0.2353993978681218  0.8739652032054364  1.0000
  H   H12       1.0  0.020478449411370996  0.1471304192787599  0.8201989627294635  1.0000
  H   H13       1.0  0.9524620935566331  0.9228320103758779  0.276082821594798  1.0000
  H   H14       1.0  0.06070062460225499  0.2706769736016455  0.06862439798179307  1.0000
  H   H15       1.0  0.08491216907862759  0.1076951365349856  0.7610951821881924  1.0000
  H   H16       1.0  0.05473525562750578  0.7536034509327226  0.9173330149472249  1.0000
  H   H17       1.0  0.663967874344223  0.5032236358438953  0.9627450961830064  1.0000
  H   H18       1.0  0.35153841774424416  0.49865570760884764  0.9767816719767239  1.0000
  H   H19       1.0  0.35628226983121886  0.014816933139556506  0.5093028364264994  1.0000
  H   H20       1.0  0.6715511563224367  0.9991892160793584  0.5032111708829914  1.0000
  C   C1        1.0  0.8069313276596687  0.18857499459561214  0.9753016965901722  1.0000
  C   C2        1.0  0.23287441472690054  0.9927057023617185  0.8374709674217582  1.0000
  C   C3        1.0  0.812658632099918  0.008576564750470103  0.823350705814974  1.0000
  C   C4        1.0  0.21813950265023854  0.18109176455988063  0.004858368484697498  1.0000
  C   C5        1.0  0.22134113132006655  0.0097144637873541  0.1852846642456925  1.0000
  C   C6        1.0  0.7902203272547081  0.8251843871497045  0.021440916990336206  1.0000
  C   C7        1.0  0.20612680846075185  0.8127008065522645  0.011591783274632004  1.0000
  C   C8        1.0  0.7948430162626036  0.006680929246094501  0.17785093558887866  1.0000
  C   C9        1.0  0.5536770070786542  0.43232307273283527  0.9438542037544123  1.0000
  C   C10       1.0  0.4634641128081896  0.43126512349785884  0.957683686324792  1.0000
  C   C11       1.0  0.4210979087163906  0.5005462547552855  0.9694611294866106  1.0000
  C   C12       1.0  0.46168895960799716  0.5712235198235831  0.9749419421870797  1.0000
  C   C13       1.0  0.5525574998857081  0.5706849823534128  0.9756108352602765  1.0000
  C   C14       1.0  0.5943321191918898  0.5021415947667621  0.9602617478600591  1.0000
  C   C15       1.0  0.4704013588017162  0.0070499419535466025  0.5777718449315684  1.0000
  C   C16       1.0  0.5614794602275524  0.0018963340863110006  0.5757616893443114  1.0000
  C   C17       1.0  0.6015099074361813  0.0016770951917664007  0.5046244266331996  1.0000
  C   C18       1.0  0.5574963171271249  0.0062256860624004  0.435237002902781  1.0000
  C   C19       1.0  0.46662149007782  0.012195209020291  0.4366691140468929  1.0000
  C   C20       1.0  0.4263394652181205  0.0118965187703068  0.5080743393410713  1.0000
  C   C21       1.0  0.2890554083463782  0.0764705023504817  0.2952129951169695  1.0000
  C   C22       1.0  0.2930050173431908  0.019396737455245703  0.24204182846859368  1.0000
  C   C23       1.0  0.3613750128154152  0.9664668195970452  0.24795178443291377  1.0000
  C   C24       1.0  0.4098157486898088  0.9593795926344629  0.3153685541374145  1.0000
  C   C25       1.0  0.41058273258391853  0.017668750304935102  0.3673562401705368  1.0000
  C   C26       1.0  0.3520680425310019  0.0795483215015622  0.3520560348735912  1.0000
  C   C27       1.0  0.6593183928874919  0.9388913301515416  0.34764115763594106  1.0000
  C   C28       1.0  0.6123723390702834  0.005421268257613601  0.365266604297929  1.0000
  C   C29       1.0  0.6262839880562439  0.07302022075809592  0.3184415835206451  1.0000
  C   C30       1.0  0.6842930727433298  0.0740097007603495  0.2572698976552488  1.0000
  C   C31       1.0  0.7261780655739966  0.006578486712392401  0.23853708941170737  1.0000
  C   C32       1.0  0.7111617341621111  0.9386952955556679  0.28281579376976396  1.0000
  C   C33       1.0  0.36167999890684394  0.0693010876214188  0.6643674675310862  1.0000
  C   C34       1.0  0.41735582711185504  0.007254377063269104  0.6489937830175804  1.0000
  C   C35       1.0  0.4167573816465833  0.9441016442396658  0.7030451420521329  1.0000
  C   C36       1.0  0.366592563526744  0.9433994071495494  0.7696329717370531  1.0000
  C   C37       1.0  0.3042804528712323  0.0004186901903367007  0.7784958945940659  1.0000
  C   C38       1.0  0.30601342982354396  0.06476196522827142  0.726867751620901  1.0000
  C   C39       1.0  0.6332872561900585  0.0675968866599561  0.6829195837996025  1.0000
  C   C40       1.0  0.6212970810228383  0.0007089884540931997  0.6426619189509495  1.0000
  C   C41       1.0  0.6772368031297091  0.9378373540233301  0.6611522679400181  1.0000
  C   C42       1.0  0.7384770499179822  0.9405172947342563  0.7194032488680051  1.0000
  C   C43       1.0  0.7468231177530172  0.006460009733267202  0.7603331041949061  1.0000
  C   C44       1.0  0.6951630275217437  0.07043191318418003  0.7404763726673236  1.0000
  C   C45       1.0  0.31602160944959923  0.7168788622417851  0.06504213385147749  1.0000
  C   C46       1.0  0.27095681010315076  0.7489823990922774  0.0020907414953654957  1.0000
  C   C47       1.0  0.2836191688921943  0.7183217140667822  0.9315018848592588  1.0000
  C   C48       1.0  0.34757554003976315  0.6625850974969866  0.9219816437606595  1.0000
  C   C49       1.0  0.40145226523387106  0.637297714671142  0.9831975589634607  1.0000
  C   C50       1.0  0.3831166546107241  0.6643568321923824  0.05521555290062709  1.0000
  C   C51       1.0  0.6609733622843944  0.7683542636781554  0.9571723215334487  1.0000
  C   C52       1.0  0.7203961679900883  0.7642330427944304  0.017479253928385678  1.0000
  C   C53       1.0  0.7202752811230083  0.6970618453187428  0.06631809012972667  1.0000
  C   C54       1.0  0.6631545464000366  0.6363641871608152  0.055310261090866696  1.0000
  C   C55       1.0  0.6076370374234016  0.6380525156844782  0.9918265148126367  1.0000
  C   C56       1.0  0.6108138748550899  0.7040604672558715  0.9418771075199998  1.0000
  C   C57       1.0  0.27477063648456107  0.2988136274745727  0.9318107166504034  1.0000
  C   C58       1.0  0.2829319574287225  0.24549006527769288  0.9945802864277978  1.0000
  C   C59       1.0  0.35147065425694984  0.2530816019638635  0.04528575352203751  1.0000
  C   C60       1.0  0.4094426120538444  0.3143838105718544  0.03425362464837891  1.0000
  C   C61       1.0  0.4048885747846285  0.36448404268974605  0.968771732106532  1.0000
  C   C62       1.0  0.3368806458891527  0.3554343219136414  0.9175455834349078  1.0000
  C   C63       1.0  0.6514458592713976  0.23200251697691954  0.953914735992697  1.0000
  C   C64       1.0  0.7401650617335562  0.24858014631399075  0.9522007883729697  1.0000
  C   C65       1.0  0.762132915293435  0.3227753868079972  0.9187760726112939  1.0000
  C   C66       1.0  0.6996524035233163  0.37973499500559893  0.9053144891226877  1.0000
  C   C67       1.0  0.6107040620910665  0.367489070847178  0.9250661307497907  1.0000
  C   C68       1.0  0.5901682731955448  0.28784375471235524  0.9281426013014453  1.0000
  Br  Br1       1.0  0.3570382521611037  0.16871129526663967  0.4079010495460692  1.0000
  Br  Br2       1.0  0.2005904629159687  0.1513782779900552  0.2859768880783946  1.0000
  Br  Br3       1.0  0.4642445949103616  0.8639264205543855  0.3399786569095865  1.0000
  Br  Br4       1.0  0.39121485383365234  0.905398596041771  0.16706113974287007  1.0000
  Br  Br5       1.0  0.7616632502176655  0.8465894291353423  0.2507109666814316  1.0000
  Br  Br6       1.0  0.6600805088811298  0.8491322289139591  0.41371977240760316  1.0000
  Br  Br7       1.0  0.7121213119197165  0.16745017005752066  0.2014082977511791  1.0000
  Br  Br8       1.0  0.5708185848839163  0.1651568348076324  0.34269573160433703  1.0000
  Br  Br9       1.0  0.2392653382543699  0.15214835430142407  0.7516141825942169  1.0000
  Br  Br10      1.0  0.3581225704368478  0.15979566132303097  0.5996250200423034  1.0000
  Br  Br11      1.0  0.3869643903143326  0.8681273884752728  0.8490507606610151  1.0000
  Br  Br12      1.0  0.47824170832771523  0.8538590769173313  0.6828388891479591  1.0000
  Br  Br13      1.0  0.7155596425610184  0.16240785770763472  0.7892750732275573  1.0000
  Br  Br14      1.0  0.5698046544076759  0.15752476556053102  0.6544242888316134  1.0000
  Br  Br15      1.0  0.8136009185446225  0.8563623625165064  0.7431403629744793  1.0000
  Br  Br16      1.0  0.6749448524536986  0.8483187162606003  0.6055087959770517  1.0000
  Br  Br17      1.0  0.4452950551062925  0.623380868950463  0.14047359383988578  1.0000
  Br  Br18      1.0  0.27420128885280787  0.7360771334367302  0.16288068623343577  1.0000
  Br  Br19      1.0  0.35741996631303147  0.6185201538905644  0.8268956888393717  1.0000
  Br  Br20      1.0  0.20743006562819485  0.7477786109166829  0.8504718535659704  1.0000
  Br  Br21      1.0  0.5528964651315674  0.702532417099441  0.8479488661357095  1.0000
  Br  Br22      1.0  0.6488075593755411  0.8589794136194943  0.8935496577272204  1.0000
  Br  Br23      1.0  0.6627523980496333  0.5486706571321279  0.1250080061720737  1.0000
  Br  Br24      1.0  0.7969472652423588  0.6873532327152745  0.1503482765344231  1.0000
  Br  Br25      1.0  0.33675144279214203  0.41439166507274194  0.8239581619153212  1.0000
  Br  Br26      1.0  0.17949282673445308  0.2935789928572988  0.8655994687932491  1.0000
  Br  Br27      1.0  0.49597903281436106  0.32971301073126824  0.1072460854821031  1.0000
  Br  Br28      1.0  0.3634852611140004  0.18194263019051962  0.1297014296392618  1.0000
  Br  Br29      1.0  0.49268022676376677  0.2505479991718787  0.8779548286211138  1.0000
  Br  Br30      1.0  0.6043317874867496  0.13786780775495802  0.9939829917536684  1.0000
  Br  Br31      1.0  0.7271957466667374  0.46843800367153676  0.8404632620940047  1.0000
  Br  Br32      1.0  0.8758131933148758  0.3481585548760933  0.8850723556530794  1.0000
  O   O1        1.0  0.8837230379461047  0.21170295591376492  0.9845430198006111  1.0000
  O   O2        1.0  0.7842216596485728  0.11886099005033661  0.9834083374324508  1.0000
  O   O3        1.0  0.1576776106325397  0.9861133103833595  0.8102160704543663  1.0000
  O   O4        1.0  0.2528644554466055  0.9943042998880429  0.906904532503411  1.0000
  O   O5        1.0  0.890414926837934  0.012214198505340296  0.8031789293530878  1.0000
  O   O6        1.0  0.7826642918967293  0.0044472368443138005  0.8905720455562331  1.0000
  O   O7        1.0  0.14028142493776127  0.20289588022330926  0.013162107297851796  1.0000
  O   O8        1.0  0.2448271449438977  0.11304325092059034  0.0010014114836635996  1.0000
  O   O9        1.0  0.013520822224968799  0.2019074392012002  0.8829014953197785  1.0000
  O   O10       1.0  0.0035048315704600003  0.24753399264219667  0.07246418470935369  1.0000
  O   O11       1.0  0.0285812339015195  0.10087058440515051  0.7851476060838818  1.0000
  O   O12       1.0  0.0182677487040834  0.8923443649768857  0.8078459708160963  1.0000
  O   O13       1.0  0.9465967671270263  0.05856280059978762  0.9422001578739198  1.0000
  O   O14       1.0  0.10664131444795537  0.0791094879457859  0.9218234520106987  1.0000
  O   O15       1.0  0.14638973241217457  0.0021262247936207007  0.21216925377748905  1.0000
  O   O16       1.0  0.24264965193218294  0.0068865008576537  0.11588898638373728  1.0000
  O   O17       1.0  0.8660811326734571  0.798565179171007  0.022695592699541592  1.0000
  O   O18       1.0  0.7688893759109233  0.8958443171953053  0.019238219159454683  1.0000
  O   O19       1.0  0.1286039955736697  0.7921643988507796  0.0129032085413527  1.0000
  O   O20       1.0  0.2364962184366206  0.8797732970608934  0.017118622023524203  1.0000
  O   O21       1.0  0.8708088965693649  0.0005409434544390008  0.20371603405175154  1.0000
  O   O22       1.0  0.7715474971022687  0.013969438403513805  0.10900627742338999  1.0000
  O   O23       1.0  0.0089311982281473  0.9184617129752372  0.2522536595589031  1.0000
  O   O24       1.0  0.0067532910053529  0.09216641694657571  0.2235645771056625  1.0000
  O   O25       1.0  0.0010508131972741996  0.7799148679794216  0.11452407822483217  1.0000
  O   O26       1.0  0.0023865563271031  0.7850045652661423  0.9154692022872268  1.0000
  O   O27       1.0  0.0922895104130532  0.9164763535406169  0.10017170329656717  1.0000
  O   O28       1.0  0.9353097823197486  0.9454891075146674  0.0719561061638245  1.0000
  O   O29       1.0  0.07928947919616999  0.06222850908825  0.0631748133329637  1.0000
  O   O30       1.0  0.9191984906900001  0.9170867175861022  0.9306671694084016  1.0000
  O   O31       1.0  0.9227119964148612  0.09247332778596731  0.080307926275168  1.0000
  O   O32       1.0  0.0784789144070288  0.9378872019509361  0.9565938179715159  1.0000
