data_image0
_chemical_formula_structural       Mg6H12C36O18
_chemical_formula_sum              "Mg6 H12 C36 O18"
_cell_length_a       6.869012877047653
_cell_length_b       19.427879009330066
_cell_length_c       19.432412045157754
_cell_angle_alpha    118.63296271369398
_cell_angle_beta     96.77162305766278
_cell_angle_gamma    96.75992371423168

_space_group_name_H-M_alt    "P 1"
_space_group_IT_number       1

loop_
  _space_group_symop_operation_xyz
  'x, y, z'

loop_
  _atom_site_type_symbol
  _atom_site_label
  _atom_site_symmetry_multiplicity
  _atom_site_fract_x
  _atom_site_fract_y
  _atom_site_fract_z
  _atom_site_occupancy
  Mg  Mg1       1.0  0.9069638118678823  0.39620830563887927  0.686784189302152  1.0000
  Mg  Mg2       1.0  0.5108397520837968  0.29066932751248237  0.6038594485566122  1.0000
  Mg  Mg3       1.0  0.22014926029846998  0.31322476880519906  0.7093790659966145  1.0000
  Mg  Mg4       1.0  0.20061350797823957  0.7117383730547004  0.3167979451425253  1.0000
  Mg  Mg5       1.0  0.4888718463460576  0.6050312437356242  0.28821015077306106  1.0000
  Mg  Mg6       1.0  0.883765077174118  0.6830995532410359  0.3948891763650906  1.0000
  H   H1        1.0  0.3012104062378498  0.4772123938334262  0.9247288504290408  1.0000
  H   H2        1.0  0.8241122824505496  0.44756340291193203  0.5228077587033721  1.0000
  H   H3        1.0  0.3766824964204431  0.07515815858317151  0.5524924987907908  1.0000
  H   H4        1.0  0.6471600219622147  0.47842763567085467  0.0697334090194772  1.0000
  H   H5        1.0  0.168690382501083  0.5912925105767927  0.521477820593347  1.0000
  H   H6        1.0  0.5774419317044914  0.9302593727150352  0.40884471505655273  1.0000
  H   H7        1.0  0.37065781741508635  0.5570009742528513  0.07919549852783803  1.0000
  H   H8        1.0  0.8137670826415615  0.5222873140538908  0.4430115282154075  1.0000
  H   H9        1.0  0.29147565709990886  0.9206993797910599  0.47783711019937386  1.0000
  H   H10       1.0  0.582289941364813  0.4024601588712002  0.9246361150784279  1.0000
  H   H11       1.0  0.1797816636466151  0.5221801100237046  0.5974064388665993  1.0000
  H   H12       1.0  0.6578591938338364  0.07538369064386789  0.4778893996776077  1.0000
  C   C1        1.0  0.009971556045925856  0.41597139681245926  0.8524824467982839  1.0000
  C   C2        1.0  0.5941209253890702  0.43659765118972876  0.5840612046603012  1.0000
  C   C3        1.0  0.15779118618127794  0.1475069634305584  0.5634853809293501  1.0000
  C   C4        1.0  0.1444935724643557  0.46098371996502874  0.925829919471681  1.0000
  C   C5        1.0  0.6836748779439005  0.46496564219532394  0.5390813766841659  1.0000
  C   C6        1.0  0.21886460531399615  0.0741130673354533  0.5351614652574455  1.0000
  C   C7        1.0  0.08284356766036892  0.48854899479074737  0.0003054620937205606  1.0000
  C   C8        1.0  0.5944827270354123  0.5118841599822801  0.5115104742037884  1.0000
  C   C9        1.0  0.08263124450805044  0.9996319285763707  0.48830016372724566  1.0000
  C   C10       1.0  0.8743669653911182  0.466326231132527  0.9990496943656595  1.0000
  C   C11       1.0  0.4081776515131068  0.5328126380843302  0.533687343271893  1.0000
  C   C12       1.0  0.875380764331929  0.0009130623055782  0.46739317875296377  1.0000
  C   C13       1.0  0.8054943513224232  0.49509188349313876  0.07109544079792583  1.0000
  C   C14       1.0  0.31046315753856396  0.5760683488570921  0.5048992366281623  1.0000
  C   C15       1.0  0.7344010085640278  0.9288786985169539  0.4241118733189141  1.0000
  C   C16       1.0  0.931033342219351  0.5458504254305795  0.14456376347902727  1.0000
  C   C17       1.0  0.3852687507039931  0.5987957343869184  0.4541605111620725  1.0000
  C   C18       1.0  0.7864724472712794  0.8553698254552062  0.4012587629472151  1.0000
  C   C19       1.0  0.1429868627155955  0.5687841817108464  0.1478064730589566  1.0000
  C   C20       1.0  0.5742361143235256  0.5790625187233617  0.4312133782817397  1.0000
  C   C21       1.0  0.9951984216089826  0.8521046433402901  0.420944628151261  1.0000
  C   C22       1.0  0.2118862213823788  0.5387105949287729  0.07592740543228146  1.0000
  C   C23       1.0  0.6732236125879467  0.5372713439608248  0.46128921856819727  1.0000
  C   C24       1.0  0.1359582524758736  0.9239797783548128  0.46282630294800947  1.0000
  C   C25       1.0  0.8356283580309666  0.5746139425553453  0.21472222197642304  1.0000
  C   C26       1.0  0.26100791959687086  0.6401361646446234  0.42534102069565444  1.0000
  C   C27       1.0  0.6208927734273074  0.7852070989106823  0.3598574256726507  1.0000
  C   C28       1.0  0.7403350826018453  0.41900831795183546  0.925577811740389  1.0000
  C   C29       1.0  0.32129778847281176  0.5065716862013616  0.5809134651377048  1.0000
  C   C30       1.0  0.8149292214394633  0.0744088061011965  0.4935346257165206  1.0000
  C   C31       1.0  0.8002863380422127  0.39439667203254924  0.853219762547617  1.0000
  C   C32       1.0  0.4058680540968566  0.4588424058476052  0.605556391480846  1.0000
  C   C33       1.0  0.9472750849326345  0.14677346705101263  0.5412183598189273  1.0000
  C   C34       1.0  0.6397320941849358  0.3514708277033948  0.7814323318551428  1.0000
  C   C35       1.0  0.2882010495450729  0.43001253377872933  0.6485211739774  1.0000
  C   C36       1.0  0.858324888021549  0.21855734572963573  0.5700236986097025  1.0000
  O   O1        1.0  0.46326587303940403  0.3284621586365262  0.7863622593319802  1.0000
  O   O2        1.0  0.1347120350714661  0.4579664533347697  0.6714784395440175  1.0000
  O   O3        1.0  0.6769019975282545  0.21358753306805775  0.5421075201778719  1.0000
  O   O4        1.0  0.681041463539458  0.34072161662678724  0.7141653109545487  1.0000
  O   O5        1.0  0.3403678877587737  0.3735615950970016  0.6593785099115408  1.0000
  O   O6        1.0  0.9669184946170332  0.2858686525217635  0.6264852362360711  1.0000
  O   O7        1.0  0.07228532763048891  0.3946036330771393  0.7832416377594029  1.0000
  O   O8        1.0  0.6777405115450534  0.38869139277392156  0.6054127634360852  1.0000
  O   O9        1.0  0.2892947724173851  0.21677657559625632  0.6113276472441882  1.0000
  O   O10       1.0  0.6523748058519769  0.5470224149450972  0.20762350387517603  1.0000
  O   O11       1.0  0.10527042786819864  0.6605770039510263  0.4529172909392542  1.0000
  O   O12       1.0  0.4447235070085895  0.792347679836354  0.3394101384778594  1.0000
  O   O13       1.0  0.9411107053270482  0.6300053441888168  0.2832655228221411  1.0000
  O   O14       1.0  0.31093264870281695  0.6531877698665839  0.3698739990103233  1.0000
  O   O15       1.0  0.6578043339591346  0.7166498436383506  0.3467206436273784  1.0000
  O   O16       1.0  0.27015809170800514  0.6183792918574939  0.21784387326513152  1.0000
  O   O17       1.0  0.6517278207815662  0.599461453299206  0.3815803967248853  1.0000
  O   O18       1.0  0.05225780407199926  0.7820431227463944  0.400480861309127  1.0000
