data_image0
_chemical_formula_structural       Cu8H32C52N20
_chemical_formula_sum              "Cu8 H32 C52 N20"
_cell_length_a       8.194303421959244
_cell_length_b       10.670749669596884
_cell_length_c       13.886735107782213
_cell_angle_alpha    90.00183278589388
_cell_angle_beta     90.00009389155184
_cell_angle_gamma    91.4459676756647

_space_group_name_H-M_alt    "P 1"
_space_group_IT_number       1

loop_
  _space_group_symop_operation_xyz
  'x, y, z'

loop_
  _atom_site_type_symbol
  _atom_site_label
  _atom_site_symmetry_multiplicity
  _atom_site_fract_x
  _atom_site_fract_y
  _atom_site_fract_z
  _atom_site_occupancy
  Cu  Cu1       1.0  0.9247560804040443  0.482097541251598  0.5768640869532433  1.0000
  Cu  Cu2       1.0  0.5752141311779438  0.0178609828733727  0.07684290244451121  1.0000
  Cu  Cu3       1.0  0.07508684067619949  0.5179706682195047  0.42316635076765863  1.0000
  Cu  Cu4       1.0  0.424851035924938  0.9820890029341317  0.9231652104707708  1.0000
  Cu  Cu5       1.0  0.551508720668174  0.24244912797835386  0.3870243940484102  1.0000
  Cu  Cu6       1.0  0.9486348753575908  0.25752460768827495  0.8870789619565118  1.0000
  Cu  Cu7       1.0  0.4486873158420364  0.75757780019903  0.6128958662550731  1.0000
  Cu  Cu8       1.0  0.05142921017171179  0.7423700716099759  0.11290754692767993  1.0000
  H   H1        1.0  0.7468439140016726  0.03290291226655741  0.2901200863730225  1.0000
  H   H2        1.0  0.7531699585545935  0.4670685819752834  0.7901320885780267  1.0000
  H   H3        1.0  0.2531885532086022  0.9670599380517404  0.709874344562536  1.0000
  H   H4        1.0  0.246809351726604  0.5329219688071802  0.20987602479358716  1.0000
  H   H5        1.0  0.9023266399080468  0.8484927247105603  0.34643789035674644  1.0000
  H   H6        1.0  0.597684808084274  0.6515067240165993  0.846432610703488  1.0000
  H   H7        1.0  0.09768932539077468  0.1514999885112189  0.6535817448464415  1.0000
  H   H8        1.0  0.4023096994499227  0.34851206335294904  0.15357046224142584  1.0000
  H   H9        1.0  0.9088962987980902  0.8014278927728995  0.5238771505743074  1.0000
  H   H10       1.0  0.591131495844145  0.6985873108557997  0.023871230073019903  1.0000
  H   H11       1.0  0.09113314821411216  0.19856773799284613  0.4761417645598274  1.0000
  H   H12       1.0  0.40887299654055187  0.3014428017434625  0.9761268022345181  1.0000
  H   H13       1.0  0.7653355451928475  0.9439665248205601  0.6369795716058493  1.0000
  H   H14       1.0  0.7347126602720733  0.5560751044708921  0.13699189032563913  1.0000
  H   H15       1.0  0.23471055794709625  0.056069537788701496  0.3630148602372786  1.0000
  H   H16       1.0  0.26531775824866327  0.4439702076490732  0.8630097427401753  1.0000
  H   H17       1.0  0.6536746750710519  0.0806897515182001  0.7241830590018168  1.0000
  H   H18       1.0  0.8462555431063163  0.41925865845289695  0.22416842147055155  1.0000
  H   H19       1.0  0.34634227257371447  0.9192907855933259  0.2758552989554559  1.0000
  H   H20       1.0  0.15369652874198889  0.5807119959590851  0.7758209687392894  1.0000
  H   H21       1.0  0.5142102501568075  0.24647654448088477  0.8115583384986281  1.0000
  H   H22       1.0  0.9857843629298484  0.25350506271028916  0.3115311194461441  1.0000
  H   H23       1.0  0.48579305079254437  0.7534926385391574  0.18847929920048057  1.0000
  H   H24       1.0  0.014226866518662  0.7464951107607974  0.6884618717147077  1.0000
  H   H25       1.0  0.3839852738124491  0.4221197144639676  0.715725093268752  1.0000
  H   H26       1.0  0.11602597118791638  0.07788283549391652  0.21568454260203404  1.0000
  H   H27       1.0  0.6159899531026836  0.5778492484125551  0.28432262597703334  1.0000
  H   H28       1.0  0.8839830553138128  0.9221295046118314  0.7842947665856955  1.0000
  H   H29       1.0  0.39620052529987493  0.4135236170610455  0.5381699397077427  1.0000
  H   H30       1.0  0.10383439240591488  0.08647078994218302  0.0381303084210032  1.0000
  H   H31       1.0  0.603840706259511  0.5864505500314079  0.4618734589649378  1.0000
  H   H32       1.0  0.8962127846648328  0.9135577827909813  0.9618482808737812  1.0000
  C   C1        1.0  0.7549580220347494  0.5921573887549981  0.6149923889551802  1.0000
  C   C2        1.0  0.7451134033554394  0.907951927206895  0.11503857986422622  1.0000
  C   C3        1.0  0.2449611525276154  0.40800326704869166  0.3849235521857041  1.0000
  C   C4        1.0  0.2549810476269838  0.09206014652419733  0.884958732154516  1.0000
  C   C5        1.0  0.95544574398059  0.36424460508291656  0.678152839525936  1.0000
  C   C6        1.0  0.5446298807402953  0.13565804280413127  0.17817124955039534  1.0000
  C   C7        1.0  0.044530329064698976  0.6356428209371003  0.32175013627151133  1.0000
  C   C8        1.0  0.45551367293408146  0.8642438220782226  0.8218685477253304  1.0000
  C   C9        1.0  0.7567817927236148  0.011363965686342702  0.3664675057308529  1.0000
  C   C10       1.0  0.7432349777973568  0.48861822747389294  0.8664742672907908  1.0000
  C   C11       1.0  0.24323741275419755  0.988607215867994  0.6335319660822876  1.0000
  C   C12       1.0  0.2567459013753676  0.5113901432250073  0.13352952563083423  1.0000
  C   C13       1.0  0.842781374468714  0.9084226300085804  0.39846594605555913  1.0000
  C   C14       1.0  0.657229027589345  0.5915771020530302  0.898467172244118  1.0000
  C   C15       1.0  0.15723076399876845  0.09156161775892  0.6015443275898635  1.0000
  C   C16       1.0  0.3427619647568035  0.40844915567142703  0.10153446056762054  1.0000
  C   C17       1.0  0.8461463191677011  0.8831510452113068  0.4968573746380757  1.0000
  C   C18       1.0  0.653860875691137  0.6168555693877308  0.9968577792009089  1.0000
  C   C19       1.0  0.15386243243173678  0.11684723467693912  0.5031528991783106  1.0000
  C   C20       1.0  0.3461322829134445  0.38315664665038446  0.0031445735508129004  1.0000
  C   C21       1.0  0.7662643838827207  0.9625756261552778  0.5599228116192592  1.0000
  C   C22       1.0  0.7337539939614782  0.5374513142556552  0.05993683163202231  1.0000
  C   C23       1.0  0.23375571980444926  0.03744148744494421  0.44007161997777905  1.0000
  C   C24       1.0  0.2662613923058358  0.46257419800473776  0.9400799235277548  1.0000
  C   C25       1.0  0.6850120954938319  0.0660086921081415  0.5233099041319635  1.0000
  C   C26       1.0  0.8149907710322636  0.4340059687953541  0.023317200841404404  1.0000
  C   C27       1.0  0.31500308909140523  0.9340065084330575  0.47668668777409823  1.0000
  C   C28       1.0  0.18499637617640016  0.5660108863389938  0.9766873122994042  1.0000
  C   C29       1.0  0.6002396951670902  0.15765401295801956  0.5832552451733621  1.0000
  C   C30       1.0  0.8997717574176957  0.342352900486496  0.08323228674920811  1.0000
  C   C31       1.0  0.3998046375001606  0.8423539190506376  0.41677303157123907  1.0000
  C   C32       1.0  0.10022141947840878  0.657660252537447  0.9167506229989757  1.0000
  C   C33       1.0  0.5955610178668989  0.15454708588176666  0.6837331059620126  1.0000
  C   C34       1.0  0.9044280102930243  0.3454197839421128  0.18371742926558454  1.0000
  C   C35       1.0  0.40449249310094604  0.845430926309895  0.31629733075404703  1.0000
  C   C36       1.0  0.09554149841270025  0.6545688151589671  0.8162784421787566  1.0000
  C   C37       1.0  0.5167903333084282  0.24904728994589231  0.7332923145108197  1.0000
  C   C38       1.0  0.9832125244871363  0.25093206101240645  0.23326430949307314  1.0000
  C   C39       1.0  0.4832250820907474  0.7509173018658618  0.2667424426911538  1.0000
  C   C40       1.0  0.016801146174749697  0.749068131529853  0.7667243609992129  1.0000
  C   C41       1.0  0.44511059927289404  0.3445692160245031  0.681431731753392  1.0000
  C   C42       1.0  0.0549041682612526  0.1554319338844721  0.18138726758949286  1.0000
  C   C43       1.0  0.5548867636352951  0.6554083559701169  0.3186231887260363  1.0000
  C   C44       1.0  0.9451011597510897  0.8445785027578482  0.8185949220196563  1.0000
  C   C45       1.0  0.4523556933278812  0.3414907830611257  0.5813484173353916  1.0000
  C   C46       1.0  0.04768703504699799  0.15852141589102334  0.08130618218987712  1.0000
  C   C47       1.0  0.547687180477787  0.6585049538261104  0.4187057832785399  1.0000
  C   C48       1.0  0.9523490465424087  0.8415014463168408  0.9186745673641286  1.0000
  C   C49       1.0  0.8557671080253113  0.42152822435016896  0.4434071720001144  1.0000
  C   C50       1.0  0.6442418630608059  0.07841680846689061  0.9433914995140856  1.0000
  C   C51       1.0  0.14418536380094335  0.5785877053849476  0.5565296518454731  1.0000
  C   C52       1.0  0.3558103859854356  0.9213718670723098  0.0565013935429448  1.0000
  N   N1        1.0  0.6799739455424996  0.08803462439291822  0.4270917318007364  1.0000
  N   N2        1.0  0.8200067645358826  0.41196574290076177  0.9271089253288239  1.0000
  N   N3        1.0  0.3200238938257556  0.9119673182633579  0.5728911778118404  1.0000
  N   N4        1.0  0.17994339771595236  0.5880320769542493  0.07289342722435073  1.0000
  N   N5        1.0  0.5264888187258234  0.24992622983668872  0.5337587480114651  1.0000
  N   N6        1.0  0.9735655207988072  0.2500977043963886  0.0337235111597636  1.0000
  N   N7        1.0  0.4735456757565756  0.7500778762489448  0.4662832108028781  1.0000
  N   N8        1.0  0.0265172556210445  0.7499414573380039  0.9662485972780177  1.0000
  N   N9        1.0  0.7514011841495571  0.3722205629880975  0.3973676139807766  1.0000
  N   N10       1.0  0.7486159502298048  0.12777510406964152  0.8973971862500251  1.0000
  N   N11       1.0  0.24854336997837825  0.6278025184565054  0.6026318584337318  1.0000
  N   N12       1.0  0.25141930650062955  0.872205575925683  0.10260156557630751  1.0000
  N   N13       1.0  0.6404929682619666  0.6536761555987525  0.6296941685704669  1.0000
  N   N14       1.0  0.859329906156567  0.8460775363035469  0.12945883177272322  1.0000
  N   N15       1.0  0.35929119472930887  0.34619571412166295  0.3706271918199135  1.0000
  N   N16       1.0  0.14051304246127216  0.15361764513886564  0.8703814918778506  1.0000
  N   N17       1.0  0.956978216602188  0.310734814401343  0.7522696754970613  1.0000
  N   N18       1.0  0.5427500450550368  0.1895533975703287  0.25212449972826795  1.0000
  N   N19       1.0  0.0430606589993872  0.689493328168716  0.24777588663429387  1.0000
  N   N20       1.0  0.45682486641452863  0.8107891922600887  0.7477194323126357  1.0000
