data_image0
_chemical_formula_structural       Zn4H72C88N16O16
_chemical_formula_sum              "Zn4 H72 C88 N16 O16"
_cell_length_a       10.955634908080926
_cell_length_b       14.36979428108275
_cell_length_c       18.6565296781052
_cell_angle_alpha    90.00021764947599
_cell_angle_beta     90.00031744920202
_cell_angle_gamma    89.99968622949977

_space_group_name_H-M_alt    "P 1"
_space_group_IT_number       1

loop_
  _space_group_symop_operation_xyz
  'x, y, z'

loop_
  _atom_site_type_symbol
  _atom_site_label
  _atom_site_symmetry_multiplicity
  _atom_site_fract_x
  _atom_site_fract_y
  _atom_site_fract_z
  _atom_site_occupancy
  Zn  Zn1       1.0  0.5363197372330292  0.952834760745027  0.9976063445627475  1.0000
  Zn  Zn2       1.0  0.4636811928613512  0.4528322670533098  0.002395754392956901  1.0000
  Zn  Zn3       1.0  0.9636864893842514  0.9528264005090459  0.49760729780203417  1.0000
  Zn  Zn4       1.0  0.0363190045844632  0.4528357559480652  0.5023937291431935  1.0000
  H   H1        1.0  0.7164113613065127  0.08938905958800086  0.09507203015011363  1.0000
  H   H2        1.0  0.2835858550078428  0.5893900395695578  0.9049295364003955  1.0000
  H   H3        1.0  0.7835809865813845  0.08939502132881927  0.5950654477790353  1.0000
  H   H4        1.0  0.21642170631352542  0.5893840777899653  0.40492486266770567  1.0000
  H   H5        1.0  0.7115571758256394  0.18435299976134434  0.15581872187807735  1.0000
  H   H6        1.0  0.2884393413760337  0.6843564454204267  0.84418473185346  1.0000
  H   H7        1.0  0.7884441749457523  0.18435824582137877  0.6558137632993067  1.0000
  H   H8        1.0  0.2115614699307997  0.6843491116003119  0.3441778983259526  1.0000
  H   H9        1.0  0.5774072866609431  0.3199389866090526  0.12220098287086503  1.0000
  H   H10       1.0  0.4225864068353361  0.8199350920900271  0.8777980453747816  1.0000
  H   H11       1.0  0.9225854459902438  0.31994090292936755  0.6221991399152601  1.0000
  H   H12       1.0  0.07741463689176702  0.8199345675571902  0.37779667231060904  1.0000
  H   H13       1.0  0.5447429685600939  0.284241074413913  0.8988265548143275  1.0000
  H   H14       1.0  0.45526650482123904  0.7842499364133101  0.10117236853567851  1.0000
  H   H15       1.0  0.9552708973718895  0.2842487542445013  0.3988248007106208  1.0000
  H   H16       1.0  0.0447495292874081  0.7842346016051635  0.6011703706083652  1.0000
  H   H17       1.0  0.6919730121567583  0.14171138188273597  0.954004584654996  1.0000
  H   H18       1.0  0.3080311211389812  0.6417191806519893  0.04600088776457061  1.0000
  H   H19       1.0  0.8080360352449745  0.14171896520311825  0.45399645639483327  1.0000
  H   H20       1.0  0.1919827023621892  0.6417032464121771  0.5459929358752265  1.0000
  H   H21       1.0  0.710231002367287  0.9149710261469504  0.7427065399135985  1.0000
  H   H22       1.0  0.28977020648010676  0.41496909988256886  0.25729705575268724  1.0000
  H   H23       1.0  0.7897813081791939  0.9149786837933997  0.24269888837635287  1.0000
  H   H24       1.0  0.21022537724068263  0.41497327258693417  0.7573009552786588  1.0000
  H   H25       1.0  0.0672909925044323  0.0325024231033026  0.7117488171045779  1.0000
  H   H26       1.0  0.932707555348614  0.532505388295547  0.2882488301856512  1.0000
  H   H27       1.0  0.4327106274043261  0.032503235728277985  0.21175288581133606  1.0000
  H   H28       1.0  0.5672933971282249  0.5325010961555917  0.7882517295524069  1.0000
  H   H29       1.0  0.0704149144236794  0.08432045297399778  0.8399292213305929  1.0000
  H   H30       1.0  0.9295914668974989  0.584325585296632  0.16006911430869053  1.0000
  H   H31       1.0  0.4295948379364631  0.08431779877819418  0.3399327438960143  1.0000
  H   H32       1.0  0.5704069795971095  0.584318496862849  0.6600736318020212  1.0000
  H   H33       1.0  0.8901232529458838  0.053291391637792195  0.9178796228257443  1.0000
  H   H34       1.0  0.1098870079234402  0.5532932153719583  0.0821218376320303  1.0000
  H   H35       1.0  0.6098934061351927  0.05328864719624698  0.41787781919355643  1.0000
  H   H36       1.0  0.3901122908981733  0.5532917844029367  0.5821257852721403  1.0000
  H   H37       1.0  0.3835788136527541  0.109215300374025  0.0742536065279822  1.0000
  H   H38       1.0  0.6164127800922969  0.6092122439235368  0.9257496263061289  1.0000
  H   H39       1.0  0.11641181399755142  0.10921080824227399  0.5742561294045317  1.0000
  H   H40       1.0  0.8835861691510799  0.6092153442299587  0.42574549542180773  1.0000
  H   H41       1.0  0.26227570104375525  0.20768725387342352  0.8728811799868909  1.0000
  H   H42       1.0  0.737719731609225  0.7076832629125177  0.12711805428399006  1.0000
  H   H43       1.0  0.23771519918734196  0.20768398901616075  0.37288836754806454  1.0000
  H   H44       1.0  0.7622784079311274  0.7076879195897656  0.6271140827540904  1.0000
  H   H45       1.0  0.4016884893077304  0.04475487734985957  0.8543262691351148  1.0000
  H   H46       1.0  0.5983200089061143  0.5447473696014525  0.14567731023303312  1.0000
  H   H47       1.0  0.0983226032257534  0.04474522097367378  0.3543292519770561  1.0000
  H   H48       1.0  0.9016758545108844  0.5447500669522679  0.6456727193484683  1.0000
  H   H49       1.0  0.2353015806935446  0.3132666799038333  0.9818565421370878  1.0000
  H   H50       1.0  0.764684859729883  0.8132641319318022  0.018140322462926406  1.0000
  H   H51       1.0  0.2646749680686398  0.313271656105826  0.48186220926208995  1.0000
  H   H52       1.0  0.7353114723290091  0.8132702902046912  0.5181378713864859  1.0000
  H   H53       1.0  0.2894932470222216  0.2747905622913578  0.06573817990346953  1.0000
  H   H54       1.0  0.7104898255887947  0.7747843809894376  0.9342601795948298  1.0000
  H   H55       1.0  0.21048695347167984  0.27478638305188235  0.5657431523022681  1.0000
  H   H56       1.0  0.7895015958035787  0.7747864725170428  0.4342600312501403  1.0000
  H   H57       1.0  0.06863676071442631  0.3657283215944175  0.07802373395276872  1.0000
  H   H58       1.0  0.931343816869074  0.8657267480828988  0.9219759648857888  1.0000
  H   H59       1.0  0.4313483630114164  0.36573507355453216  0.578022455477182  1.0000
  H   H60       1.0  0.5686404294741934  0.865729738758098  0.42197456336221256  1.0000
  H   H61       1.0  0.8576264881158624  0.3293282345138451  0.11532611082220261  1.0000
  H   H62       1.0  0.1423561829961812  0.8293303859297365  0.8846788410747096  1.0000
  H   H63       1.0  0.6423633720227357  0.3293403383935853  0.6153147818555241  1.0000
  H   H64       1.0  0.35763025224243716  0.8293280246455336  0.38467355390718444  1.0000
  H   H65       1.0  0.9065664140461749  0.045151319049750796  0.04775532825878771  1.0000
  H   H66       1.0  0.09343112792627292  0.5451560890624446  0.9522461082535615  1.0000
  H   H67       1.0  0.5934276377644565  0.04516362219269609  0.5477556324981523  1.0000
  H   H68       1.0  0.4065753807907129  0.5451528326535705  0.45224205199883033  1.0000
  H   H69       1.0  0.11876967997530842  0.08145328099451626  0.010364512296853  1.0000
  H   H70       1.0  0.8812275947660312  0.5814522436663618  0.9896364949168728  1.0000
  H   H71       1.0  0.3812241991425013  0.08145954114544905  0.5103684310954081  1.0000
  H   H72       1.0  0.6187785521840397  0.5814564220618192  0.4896304321210963  1.0000
  C   C1        1.0  0.8852892045754361  0.9407703747521903  0.6421243833051805  1.0000
  C   C2        1.0  0.11470725045195712  0.4407724385216197  0.3578766081739388  1.0000
  C   C3        1.0  0.614702797010665  0.9407787451515329  0.14212420336264137  1.0000
  C   C4        1.0  0.38529183243875315  0.4407752025969243  0.8578783961459779  1.0000
  C   C5        1.0  0.7360512371467465  0.16371368897826236  0.10099342254989102  1.0000
  C   C6        1.0  0.2639436064425027  0.6637188952831464  0.8990088984980675  1.0000
  C   C7        1.0  0.7639424450887233  0.1637225142930346  0.6009878484207648  1.0000
  C   C8        1.0  0.23605604953643686  0.6637114617443269  0.39900428853323433  1.0000
  C   C9        1.0  0.5894958940842017  0.29171365287296414  0.06873335384040051  1.0000
  C   C10       1.0  0.41050074551355925  0.79171354954029  0.9312671994585884  1.0000
  C   C11       1.0  0.9104992792162963  0.2917170102101493  0.5687309356310593  1.0000
  C   C12       1.0  0.0895037497672462  0.7917101921795717  0.4312653296353801  1.0000
  C   C13       1.0  0.5756324005857465  0.27100087146639124  0.9530102958447416  1.0000
  C   C14       1.0  0.4243753447444476  0.7710061137406894  0.046990196591437404  1.0000
  C   C15       1.0  0.9243765984074984  0.2710051975368443  0.45300629740172144  1.0000
  C   C16       1.0  0.0756393618634803  0.7709948285932311  0.5469866909624558  1.0000
  C   C17       1.0  0.6481963533465062  0.20099630613410818  0.9790966198701272  1.0000
  C   C18       1.0  0.3518073434852767  0.7010044994108638  0.020905810795106602  1.0000
  C   C19       1.0  0.8518097565193161  0.20100579896656254  0.47909506582515615  1.0000
  C   C20       1.0  0.1482021552480219  0.7009922229317878  0.5209020047956728  1.0000
  C   C21       1.0  0.6804011742125483  0.9620075916188852  0.8815566064035139  1.0000
  C   C22       1.0  0.31960151390588015  0.46200277462919087  0.11844551951670475  1.0000
  C   C23       1.0  0.8196075388549747  0.9620046892754314  0.38155226774134127  1.0000
  C   C24       1.0  0.18039606202817285  0.46200498106134086  0.6184477141578812  1.0000
  C   C25       1.0  0.7887971528684049  0.9824849335030447  0.8350835393319829  1.0000
  C   C26       1.0  0.2112062972556927  0.4824849613568602  0.1649191827985419  1.0000
  C   C27       1.0  0.7112146211793445  0.9824880396827566  0.33507777668645394  1.0000
  C   C28       1.0  0.2887924800059167  0.4824853346827637  0.6649217294229219  1.0000
  C   C29       1.0  0.7889338425231287  0.9523848144657729  0.7637894217108752  1.0000
  C   C30       1.0  0.2110652653387461  0.45238310512856805  0.23621321192569417  1.0000
  C   C31       1.0  0.7110765663558709  0.9523920966285501  0.2637831226200404  1.0000
  C   C32       1.0  0.28892984362569524  0.4523855655976944  0.7362146869944226  1.0000
  C   C33       1.0  0.8887543430206932  0.9707076594329603  0.7193488698934659  1.0000
  C   C34       1.0  0.111243717168783  0.4707065746233779  0.2806522095893058  1.0000
  C   C35       1.0  0.6112482086975107  0.9707146521056839  0.21934707069784312  1.0000
  C   C36       1.0  0.38875441532015753  0.4707079327902901  0.7806534727992444  1.0000
  C   C37       1.0  0.9899643439664275  0.018746780988941197  0.74695727134705  1.0000
  C   C38       1.0  0.010038869024917602  0.5187505461042219  0.2530430155417278  1.0000
  C   C39       1.0  0.510040000346834  0.018751402091034194  0.2469578235257615  1.0000
  C   C40       1.0  0.48996321266224646  0.5187459250113375  0.7530462154005735  1.0000
  C   C41       1.0  0.9911338356369299  0.047823222519440385  0.8183371504426591  1.0000
  C   C42       1.0  0.008870988858930702  0.5478231624958452  0.1816637579235589  1.0000
  C   C43       1.0  0.5088773588334021  0.047821585232426876  0.31833823483104606  1.0000
  C   C44       1.0  0.4911274656980638  0.547821320273762  0.6816674975783388  1.0000
  C   C45       1.0  0.8905329091708226  0.030326416051373387  0.862224008665031  1.0000
  C   C46       1.0  0.10947204412860148  0.53032990646777  0.13777845628791144  1.0000
  C   C47       1.0  0.6094797417259343  0.030329936422134593  0.36222166769992736  1.0000
  C   C48       1.0  0.39052703711804787  0.5303270819987913  0.6377813332623676  1.0000
  C   C49       1.0  0.3682950725816454  0.11208440361158978  0.016870995572972405  1.0000
  C   C50       1.0  0.6317010639021562  0.6120808706935249  0.9831317096966571  1.0000
  C   C51       1.0  0.1316986425577156  0.11208193695813408  0.5168714240658405  1.0000
  C   C52       1.0  0.8683011449949305  0.6120847291400293  0.48312806517957096  1.0000
  C   C53       1.0  0.3046624606877586  0.16040961762357844  0.9106733095875797  1.0000
  C   C54       1.0  0.6953360583206348  0.660409789138974  0.0893263217192484  1.0000
  C   C55       1.0  0.19533005761257277  0.16041000484504755  0.4106792875065538  1.0000
  C   C56       1.0  0.8046611592250484  0.6604100978418116  0.5893224878109039  1.0000
  C   C57       1.0  0.3740379710995683  0.0813394307747615  0.902465455852074  1.0000
  C   C58       1.0  0.6259684322227415  0.5813350536815489  0.0975371590529761  1.0000
  C   C59       1.0  0.12596783054397062  0.08133174955324309  0.402469064481224  1.0000
  C   C60       1.0  0.8740303578405391  0.5813385594933531  0.5975330143989908  1.0000
  C   C61       1.0  0.23600008262076955  0.25345065366460756  0.018622654094777102  1.0000
  C   C62       1.0  0.7639977514405557  0.7534479653484848  0.981376714711111  1.0000
  C   C63       1.0  0.26399078282661753  0.2534525197652399  0.5186294082403577  1.0000
  C   C64       1.0  0.7360006618259335  0.7534509705980524  0.4813731765945094  1.0000
  C   C65       1.0  0.1080058800183679  0.22641578724024916  0.040940597933413904  1.0000
  C   C66       1.0  0.8919857636585817  0.726411076483792  0.9590560113590954  1.0000
  C   C67       1.0  0.3919817443412938  0.22641782816147327  0.5409461596842179  1.0000
  C   C68       1.0  0.6080172015111884  0.7264159946014102  0.4590552736786649  1.0000
  C   C69       1.0  0.033273450549451404  0.2953160952635868  0.07117181646111702  1.0000
  C   C70       1.0  0.9667131220255529  0.7953144113985783  0.9288260673823604  1.0000
  C   C71       1.0  0.46671577787138574  0.2953206155353455  0.571171724832368  1.0000
  C   C72       1.0  0.5332771840738886  0.7953175460559191  0.42882455101663913  1.0000
  C   C73       1.0  0.9148035512951582  0.27449916306385796  0.092504622639737  1.0000
  C   C74       1.0  0.085187738389898  0.7745023551570679  0.9074964160558924  1.0000
  C   C75       1.0  0.5851901478754514  0.2745114997344159  0.5925016840985224  1.0000
  C   C76       1.0  0.41480753113664565  0.7745018488262614  0.40749185054975373  1.0000
  C   C77       1.0  0.8678544858722291  0.18442835832947677  0.08376967059514581  1.0000
  C   C78       1.0  0.1321429435356833  0.684433489864659  0.9162327113511498  1.0000
  C   C79       1.0  0.6321407065691389  0.18444328747213484  0.5837652764983832  1.0000
  C   C80       1.0  0.3678603738464546  0.6844289992550041  0.41622799337797295  1.0000
  C   C81       1.0  0.9426918898610595  0.11544871982646747  0.05468389558632231  1.0000
  C   C82       1.0  0.05730878567817401  0.615449427462451  0.9453139955385981  1.0000
  C   C83       1.0  0.5573062738158897  0.11545769052097649  0.5546872985520042  1.0000
  C   C84       1.0  0.4426971400120152  0.615448807613923  0.4453111285950016  1.0000
  C   C85       1.0  0.0620873409934717  0.13620441085789275  0.0334668679792713  1.0000
  C   C86       1.0  0.9379140945506779  0.6362009416455762  0.9665348361931339  1.0000
  C   C87       1.0  0.43791091730491166  0.13620835251597893  0.5334677548097988  1.0000
  C   C88       1.0  0.5620932565152188  0.6362060467323969  0.4665323413642569  1.0000
  N   N1        1.0  0.539515724474157  0.3269145305133207  0.009422722776165002  1.0000
  N   N2        1.0  0.4604861325978505  0.8269159066291247  0.9905757899908922  1.0000
  N   N3        1.0  0.9604886695017285  0.3269162925481907  0.5094215388871677  1.0000
  N   N4        1.0  0.039518664219464504  0.8269085773469768  0.49057590186987454  1.0000
  N   N5        1.0  0.6556720892805004  0.2151626254131144  0.0522629759114608  1.0000
  N   N6        1.0  0.3443251138890915  0.7151628723487417  0.9477405683865499  1.0000
  N   N7        1.0  0.8443280557196076  0.21516694805106337  0.5522571267902452  1.0000
  N   N8        1.0  0.1556773623551067  0.7151564619538885  0.44773516140537606  1.0000
  N   N9        1.0  0.41316346576306273  0.05206630525717058  0.9691777760908383  1.0000
  N   N10       1.0  0.5868413275300953  0.5520610640875744  0.030826360773154697  1.0000
  N   N11       1.0  0.08683953094070061  0.05206017513235388  0.4691796496522259  1.0000
  N   N12       1.0  0.9131561346347541  0.552063018800588  0.5308223431693548  1.0000
  N   N13       1.0  0.30247025769095615  0.17874965941027196  0.9833583405081828  1.0000
  N   N14       1.0  0.6975244752077572  0.6787487693166265  0.0166397366884752  1.0000
  N   N15       1.0  0.19752098717347621  0.178751429523146  0.4833664695671659  1.0000
  N   N16       1.0  0.8024728329603479  0.678751870548069  0.5166369676888181  1.0000
  O   O1        1.0  0.5852154576467613  0.9274748678621587  0.8554529398249856  1.0000
  O   O2        1.0  0.41478748469000243  0.42747187919943724  0.14454908458359486  1.0000
  O   O3        1.0  0.9147905245638555  0.9274729698179696  0.35544998226028224  1.0000
  O   O4        1.0  0.0852142433099203  0.42747308133046835  0.6445498981287798  1.0000
  O   O5        1.0  0.9626736850490192  0.9843288471300934  0.6010344016892406  1.0000
  O   O6        1.0  0.0373315769998328  0.48433977847501786  0.3989672538700192  1.0000
  O   O7        1.0  0.537328560651993  0.9843437956837986  0.10103075445577762  1.0000
  O   O8        1.0  0.4626639225360237  0.4843394439378697  0.8989719731149396  1.0000
  O   O9        1.0  0.8112196829716679  0.880343026424782  0.6213968467615204  1.0000
  O   O10       1.0  0.1887781296941569  0.38034141086099976  0.37860289506733846  1.0000
  O   O11       1.0  0.6887771313657041  0.8803490075350022  0.1213899392741382  1.0000
  O   O12       1.0  0.31122341958122496  0.3803430846873041  0.8786081945543175  1.0000
  O   O13       1.0  0.6931254681088461  0.9818020310716516  0.94946639188354  1.0000
  O   O14       1.0  0.3068788998005445  0.48180597929330543  0.050536328246735714  1.0000
  O   O15       1.0  0.8068846539822303  0.9817998764322907  0.4494620119060713  1.0000
  O   O16       1.0  0.19312427778876892  0.48180465439586556  0.5505380281996681  1.0000
