data_image0
_chemical_formula_structural       Cd2H24C28I4N16
_chemical_formula_sum              "Cd2 H24 C28 I4 N16"
_cell_length_a       4.123526289681785
_cell_length_b       7.473014505957055
_cell_length_c       30.599928332074402
_cell_angle_alpha    90.00172961926933
_cell_angle_beta     90.00619800574113
_cell_angle_gamma    98.36675183681922

_space_group_name_H-M_alt    "P 1"
_space_group_IT_number       1

loop_
  _space_group_symop_operation_xyz
  'x, y, z'

loop_
  _atom_site_type_symbol
  _atom_site_label
  _atom_site_symmetry_multiplicity
  _atom_site_fract_x
  _atom_site_fract_y
  _atom_site_fract_z
  _atom_site_occupancy
  Cd  Cd1       1.0  2.8828856883899962e-05  2.6484710588199985e-05  0.9999997297670049  1.0000
  Cd  Cd2       1.0  0.5000541388604489  0.4999874640912622  0.4999978331523991  1.0000
  H   H1        1.0  0.844043825758206  0.047739331781528394  0.9001761333964212  1.0000
  H   H2        1.0  0.6560036111778517  0.4522508950658661  0.4001799843974396  1.0000
  H   H3        1.0  0.15604148913516983  0.952299869189801  0.0998208401193708  1.0000
  H   H4        1.0  0.3439347915568263  0.547723847541782  0.5998169878441857  1.0000
  H   H5        1.0  0.609668672271681  0.18077970708917943  0.8390478501838815  1.0000
  H   H6        1.0  0.8904057462395585  0.3192147433193497  0.3390687656236224  1.0000
  H   H7        1.0  0.3903774681458502  0.8192345811449754  0.16094552818988458  1.0000
  H   H8        1.0  0.10953135395435257  0.6807653662655043  0.6609337621926556  1.0000
  H   H9        1.0  0.5616568279936162  0.23502084139374088  0.7542879783400523  1.0000
  H   H10       1.0  0.9383343010991892  0.26495904226973  0.2543004616819502  1.0000
  H   H11       1.0  0.4382905735897111  0.7649621363533113  0.2457073600014112  1.0000
  H   H12       1.0  0.0616377335639129  0.7350257006794507  0.7456994520208157  1.0000
  H   H13       1.0  0.14680414543769169  0.6023782638826561  0.9590191474348231  1.0000
  H   H14       1.0  0.35313445839031493  0.8975816255676106  0.4590200370956623  1.0000
  H   H15       1.0  0.8532355817880487  0.39767498311832117  0.04098305455563891  1.0000
  H   H16       1.0  0.6468775566531876  0.1023970595971875  0.540980203682949  1.0000
  H   H17       1.0  0.19153485856868716  0.449633983018039  0.8874113468417733  1.0000
  H   H18       1.0  0.30847892031498964  0.0503424813406212  0.3874150994526886  1.0000
  H   H19       1.0  0.808463720209474  0.550384888740723  0.11259542991817281  1.0000
  H   H20       1.0  0.6915188765611333  0.9496494342505811  0.6125874288466377  1.0000
  H   H21       1.0  0.05116197534307792  0.6038099763753023  0.8187246520272992  1.0000
  H   H22       1.0  0.4488685898210818  0.8961890200894373  0.3187295619208186  1.0000
  H   H23       1.0  0.948851560270228  0.39618759443742135  0.1812768960104165  1.0000
  H   H24       1.0  0.5510649442941257  0.10378564024383508  0.6812700246698071  1.0000
  C   C1        1.0  0.9176926975150792  0.9144917386942876  0.8954118823280481  1.0000
  C   C2        1.0  0.5823443785611176  0.585505237745508  0.3954108646001088  1.0000
  C   C3        1.0  0.0823737060797853  0.08554983654447307  0.10459130021983039  1.0000
  C   C4        1.0  0.41761583164576876  0.41445775075455066  0.604589048951631  1.0000
  C   C5        1.0  0.930435291241608  0.8395636460857573  0.8536302867628933  1.0000
  C   C6        1.0  0.5695799050567842  0.6604312199965034  0.3536409569751626  1.0000
  C   C7        1.0  0.0696317422145825  0.1604577323740415  0.14636701336382169  1.0000
  C   C8        1.0  0.4303905422158749  0.33955753741314965  0.6463589567276175  1.0000
  C   C9        1.0  0.694921229981027  0.09701552568085958  0.8138292216728118  1.0000
  C   C10       1.0  0.8051242953681595  0.4029840949094989  0.3138415240644719  1.0000
  C   C11       1.0  0.30511076047698543  0.9029890932263028  0.18616840494406972  1.0000
  C   C12       1.0  0.1947849982135992  0.5970022787136811  0.6861593695739145  1.0000
  C   C13       1.0  0.8413510808031504  0.9403986167958321  0.8157089196390928  1.0000
  C   C14       1.0  0.6586445923413037  0.5596138203651436  0.315717701792785  1.0000
  C   C15       1.0  0.1586734302662478  0.05961665233584769  0.1842890337518384  1.0000
  C   C16       1.0  0.3412910944245695  0.440359529405093  0.6842825384062153  1.0000
  C   C17       1.0  0.08527407363745  0.6659468441219117  0.9286407030065787  1.0000
  C   C18       1.0  0.4146849341066314  0.8340301293367671  0.42864016938127486  1.0000
  C   C19       1.0  0.9147954388887103  0.3341096025528003  0.0713660743874556  1.0000
  C   C20       1.0  0.5853061901177625  0.16594146617040909  0.5713613784148351  1.0000
  C   C21       1.0  0.11022973130258865  0.5820143162030362  0.888299697590547  1.0000
  C   C22       1.0  0.3897489896476571  0.9179682798331257  0.3883100708452717  1.0000
  C   C23       1.0  0.8897664096977991  0.41800451353102364  0.1117002163900764  1.0000
  C   C24       1.0  0.6102409365420128  0.08202080781005348  0.6116898430024094  1.0000
  C   C25       1.0  0.03135312830075069  0.6683373388283441  0.8503545071646883  1.0000
  C   C26       1.0  0.46866215618955925  0.8316758978256259  0.35035704452077  1.0000
  C   C27       1.0  0.9686736470001805  0.3316887467096308  0.1496535770173253  1.0000
  C   C28       1.0  0.531317642018216  0.16829954723826288  0.6496464639918216  1.0000
  I   I1        1.0  0.5426528215225944  0.24601665004094997  0.9614024078248492  1.0000
  I   I2        1.0  0.9574572449928597  0.2539681987947446  0.46139615426628205  1.0000
  I   I3        1.0  0.4574239943489502  0.7540399201518253  0.0386014284401455  1.0000
  I   I4        1.0  0.042646548747740154  0.7460201235819072  0.5385893813018683  1.0000
  N   N1        1.0  0.9912516166160046  0.8301368218237852  0.9319073626189862  1.0000
  N   N2        1.0  0.5087239890757687  0.6698436160116541  0.4319142477158593  1.0000
  N   N3        1.0  0.008811436293470393  0.16992355611400706  0.0680935323720888  1.0000
  N   N4        1.0  0.4912771562662002  0.3301294963124945  0.5680853393698229  1.0000
  N   N5        1.0  0.6668761562064277  0.13112984768475394  0.7708022160288764  1.0000
  N   N6        1.0  0.833143991337309  0.3688673491926551  0.2708124454577643  1.0000
  N   N7        1.0  0.3331154639605741  0.8688673511892516  0.229195410267991  1.0000
  N   N8        1.0  0.16680828288843236  0.6311157118582856  0.7291897556811265  1.0000
  N   N9        1.0  0.891703881765423  0.891102629196176  0.7733894404272804  1.0000
  N   N10       1.0  0.6083071689974631  0.6088907060162753  0.2733951526082237  1.0000
  N   N11       1.0  0.10831180566621869  0.10889363084051237  0.2266108004298886  1.0000
  N   N12       1.0  0.3916279527856261  0.3910799399275219  0.7266050875786902  1.0000
  N   N13       1.0  0.78532718279606  0.0070164133154762024  0.7463500564282981  1.0000
  N   N14       1.0  0.7146371603841575  0.4929587109257056  0.24635566641647702  1.0000
  N   N15       1.0  0.21462452519838857  0.9929639435895155  0.2536492035151312  1.0000
  N   N16       1.0  0.2853028309894654  0.5070120175409727  0.7536442470085021  1.0000
