data_image0
_chemical_formula_structural       CuH28C36N8O4F4
_chemical_formula_sum              "Cu1 H28 C36 N8 O4 F4"
_cell_length_a       8.248689492692282
_cell_length_b       9.412686635871792
_cell_length_c       11.815561938069521
_cell_angle_alpha    108.37554446077367
_cell_angle_beta     103.9768421630041
_cell_angle_gamma    91.40360693046028

_space_group_name_H-M_alt    "P 1"
_space_group_IT_number       1

loop_
  _space_group_symop_operation_xyz
  'x, y, z'

loop_
  _atom_site_type_symbol
  _atom_site_label
  _atom_site_symmetry_multiplicity
  _atom_site_fract_x
  _atom_site_fract_y
  _atom_site_fract_z
  _atom_site_occupancy
  Cu  Cu1       1.0  0.4999973902977999  0.9999972908808702  0.49999178486351065  1.0000
  H   H1        1.0  0.8553698549201627  0.03805466541420801  0.4522662947679876  1.0000
  H   H2        1.0  0.14463496884831537  0.9618801061128863  0.5477470158104366  1.0000
  H   H3        1.0  0.10840718381433592  0.3733893257431262  0.8952015544807068  1.0000
  H   H4        1.0  0.8915738777871739  0.6265934892873091  0.10478555059695077  1.0000
  H   H5        1.0  0.9149325604941227  0.4537400279769558  0.8892324087253058  1.0000
  H   H6        1.0  0.08504481421252313  0.5462337873131061  0.11075259327111547  1.0000
  H   H7        1.0  0.6816531413133337  0.26459497519526554  0.7629533090266776  1.0000
  H   H8        1.0  0.31831392314099827  0.7354437882816215  0.23700449905602738  1.0000
  H   H9        1.0  0.3384413979781088  0.49325944046765363  0.8751258867590935  1.0000
  H   H10       1.0  0.6615378225693078  0.506746932837487  0.12487633190225014  1.0000
  H   H11       1.0  0.29762432758625595  0.8357429760215  0.7016443975574661  1.0000
  H   H12       1.0  0.702352296021964  0.16429004377160786  0.29839476939084625  1.0000
  H   H13       1.0  0.11385083335715514  0.250924255197198  0.6260325159013717  1.0000
  H   H14       1.0  0.8861944100666932  0.7489852274484363  0.37399113609568246  1.0000
  H   H15       1.0  0.9889155611748282  0.8016338458362853  0.6613995058569202  1.0000
  H   H16       1.0  0.011044897461602003  0.1983816213629694  0.33860786585860586  1.0000
  H   H17       1.0  0.47388322879756123  0.6833911960002084  0.8127453832585941  1.0000
  H   H18       1.0  0.5260837183460512  0.3166441004823214  0.18729699165016467  1.0000
  H   H19       1.0  0.7454893218458667  0.4970033888572445  0.7034911013984413  1.0000
  H   H20       1.0  0.2544731874849901  0.5029805906511484  0.29650167419146095  1.0000
  H   H21       1.0  0.7634119138813917  0.6822384843137073  0.8076889034727228  1.0000
  H   H22       1.0  0.23655659755578998  0.31773413457235483  0.19230446607801352  1.0000
  H   H23       1.0  0.584428334477643  0.669040584491114  0.3395180903981867  1.0000
  H   H24       1.0  0.4155269373316131  0.33095468202340333  0.6604797907555451  1.0000
  H   H25       1.0  0.7312206315263199  0.47825722866885895  0.4652082763153443  1.0000
  H   H26       1.0  0.268717139153445  0.5217189607847743  0.5347859686063074  1.0000
  H   H27       1.0  0.6527759293723037  0.8836662858357585  0.7223576849277576  1.0000
  H   H28       1.0  0.3471885823539084  0.11632325349974339  0.2776410988097453  1.0000
  C   C1        1.0  0.8600278021630033  0.11547908508313041  0.543192411393548  1.0000
  C   C2        1.0  0.13998812313230505  0.8844737624432851  0.45681812963481855  1.0000
  C   C3        1.0  0.4812832908207342  0.0786002653586806  0.9131559016810229  1.0000
  C   C4        1.0  0.5188530248594888  0.9214424843607035  0.08684641501461245  1.0000
  C   C5        1.0  0.009490261232009807  0.4161021774754659  0.837864966740284  1.0000
  C   C6        1.0  0.9904911057287793  0.5838828416613283  0.16212614654884316  1.0000
  C   C7        1.0  0.45966862048143753  0.1536852681011709  0.8134210293707156  1.0000
  C   C8        1.0  0.5404027984136095  0.8463299794557813  0.18655401556645046  1.0000
  C   C9        1.0  0.7627337506869623  0.22862810868434738  0.7011239163484148  1.0000
  C   C10       1.0  0.237243513037761  0.7713831750863418  0.29885216490873023  1.0000
  C   C11       1.0  0.6317864205368195  0.0239122844313684  0.9539399975109148  1.0000
  C   C12       1.0  0.36837326331589554  0.9761650355844794  0.04608788075637455  1.0000
  C   C13       1.0  0.649946959521941  0.9458234181720967  0.03776595731130065  1.0000
  C   C14       1.0  0.35019747041333465  0.0542516442406793  0.9622681005870817  1.0000
  C   C15       1.0  0.2613031543624801  0.5618958365825932  0.8293074205054651  1.0000
  C   C16       1.0  0.7386690365127324  0.4381139063400142  0.17069957760597282  1.0000
  C   C17       1.0  0.08616973584161515  0.5401027405858515  0.8047953014196878  1.0000
  C   C18       1.0  0.913810182481676  0.45989015840589786  0.1951993067924532  1.0000
  C   C19       1.0  0.23935234083972295  0.7524177097813194  0.7305316743803515  1.0000
  C   C20       1.0  0.7606188203856022  0.2476121303500705  0.2694947533368505  1.0000
  C   C21       1.0  0.9872830312867367  0.21995838259646663  0.6276881935530766  1.0000
  C   C22       1.0  0.012739251271114022  0.7799763250546621  0.37232208871277095  1.0000
  C   C23       1.0  0.06476474781904781  0.7330940238897413  0.7080605009049208  1.0000
  C   C24       1.0  0.9351903197226861  0.2669091359584144  0.29193939350610515  1.0000
  C   C25       1.0  0.3373592135001076  0.6675271281088088  0.7925270595253265  1.0000
  C   C26       1.0  0.6626149353463333  0.3324971219176973  0.2074933383838911  1.0000
  C   C27       1.0  0.9864817752682884  0.6283629719984773  0.7449601441858533  1.0000
  C   C28       1.0  0.013477938172400198  0.3716187884736897  0.2550307429522292  1.0000
  C   C29       1.0  0.7969826543618697  0.6135485208941134  0.7238967951681445  1.0000
  C   C30       1.0  0.20298440485592556  0.3864320019019161  0.276098382162033  1.0000
  C   C31       1.0  0.6187530970575069  0.6838216254113476  0.4377208813856939  1.0000
  C   C32       1.0  0.38119878963428994  0.3161668695241602  0.5622772177547048  1.0000
  C   C33       1.0  0.6908998759691799  0.5890109027162537  0.49860762778966006  1.0000
  C   C34       1.0  0.3090456182837117  0.4109765430476813  0.5013874398557405  1.0000
  C   C35       1.0  0.6519545579706689  0.799892944026233  0.6350140862342143  1.0000
  C   C36       1.0  0.34800605901129  0.20009551295754588  0.36498292053578746  1.0000
  N   N1        1.0  0.7218632304127441  0.1222934880336339  0.5903117117911377  1.0000
  N   N2        1.0  0.27813134006411394  0.8776972002109461  0.409672918225894  1.0000
  N   N3        1.0  0.923430856091642  0.2902691811313787  0.7267012269665258  1.0000
  N   N4        1.0  0.07656878106271854  0.7097123130635341  0.2732911740320958  1.0000
  N   N5        1.0  0.5958898582598594  0.814678726262315  0.5244972073761004  1.0000
  N   N6        1.0  0.4040710551266784  0.18531199496533904  0.475499589746441  1.0000
  N   N7        1.0  0.7101442858695961  0.6637710093184666  0.623022088947195  1.0000
  N   N8        1.0  0.28981573830319024  0.33621291917754104  0.3769753371177202  1.0000
  O   O1        1.0  0.41721214850048954  0.06265577009973099  0.7036918618170347  1.0000
  O   O2        1.0  0.5827775822061909  0.9373554921002807  0.2962803692161202  1.0000
  O   O3        1.0  0.4906441119859793  0.29476450483169003  0.8499553576299236  1.0000
  O   O4        1.0  0.5093920338247528  0.7052490031409635  0.14999811571091476  1.0000
  F   F1        1.0  0.7664540409798449  0.0477416963385551  0.9109006428176086  1.0000
  F   F2        1.0  0.2336757325212987  0.9523183076980217  0.08908474424266895  1.0000
  F   F3        1.0  0.800833029316614  0.8944151652941202  0.07382003641833283  1.0000
  F   F4        1.0  0.19930145311568034  0.10563166499298401  0.9262143493263366  1.0000
