data_image0
_chemical_formula_structural       Cs4H12C28N8O28
_chemical_formula_sum              "Cs4 H12 C28 N8 O28"
_cell_length_a       7.414348316240715
_cell_length_b       7.8315004780351485
_cell_length_c       17.59616687696974
_cell_angle_alpha    96.75796968337977
_cell_angle_beta     90.00041716496698
_cell_angle_gamma    90.0007639775482

_space_group_name_H-M_alt    "P 1"
_space_group_IT_number       1

loop_
  _space_group_symop_operation_xyz
  'x, y, z'

loop_
  _atom_site_type_symbol
  _atom_site_label
  _atom_site_symmetry_multiplicity
  _atom_site_fract_x
  _atom_site_fract_y
  _atom_site_fract_z
  _atom_site_occupancy
  Cs  Cs1       1.0  0.8307986385645241  0.38673606960503554  0.7979842035374534  1.0000
  Cs  Cs2       1.0  0.3308026739378819  0.613259182237819  0.7020152130648329  1.0000
  Cs  Cs3       1.0  0.16919959337730722  0.6132621083697744  0.20201731694579195  1.0000
  Cs  Cs4       1.0  0.669196906715584  0.3867389422638255  0.2979834631902989  1.0000
  H   H1        1.0  0.41676740146946417  0.31540117674756374  0.03541363273689062  1.0000
  H   H2        1.0  0.916767692534862  0.6845968460790176  0.4645889204159276  1.0000
  H   H3        1.0  0.5832200406689199  0.6846085732080879  0.9645884512484527  1.0000
  H   H4        1.0  0.08322514440002493  0.31539234206861266  0.5354127306076537  1.0000
  H   H5        1.0  0.19090061293542251  0.01775251296402301  0.8359460103217418  1.0000
  H   H6        1.0  0.6909013280055663  0.9822562370360829  0.6640524840218733  1.0000
  H   H7        1.0  0.8091016651914489  0.9822405539925044  0.16405696625312063  1.0000
  H   H8        1.0  0.3091022989326151  0.017754702545602206  0.3359445429928486  1.0000
  H   H9        1.0  0.09291550307123944  0.6683340927066865  0.9998906325231335  1.0000
  H   H10       1.0  0.592923159753319  0.33166416944894916  0.500099084329328  1.0000
  H   H11       1.0  0.9070827289148015  0.3316641815363893  0.00011600757537170009  1.0000
  H   H12       1.0  0.40707507203720195  0.6683286193716286  0.4998891022381501  1.0000
  C   C1        1.0  0.09790548181718611  0.7400721996582506  0.8999710295182413  1.0000
  C   C2        1.0  0.5979138289825487  0.25993133793750905  0.6000223699826324  1.0000
  C   C3        1.0  0.9021075862427854  0.2599247568128434  0.10003384145662153  1.0000
  C   C4        1.0  0.40209789029991333  0.7400756480796459  0.3999693495914159  1.0000
  C   C5        1.0  0.18278560199876648  0.898721590197681  0.939658367280771  1.0000
  C   C6        1.0  0.6828018322337928  0.10128057742031868  0.5603375075526743  1.0000
  C   C7        1.0  0.8172193736582188  0.1012779270893631  0.06034606005972881  1.0000
  C   C8        1.0  0.31721258447836226  0.8987187260016821  0.43965554288311653  1.0000
  C   C9        1.0  0.21745794417089576  0.912418390046284  0.0215605764554425  1.0000
  C   C10       1.0  0.7174756983462843  0.0875755299526588  0.47843603098389326  1.0000
  C   C11       1.0  0.7825443340708917  0.0875901063162274  0.9784431514830987  1.0000
  C   C12       1.0  0.2825373695866917  0.9124173552374517  0.5215572752272595  1.0000
  C   C13       1.0  0.30473441201969836  0.07038589046506871  0.053982290895234514  1.0000
  C   C14       1.0  0.804744577578305  0.9296079886448111  0.4460174324867909  1.0000
  C   C15       1.0  0.695247635159632  0.9296212985825676  0.9460202366986369  1.0000
  C   C16       1.0  0.19526174673236352  0.0703862892478426  0.5539816247864807  1.0000
  C   C17       1.0  0.34927425748978186  0.19961434466014785  0.009403451578300798  1.0000
  C   C18       1.0  0.8492739222836225  0.8003827139862665  0.49059656763487436  1.0000
  C   C19       1.0  0.6507118359173135  0.8003954159827701  0.9905992012505893  1.0000
  C   C20       1.0  0.15072026339655054  0.19961028873617437  0.5094029958476441  1.0000
  C   C21       1.0  0.30645284691634345  0.18000982559118484  0.9318863123528945  1.0000
  C   C22       1.0  0.806445601308454  0.8199915013416541  0.568112186339434  1.0000
  C   C23       1.0  0.6935372926757924  0.8199948240334437  0.06811779656761272  1.0000
  C   C24       1.0  0.19354858440977557  0.18000790890700102  0.4318865525190035  1.0000
  C   C25       1.0  0.22255471288583112  0.030777599640849505  0.8968972689246544  1.0000
  C   C26       1.0  0.7225582541548123  0.9692264393726119  0.6031010962308658  1.0000
  C   C27       1.0  0.7774462165431475  0.9692206104418021  0.10310595810217653  1.0000
  C   C28       1.0  0.277446721495764  0.030780653563255097  0.3968963117916574  1.0000
  N   N1        1.0  0.35182643632486355  0.10096677349901031  0.1344858187155467  1.0000
  N   N2        1.0  0.8518294074040829  0.8990238910921562  0.3655138972127007  1.0000
  N   N3        1.0  0.648163703290841  0.8990429871715266  0.8655168341211026  1.0000
  N   N4        1.0  0.14817556810825752  0.100961397000944  0.6344852906086447  1.0000
  N   N5        1.0  0.35041816974093365  0.3160285551159562  0.8862747249507239  1.0000
  N   N6        1.0  0.8504124841021653  0.6839824046011672  0.6137260870015951  1.0000
  N   N7        1.0  0.6495773646948425  0.6839657547924672  0.11372603884030501  1.0000
  N   N8        1.0  0.14957900425440587  0.3160286311659348  0.38627605960513733  1.0000
  O   O1        1.0  0.05436105470919732  0.6188544004745393  0.9439266402549226  1.0000
  O   O2        1.0  0.5543663131895117  0.3811472354718717  0.5560653921233938  1.0000
  O   O3        1.0  0.9456506646435446  0.38114514894795787  0.056079493636914904  1.0000
  O   O4        1.0  0.44563326738042985  0.6188507071897078  0.44392361374736583  1.0000
  O   O5        1.0  0.0677847791826593  0.7210497909317156  0.8303699313712659  1.0000
  O   O6        1.0  0.5677905314860116  0.2789404241295869  0.669619882370647  1.0000
  O   O7        1.0  0.932224242664788  0.27894209725175045  0.1696386710642628  1.0000
  O   O8        1.0  0.4322346750806292  0.7210625976633908  0.3303659609269189  1.0000
  O   O9        1.0  0.16880446177114553  0.7917277327695799  0.060076833610907  1.0000
  O   O10       1.0  0.6688124687188904  0.20826555505394134  0.4399212939655969  1.0000
  O   O11       1.0  0.831188375370765  0.2082834099714717  0.9399310014598046  1.0000
  O   O12       1.0  0.331185763129831  0.791731155296972  0.5600704935196391  1.0000
  O   O13       1.0  0.3485528284851541  0.9796986938294197  0.1742174387185927  1.0000
  O   O14       1.0  0.8485468085769984  0.020293233187146605  0.32578346495775895  1.0000
  O   O15       1.0  0.651450798555459  0.020316263550881807  0.8257883088291466  1.0000
  O   O16       1.0  0.15145546945802124  0.9796920441910614  0.6742151540122876  1.0000
  O   O17       1.0  0.39898896341323836  0.2498940204386031  0.16044233565029495  1.0000
  O   O18       1.0  0.8989880492543282  0.7500960342760125  0.33955920486629054  1.0000
  O   O19       1.0  0.6010065711128905  0.7501156653934373  0.8395563352737059  1.0000
  O   O20       1.0  0.10100883383663024  0.2498854498927301  0.6604426393293397  1.0000
  O   O21       1.0  0.4618598473277802  0.42706300228557836  0.9120308164306864  1.0000
  O   O22       1.0  0.9618508129127008  0.5729520075486435  0.5879682722705939  1.0000
  O   O23       1.0  0.5381370358532751  0.5729351221976559  0.08796785981927971  1.0000
  O   O24       1.0  0.03813662922101462  0.4270564673196516  0.4120343179472458  1.0000
  O   O25       1.0  0.2750961017627915  0.31521639768409676  0.822752556899218  1.0000
  O   O26       1.0  0.7750982517119812  0.6847948302994098  0.6772485979828391  1.0000
  O   O27       1.0  0.7249048275316173  0.6847663402066644  0.17724764337938131  1.0000
  O   O28       1.0  0.2249013291001206  0.31522134865825546  0.3227537990939524  1.0000
