data_image0
_chemical_formula_structural       Dy4H32C36O32
_chemical_formula_sum              "Dy4 H32 C36 O32"
_cell_length_a       7.744354229958228
_cell_length_b       8.158191177624792
_cell_length_c       18.94030524600283
_cell_angle_alpha    89.99998126768341
_cell_angle_beta     89.99994731153961
_cell_angle_gamma    105.90466174726657

_space_group_name_H-M_alt    "P 1"
_space_group_IT_number       1

loop_
  _space_group_symop_operation_xyz
  'x, y, z'

loop_
  _atom_site_type_symbol
  _atom_site_label
  _atom_site_symmetry_multiplicity
  _atom_site_fract_x
  _atom_site_fract_y
  _atom_site_fract_z
  _atom_site_occupancy
  Dy  Dy1       1.0  0.7579267524801665  0.25134686820326374  0.5178748085222367  1.0000
  Dy  Dy2       1.0  0.7420749290984433  0.7486544017806268  0.017874914235541398  1.0000
  Dy  Dy3       1.0  0.24207451165346325  0.7486546301517759  0.48212465415767275  1.0000
  Dy  Dy4       1.0  0.2579263350351867  0.2513470965744062  0.9821245484443608  1.0000
  H   H1        1.0  0.6106446725997968  0.4362823369314839  0.3695018182386817  1.0000
  H   H2        1.0  0.8893534932480022  0.5637184335020391  0.8695016180687388  1.0000
  H   H3        1.0  0.3893540103936388  0.5637191662120173  0.6304981724163099  1.0000
  H   H4        1.0  0.11064223824117653  0.4362817998794881  0.1304983725868922  1.0000
  H   H5        1.0  0.6603420829963939  0.5839826438675075  0.25212987783622504  1.0000
  H   H6        1.0  0.8396586055890224  0.4160170155728052  0.7521302456121575  1.0000
  H   H7        1.0  0.3396575202034242  0.41601758233152003  0.7478690568694972  1.0000
  H   H8        1.0  0.1603393366741841  0.5839819384687033  0.24787027301774597  1.0000
  H   H9        1.0  0.3126450049797924  0.14107836537293392  0.1539726342392029  1.0000
  H   H10       1.0  0.1873561526529671  0.8589174568744228  0.6539719397656611  1.0000
  H   H11       1.0  0.6873556978983686  0.8589167578329012  0.846027884390459  1.0000
  H   H12       1.0  0.8126449205906493  0.14107894088259335  0.34602805088924526  1.0000
  H   H13       1.0  0.2576592127971153  0.994804176890966  0.272047765786624  1.0000
  H   H14       1.0  0.24233850002453755  0.005194032286503597  0.7720461174250487  1.0000
  H   H15       1.0  0.7423409402387124  0.005193497809756299  0.7279543367667429  1.0000
  H   H16       1.0  0.7576577813048643  0.9948036495989923  0.22795387323066754  1.0000
  H   H17       1.0  0.5190903875157744  0.24915653254191739  0.6388000431286827  1.0000
  H   H18       1.0  0.9809093117204811  0.750843291842308  0.13880005851760296  1.0000
  H   H19       1.0  0.4809088453185879  0.7508424191059289  0.3611994195517951  1.0000
  H   H20       1.0  0.019091582046982587  0.24915693196115996  0.8612004601116537  1.0000
  H   H21       1.0  0.38293721620028986  0.16117292002721934  0.5774515390183268  1.0000
  H   H22       1.0  0.11706267477207888  0.8388268404151729  0.07745167887571107  1.0000
  H   H23       1.0  0.6170640479333402  0.8388285783278135  0.42254792366158256  1.0000
  H   H24       1.0  0.8829369284256428  0.1611733857827176  0.9225488397537943  1.0000
  H   H25       1.0  0.7774216710539434  0.6205035876785131  0.48320057472088246  1.0000
  H   H26       1.0  0.7225787737318683  0.3794970148873417  0.9832009918728346  1.0000
  H   H27       1.0  0.22257922271422362  0.37949663612533857  0.5167994159337823  1.0000
  H   H28       1.0  0.2774211998320198  0.6205044858621137  0.0167984708073163  1.0000
  H   H29       1.0  0.6064835291527617  0.5511098140333387  0.533114802201048  1.0000
  H   H30       1.0  0.8935177415546252  0.4488901595410013  0.0331148939523658  1.0000
  H   H31       1.0  0.3935173646153985  0.448890409770513  0.46688518845361676  1.0000
  H   H32       1.0  0.10648407241852455  0.5511087873176308  0.9668850967022136  1.0000
  C   C1        1.0  0.43149972348320637  0.20655288550165807  0.327222718860952  1.0000
  C   C2        1.0  0.06849784268793964  0.7934452445379064  0.8272215506224538  1.0000
  C   C3        1.0  0.5684995093490458  0.7934460661450515  0.6727783277433089  1.0000
  C   C4        1.0  0.931499179372395  0.20655498644995862  0.1727773840837443  1.0000
  C   C5        1.0  0.5435563251600257  0.37340626074767147  0.32228453935594803  1.0000
  C   C6        1.0  0.9564406756164914  0.6265945798037647  0.8222848328344978  1.0000
  C   C7        1.0  0.45644106726366823  0.6265952447902448  0.677715451299285  1.0000
  C   C8        1.0  0.04355505587269448  0.3734056535777625  0.17771515782114014  1.0000
  C   C9        1.0  0.5714480777080411  0.45530007499218766  0.257126655411831  1.0000
  C   C10       1.0  0.9285525975971823  0.5446995772816479  0.7571264432046831  1.0000
  C   C11       1.0  0.4285515254910733  0.5447001512064558  0.7428728072684834  1.0000
  C   C12       1.0  0.07144663523718013  0.45529937436619144  0.24287301947579457  1.0000
  C   C13       1.0  0.48891934002372756  0.37108731883676427  0.19629502805458535  1.0000
  C   C14       1.0  0.011081334754472072  0.6289071681562249  0.6962949610679772  1.0000
  C   C15       1.0  0.5110813628558333  0.6289078043698239  0.8037044346258851  1.0000
  C   C16       1.0  0.988920108855318  0.3710905041523489  0.3037039736375746  1.0000
  C   C17       1.0  0.37536922825373154  0.20499548083630253  0.201612821520385  1.0000
  C   C18       1.0  0.12463475425937533  0.7950015428421863  0.7016126878521616  1.0000
  C   C19       1.0  0.6246331355596341  0.7950009145262982  0.7983871691342798  1.0000
  C   C20       1.0  0.8753653987799696  0.2049961318604332  0.2983867748282307  1.0000
  C   C21       1.0  0.34570744502872236  0.1237425695969421  0.2666904536134425  1.0000
  C   C22       1.0  0.15429286317107235  0.8762556424753853  0.7666892411322335  1.0000
  C   C23       1.0  0.654289577028095  0.8762576613890258  0.7333111209657373  1.0000
  C   C24       1.0  0.8457072898675619  0.12374203222685756  0.233310749522758  1.0000
  C   C25       1.0  0.41103004492951806  0.11052331377250368  0.39530294180882913  1.0000
  C   C26       1.0  0.0889723345116735  0.8894874617349868  0.8952991121701714  1.0000
  C   C27       1.0  0.5889717804525674  0.8894845597279469  0.6047007446672765  1.0000
  C   C28       1.0  0.9110285706738496  0.11052168871523091  0.1046982386108724  1.0000
  C   C29       1.0  0.5210537811270229  0.4574633781069365  0.12593448132508908  1.0000
  C   C30       1.0  0.9789490832854285  0.5425339084460817  0.6259337224622213  1.0000
  C   C31       1.0  0.4789485826870462  0.5425330172560406  0.8740649813549767  1.0000
  C   C32       1.0  0.02105402125886972  0.45746503601888117  0.37406521224292527  1.0000
  C   C33       1.0  0.07252934774845701  0.06058806388887919  0.5231958793649625  1.0000
  C   C34       1.0  0.4274697672262704  0.939413051318226  0.023195359798784  1.0000
  C   C35       1.0  0.9274698850844982  0.9394108877582068  0.4768046392646994  1.0000
  C   C36       1.0  0.5725318672735256  0.06058972158837149  0.9768030469317707  1.0000
  O   O1        1.0  0.5193776091392123  0.17165100179997952  0.44555025924594815  1.0000
  O   O2        1.0  0.9806199956337311  0.8283573116538389  0.9455457628237908  1.0000
  O   O3        1.0  0.4806231051499879  0.8283530480488108  0.5544523712814565  1.0000
  O   O4        1.0  0.019378698777060794  0.17165311813602802  0.0544515879575727  1.0000
  O   O5        1.0  0.28918485267062977  0.9704867435868393  0.39939576199247984  1.0000
  O   O6        1.0  0.21081732500141473  0.029518925451853292  0.8993930660640074  1.0000
  O   O7        1.0  0.7108171521904226  0.029517303868672698  0.6006052846108928  1.0000
  O   O8        1.0  0.7891891014118996  0.9704825633258805  0.10060586864032929  1.0000
  O   O9        1.0  0.6413595415682494  0.5989407911070402  0.12141287404626408  1.0000
  O   O10       1.0  0.8586442550671123  0.40105522498605223  0.6214121808700596  1.0000
  O   O11       1.0  0.35864208151770083  0.4010530551550815  0.87858553268493  1.0000
  O   O12       1.0  0.14136014004833444  0.5989437170852482  0.3785856978856614  1.0000
  O   O13       1.0  0.4269768085052092  0.385655877298447  0.0735161304303986  1.0000
  O   O14       1.0  0.07302106162953954  0.6143413420822411  0.5735149862460104  1.0000
  O   O15       1.0  0.5730238943743516  0.6143392459081409  0.9264833322500721  1.0000
  O   O16       1.0  0.9269776213645999  0.3856601610616366  0.426484476434382  1.0000
  O   O17       1.0  0.0509299450857341  0.2057973905782475  0.5366412740407966  1.0000
  O   O18       1.0  0.4490704247214197  0.7942037029492893  0.0366412951928936  1.0000
  O   O19       1.0  0.9490689173831582  0.7942002865184108  0.46335871661443656  1.0000
  O   O20       1.0  0.5509325003460148  0.205799067561756  0.9633586954612028  1.0000
  O   O21       1.0  0.20236180318533312  0.005889407176773899  0.5434943701302472  1.0000
  O   O22       1.0  0.2976418702759106  0.9941142208341062  0.0434944196005773  1.0000
  O   O23       1.0  0.7976374296476224  0.9941095444703121  0.45650614849942167  1.0000
  O   O24       1.0  0.7023643766640504  0.0058910939916004  0.9565029311797345  1.0000
  O   O25       1.0  0.4936403233472221  0.25417593934678  0.5887184893371752  1.0000
  O   O26       1.0  0.006358617473587507  0.745825081880582  0.0887186842908534  1.0000
  O   O27       1.0  0.5063613111511742  0.7458268335590644  0.4112809733425706  1.0000
  O   O28       1.0  0.9936415355643504  0.2541725928212771  0.9112818343387232  1.0000
  O   O29       1.0  0.6875155765417418  0.5165599534163761  0.5005651556066935  1.0000
  O   O30       1.0  0.8124848604738446  0.4834413437888187  0.0005658009021089998  1.0000
  O   O31       1.0  0.31248826872927543  0.48344154014868923  0.4994358909965157  1.0000
  O   O32       1.0  0.1875151130886366  0.5165601569598763  0.999434717727233  1.0000
