data_image0
_chemical_formula_structural       Ca4H44C22N4O24
_chemical_formula_sum              "Ca4 H44 C22 N4 O24"
_cell_length_a       8.552169958574195
_cell_length_b       10.48987100705159
_cell_length_c       11.604270354468738
_cell_angle_alpha    102.59963287928335
_cell_angle_beta     112.32198153483193
_cell_angle_gamma    105.91668120874074

_space_group_name_H-M_alt    "P 1"
_space_group_IT_number       1

loop_
  _space_group_symop_operation_xyz
  'x, y, z'

loop_
  _atom_site_type_symbol
  _atom_site_label
  _atom_site_symmetry_multiplicity
  _atom_site_fract_x
  _atom_site_fract_y
  _atom_site_fract_z
  _atom_site_occupancy
  Ca  Ca1       1.0  0.5376565670751389  0.4187034028921131  0.8325837901664814  1.0000
  Ca  Ca2       1.0  0.4623386206403379  0.5812972806773187  0.16741854120986943  1.0000
  Ca  Ca3       1.0  0.6225594942052125  0.8858459886448667  0.9449809616470262  1.0000
  Ca  Ca4       1.0  0.3774321962185568  0.11415331815729958  0.05501506182685746  1.0000
  H   H1        1.0  0.7932587661659553  0.5809845181392388  0.12332326769053735  1.0000
  H   H2        1.0  0.20672619873868567  0.41900819017403984  0.8766689676025267  1.0000
  H   H3        1.0  0.6888259995122821  0.4274624854295722  0.11996471469416992  1.0000
  H   H4        1.0  0.3111633101791824  0.5725314862855342  0.880028838833127  1.0000
  H   H5        1.0  0.8122591077317195  0.39055422417555247  0.5532305376285793  1.0000
  H   H6        1.0  0.1877577598432864  0.6094633273909335  0.44678642552196385  1.0000
  H   H7        1.0  0.5971446305618499  0.4024249506380498  0.4901493584245885  1.0000
  H   H8        1.0  0.402859827132005  0.5975908121445527  0.509860734052559  1.0000
  H   H9        1.0  0.6718780875301603  0.18094697686587577  0.6133732757690141  1.0000
  H   H10       1.0  0.3281327667484675  0.8190624775157501  0.38662339249868444  1.0000
  H   H11       1.0  0.5905363902675018  0.16161911988399413  0.4455226958943968  1.0000
  H   H12       1.0  0.40949111383524434  0.8384025824800715  0.5544795721113901  1.0000
  H   H13       1.0  0.326708552084682  0.2269962781116419  0.45425771892155353  1.0000
  H   H14       1.0  0.6733003082043965  0.7730088720330953  0.5457359086754111  1.0000
  H   H15       1.0  0.3142373801083025  0.0550408699135829  0.4419431213217068  1.0000
  H   H16       1.0  0.6857986958018993  0.9449586763862777  0.5580639555448457  1.0000
  H   H17       1.0  0.6528745150032619  0.6006732221542989  0.5926986644644076  1.0000
  H   H18       1.0  0.34714407888969834  0.3993392871555271  0.40731949222033853  1.0000
  H   H19       1.0  0.8909480601558853  0.6740955576841612  0.6967725453094787  1.0000
  H   H20       1.0  0.1090542388345028  0.32590834481404574  0.3032235325612192  1.0000
  H   H21       1.0  0.5032645382191986  0.057619050800269585  0.6787272725267643  1.0000
  H   H22       1.0  0.4967497691888169  0.9423825242731706  0.3212765182905101  1.0000
  H   H23       1.0  0.26239097073386825  0.9653203251187391  0.6094992238837024  1.0000
  H   H24       1.0  0.7376281117848293  0.0346707880136634  0.3904925383594603  1.0000
  H   H25       1.0  0.1291064602624843  0.16761712557298128  0.6626205738473703  1.0000
  H   H26       1.0  0.8709088711144585  0.8323817463101474  0.33736051680136103  1.0000
  H   H27       1.0  0.07035786767106339  0.09111581042323989  0.4912243252152636  1.0000
  H   H28       1.0  0.9296432264352744  0.9088735382438528  0.5087695439938004  1.0000
  H   H29       1.0  0.9682348181035464  0.5792056823815271  0.8894363609141395  1.0000
  H   H30       1.0  0.031760637283518474  0.4208043476814535  0.11056781759873494  1.0000
  H   H31       1.0  0.016266792919530784  0.5044834611831917  0.7601913221860174  1.0000
  H   H32       1.0  0.9837418163926441  0.4955242486470579  0.23981912865004767  1.0000
  H   H33       1.0  0.30323698428919943  0.5943934451976246  0.7046264329834387  1.0000
  H   H34       1.0  0.6967505701362454  0.40560160326231903  0.29537120558889274  1.0000
  H   H35       1.0  0.22465810808385805  0.7145006090483788  0.7134101316792042  1.0000
  H   H36       1.0  0.7753357101213821  0.2854977717057777  0.2865862430557086  1.0000
  H   H37       1.0  0.04510908265947928  0.019831772155846694  0.16537316961075282  1.0000
  H   H38       1.0  0.9548973983777386  0.9801746585172706  0.8346321944831205  1.0000
  H   H39       1.0  0.9634967943577946  0.8519729600958211  0.1387004058867588  1.0000
  H   H40       1.0  0.03649627980349378  0.14802952967496444  0.8612965671983517  1.0000
  H   H41       1.0  0.7964112769455054  0.19216209190716424  0.9480779113851768  1.0000
  H   H42       1.0  0.20359056129252195  0.8078429548066522  0.05192258542961525  1.0000
  H   H43       1.0  0.9293210101046724  0.11388950083659917  0.9811232349427998  1.0000
  H   H44       1.0  0.07068036738098714  0.8861166900928193  0.018881680816079258  1.0000
  C   C1        1.0  0.6881159590647811  0.3740579900177252  0.5668618539856213  1.0000
  C   C2        1.0  0.3118812814356032  0.6259395321591865  0.4331352059093732  1.0000
  C   C3        1.0  0.5913541854222045  0.2166244634667293  0.5378466459158205  1.0000
  C   C4        1.0  0.40864580783245685  0.783376339288928  0.462152584750669  1.0000
  C   C5        1.0  0.3910430910405864  0.16796928041902953  0.5100121943386428  1.0000
  C   C6        1.0  0.6089556969242763  0.832034570363717  0.48998731814096896  1.0000
  C   C7        1.0  0.757883914040519  0.6156032510715617  0.6913197208723574  1.0000
  C   C8        1.0  0.24212375805920058  0.38439925142112225  0.3086903684385974  1.0000
  C   C9        1.0  0.7277202341090144  0.7099994316985059  0.792411435159977  1.0000
  C   C10       1.0  0.27226946241293587  0.29001537793011767  0.207588773599106  1.0000
  C   C11       1.0  0.37808954156642466  0.06940893139571358  0.6758848207618727  1.0000
  C   C12       1.0  0.6219144097323124  0.930592103911607  0.32411629886298243  1.0000
  C   C13       1.0  0.40337758196257306  0.09522767285428557  0.8164497824998379  1.0000
  C   C14       1.0  0.5966051659367223  0.9047628460091415  0.1835414858200224  1.0000
  C   C15       1.0  0.17020591855560238  0.18114077230505635  0.5853376255573367  1.0000
  C   C16       1.0  0.829796186279324  0.8188494034286787  0.41464802147572033  1.0000
  C   C17       1.0  0.15456797932441896  0.3186235454496894  0.5662723163742954  1.0000
  C   C18       1.0  0.8454418954656118  0.6813604592761493  0.4337365209841409  1.0000
  C   C19       1.0  0.8974823447210195  0.3562459561901647  0.8381748475603532  1.0000
  C   C20       1.0  0.10250573073258097  0.643747098040201  0.1618242663593108  1.0000
  C   C21       1.0  0.9154170886942623  0.4866952612682596  0.7985783993223523  1.0000
  C   C22       1.0  0.08457848625743479  0.5133086583564932  0.20142809681102147  1.0000
  N   N1        1.0  0.7377127157286979  0.4749073300332185  0.6992298259125251  1.0000
  N   N2        1.0  0.2622833650369145  0.5250893047983212  0.3007736816360521  1.0000
  N   N3        1.0  0.35782607849375125  0.18482539765071235  0.6276248959287403  1.0000
  N   N4        1.0  0.6421704032419058  0.8151731481843354  0.3723730338654932  1.0000
  O   O1        1.0  0.6776869550673223  0.6629439894481732  0.8707043599301302  1.0000
  O   O2        1.0  0.3223073258641946  0.3370620679109564  0.12930653778536086  1.0000
  O   O3        1.0  0.7462979653793764  0.8345551032219942  0.7914254780412621  1.0000
  O   O4        1.0  0.25370446987034256  0.16545459501703869  0.20859158782556628  1.0000
  O   O5        1.0  0.41771808649979636  0.2139318508049185  0.8862726164417867  1.0000
  O   O6        1.0  0.5822709261662594  0.7860664107630126  0.11372685900298753  1.0000
  O   O7        1.0  0.41010720558639246  0.9947413757691025  0.8605061021178745  1.0000
  O   O8        1.0  0.5898673125046584  0.005241061664769104  0.13946863982710062  1.0000
  O   O9        1.0  0.3001454336238608  0.43357818056663416  0.645931657329939  1.0000
  O   O10       1.0  0.6998473282100334  0.5664035014299954  0.354059547784594  1.0000
  O   O11       1.0  0.005431044944089094  0.30982070057958566  0.48016118979771977  1.0000
  O   O12       1.0  0.9945505573599929  0.6901500040284674  0.5198242931895863  1.0000
  O   O13       1.0  0.7722367395424286  0.31599680014790005  0.8720889157256555  1.0000
  O   O14       1.0  0.22775240740903505  0.6839984363402748  0.1279126057905842  1.0000
  O   O15       1.0  0.009593465828935223  0.29786660521082803  0.8378817683429676  1.0000
  O   O16       1.0  0.9903858911029457  0.702119956704045  0.1621199876874754  1.0000
  O   O17       1.0  0.6689430053232853  0.5005689960521378  0.0821958631914086  1.0000
  O   O18       1.0  0.331042049792174  0.4994312381692722  0.9178064587761628  1.0000
  O   O19       1.0  0.32120816186036893  0.6875225865561488  0.7663792468829698  1.0000
  O   O20       1.0  0.6787907001141064  0.31247908916081707  0.2336164173766876  1.0000
  O   O21       1.0  0.9359214443449914  0.9293978117489983  0.10970079143132239  1.0000
  O   O22       1.0  0.06408223936988829  0.07061368412811218  0.890305707012935  1.0000
  O   O23       1.0  0.825792538482723  0.12542366369238775  0.994008763658293  1.0000
  O   O24       1.0  0.1742045682257257  0.8745790887694226  0.005990985646405966  1.0000
