data_image0
_chemical_formula_structural       Hg4H12C16I8Br4N8
_chemical_formula_sum              "Hg4 H12 C16 I8 Br4 N8"
_cell_length_a       4.434198868549844
_cell_length_b       14.071062207318572
_cell_length_c       15.74978322804998
_cell_angle_alpha    89.99918372397428
_cell_angle_beta     90.0010368279501
_cell_angle_gamma    93.08395681672852

_space_group_name_H-M_alt    "P 1"
_space_group_IT_number       1

loop_
  _space_group_symop_operation_xyz
  'x, y, z'

loop_
  _atom_site_type_symbol
  _atom_site_label
  _atom_site_symmetry_multiplicity
  _atom_site_fract_x
  _atom_site_fract_y
  _atom_site_fract_z
  _atom_site_occupancy
  Hg  Hg1       1.0  0.4927278183569328  0.9680128918423492  0.7626975159925776  1.0000
  Hg  Hg2       1.0  0.5072619543585687  0.5319791831597698  0.262692842696893  1.0000
  Hg  Hg3       1.0  0.5072914310955027  0.03197607493866881  0.23730968193831356  1.0000
  Hg  Hg4       1.0  0.49272683791313193  0.46801752885193787  0.7373067359580858  1.0000
  H   H1        1.0  0.2678314784417707  0.179492038166579  0.6763941969555061  1.0000
  H   H2        1.0  0.73215226397663  0.32050949153811814  0.17639451230122205  1.0000
  H   H3        1.0  0.7321532124040786  0.8205075086048624  0.323614905611926  1.0000
  H   H4        1.0  0.2678425801215313  0.6794979076348683  0.8236063361582848  1.0000
  H   H5        1.0  0.7164349144162898  0.2245519339131263  0.43374403118724547  1.0000
  H   H6        1.0  0.28357707377628577  0.2754472786305229  0.9337406509900743  1.0000
  H   H7        1.0  0.28355931208224666  0.7754355440508649  0.5662574523284504  1.0000
  H   H8        1.0  0.7164216668101913  0.7245558623398763  0.0662608324356455  1.0000
  H   H9        1.0  0.8492490693089608  0.9837268610119809  0.5786278056947864  1.0000
  H   H10       1.0  0.15072707512885586  0.5162721749557518  0.07861145417294317  1.0000
  H   H11       1.0  0.15072803209596228  0.0162669744154016  0.4213825667498482  1.0000
  H   H12       1.0  0.849255974827443  0.48373163609287684  0.9213805052699724  1.0000
  C   C1        1.0  0.4739348366414334  0.21594470681241518  0.5539578540555323  1.0000
  C   C2        1.0  0.5260820556794599  0.28406228225180297  0.053957008767454795  1.0000
  C   C3        1.0  0.5260756959201273  0.784046371262356  0.4460417246882286  1.0000
  C   C4        1.0  0.4739300181271844  0.7159551222038518  0.9460400300929804  1.0000
  C   C5        1.0  0.41869638161521294  0.15919195849369322  0.6254244666430961  1.0000
  C   C6        1.0  0.581309782546313  0.3408167886075333  0.12542315702922477  1.0000
  C   C7        1.0  0.581313639549485  0.840811212268349  0.3745738421628032  1.0000
  C   C8        1.0  0.418683831529755  0.6591977215050805  0.8745707071584049  1.0000
  C   C9        1.0  0.6675426310553617  0.18375240466178872  0.4915500508750127  1.0000
  C   C10       1.0  0.3324827619585875  0.3162502549446842  0.9915419367437364  1.0000
  C   C11       1.0  0.33243744492503413  0.8162464185087758  0.5084603215446748  1.0000
  C   C12       1.0  0.6675398722338315  0.6837465464001014  0.0084538324161443  1.0000
  C   C13       1.0  0.7384050823474125  0.0508490199977771  0.571277254620213  1.0000
  C   C14       1.0  0.26160319455854614  0.4491527098036557  0.07126538639789708  1.0000
  C   C15       1.0  0.26158514546281  0.949142004386907  0.4287369274504654  1.0000
  C   C16       1.0  0.7384076478862197  0.5508561543855991  0.928739271667048  1.0000
  I   I1        1.0  0.0919461660588112  0.07177608419586082  0.8473593587573729  1.0000
  I   I2        1.0  0.9080874775347709  0.4282415397336693  0.3473711996438381  1.0000
  I   I3        1.0  0.9080845707660287  0.9282299869094074  0.1526357754329979  1.0000
  I   I4        1.0  0.0919149540856239  0.5717559197075772  0.652625204392393  1.0000
  I   I5        1.0  0.7831620067792571  0.8147793142219515  0.7133778904348771  1.0000
  I   I6        1.0  0.21683419433229997  0.685217777262892  0.21337301538891035  1.0000
  I   I7        1.0  0.21683919345858269  0.1852096049575565  0.28662549787649977  1.0000
  I   I8        1.0  0.7831731602421144  0.31478254079001283  0.7866278331464115  1.0000
  Br  Br1       1.0  0.29525999542376974  0.3341711848381338  0.5430225424388126  1.0000
  Br  Br2       1.0  0.7047878734570714  0.16583675942974455  0.04302725761120739  1.0000
  Br  Br3       1.0  0.704753511547864  0.6658248810170307  0.4569719568450167  1.0000
  Br  Br4       1.0  0.2952642971569475  0.8341771938780127  0.9569551779926682  1.0000
  N   N1        1.0  0.5520766339312503  0.0763120671563584  0.6332870180003523  1.0000
  N   N2        1.0  0.44789722454048336  0.423687941241589  0.13327891722519775  1.0000
  N   N3        1.0  0.4478982111719533  0.9236817623545547  0.36671827500387616  1.0000
  N   N4        1.0  0.5520905429361065  0.5763173050874854  0.8667124072904855  1.0000
  N   N5        1.0  0.8002183019812037  0.1009595714283478  0.5006621409777168  1.0000
  N   N6        1.0  0.19977604368963137  0.3990410340510806  0.0006512546370273998  1.0000
  N   N7        1.0  0.1997625929884279  0.8990292941773532  0.49933997742622427  1.0000
  N   N8        1.0  0.800205365893987  0.6009670411584694  0.9993394349157112  1.0000
