data_image0
_chemical_formula_structural       Mn2P2H32C52N4O12
_chemical_formula_sum              "Mn2 P2 H32 C52 N4 O12"
_cell_length_a       9.63439579772163
_cell_length_b       11.019973520298
_cell_length_c       11.5825
_cell_angle_alpha    87.98674169253684
_cell_angle_beta     79.22570974359944
_cell_angle_gamma    67.68911486784366

_space_group_name_H-M_alt    "P 1"
_space_group_IT_number       1

loop_
  _space_group_symop_operation_xyz
  'x, y, z'

loop_
  _atom_site_type_symbol
  _atom_site_label
  _atom_site_symmetry_multiplicity
  _atom_site_fract_x
  _atom_site_fract_y
  _atom_site_fract_z
  _atom_site_occupancy
  Mn  Mn1       1.0  0.0645708071695381  0.3010406583355305  0.35451148596089155  1.0000
  Mn  Mn2       1.0  0.9354300942674811  0.6989620416577225  0.6454892333297054  1.0000
  P   P1        1.0  0.17340493478565122  0.3547460322123044  0.5926225860262663  1.0000
  P   P2        1.0  0.8265878167389219  0.645248814682958  0.40737793630525937  1.0000
  H   H1        1.0  0.19576227906768653  0.4630697026071431  0.804943473408791  1.0000
  H   H2        1.0  0.8042431513437194  0.5369251442881193  0.19504558029132826  1.0000
  H   H3        1.0  0.14458265416526933  0.4154661858683326  0.016556402354815695  1.0000
  H   H4        1.0  0.8554273794893065  0.5845325875759215  0.9834343944200513  1.0000
  H   H5        1.0  0.009420129628097086  0.106243581064831  0.9262519016428854  1.0000
  H   H6        1.0  0.9905835645830622  0.8937551923794302  0.07375283147661095  1.0000
  H   H7        1.0  0.06449603077437868  0.1495013897036088  0.7147550939175176  1.0000
  H   H8        1.0  0.935500758572026  0.8504914939171612  0.2852509097614444  1.0000
  H   H9        1.0  0.38480264857182794  0.1099502433159429  0.4709658182057908  1.0000
  H   H10       1.0  0.6152013483181166  0.8900406770303205  0.5290356768481743  1.0000
  H   H11       1.0  0.6676126322213208  0.02223801023221479  0.3953370202411222  1.0000
  H   H12       1.0  0.3323911190923354  0.977755855025805  0.6046644145671465  1.0000
  H   H13       1.0  0.689026705783327  0.37205818673049856  0.526369405905264  1.0000
  H   H14       1.0  0.3109679133127656  0.6279396050765058  0.4736264107323577  1.0000
  H   H15       1.0  0.40781600821619435  0.4591117412203545  0.6061816351014144  1.0000
  H   H16       1.0  0.5921764977320977  0.540886050586657  0.3938127833841563  1.0000
  H   H17       1.0  0.11670969469935248  0.5656871156752458  0.3636010225781945  1.0000
  H   H18       1.0  0.8832873573896123  0.43431951086700576  0.6364053442650714  1.0000
  H   H19       1.0  0.29527961753264986  0.6566623109736796  0.24575296699813984  1.0000
  H   H20       1.0  0.7047138878870458  0.34334038901957337  0.7542428587602857  1.0000
  H   H21       1.0  0.5334001435341591  0.503468983577683  0.11449616996194577  1.0000
  H   H22       1.0  0.46658783343974625  0.49653666132731183  0.885498690285047  1.0000
  H   H23       1.0  0.6964587387490013  0.2702810551472936  0.03859012413190038  1.0000
  H   H24       1.0  0.3035317854227627  0.7297236081204588  0.9614035094695056  1.0000
  H   H25       1.0  0.7327638909824827  0.0364275766622768  0.031005950981388315  1.0000
  H   H26       1.0  0.26723023696105486  0.9635761049682259  0.968994062022169  1.0000
  H   H27       1.0  0.6377507777199798  0.8553280206415366  0.10596689247738313  1.0000
  H   H28       1.0  0.3622396150805045  0.14466977116546786  0.8940425319139821  1.0000
  H   H29       1.0  0.43396494952016706  0.7944792725059243  0.2295410158794908  1.0000
  H   H30       1.0  0.566021913777334  0.2055312805853191  0.770478891260808  1.0000
  H   H31       1.0  0.1945189957403243  0.9746322853004159  0.33651894402069626  1.0000
  H   H32       1.0  0.8054720367502883  0.0253831759770691  0.6634975606488072  1.0000
  C   C1        1.0  0.13553408401794798  0.30899879151080256  0.7448840341918627  1.0000
  C   C2        1.0  0.8644703469220473  0.6909911471982184  0.25511397269299624  1.0000
  C   C3        1.0  0.15829650818299973  0.38274036327093336  0.8311007593379431  1.0000
  C   C4        1.0  0.8417091678046803  0.617251538712587  0.1688961249510612  1.0000
  C   C5        1.0  0.12744137140573036  0.35765756829196954  0.9501150028118985  1.0000
  C   C6        1.0  0.8725657381034183  0.6423382602405424  0.04988239069524519  1.0000
  C   C7        1.0  0.07236753142517931  0.2586427639266162  0.9859780571199934  1.0000
  C   C8        1.0  0.9276429362794615  0.741355027880388  0.014016158457486957  1.0000
  C   C9        1.0  0.04976443307205608  0.1849924844306159  0.8996532121315115  1.0000
  C   C10       1.0  0.9502405632892846  0.8150033441018962  0.1003488268238399  1.0000
  C   C11       1.0  0.08146707171390942  0.2091741364152711  0.780106481512128  1.0000
  C   C12       1.0  0.9185356230258536  0.7908197288427488  0.21989684433451373  1.0000
  C   C13       1.0  0.04791280655914679  0.2225617052131383  0.1138902369933206  1.0000
  C   C14       1.0  0.9521102657635367  0.7774243069468837  0.8860963687168352  1.0000
  C   C15       1.0  0.37860739249046566  0.289089224832523  0.5442985319047581  1.0000
  C   C16       1.0  0.6213966043994718  0.7109016955137477  0.45569605617748005  1.0000
  C   C17       1.0  0.4522571145252741  0.1658898235707724  0.4852696453505772  1.0000
  C   C18       1.0  0.5477466938908864  0.8340991335009987  0.5147284911464709  1.0000
  C   C19       1.0  0.6091442796140143  0.1170582786338343  0.442701253694139  1.0000
  C   C20       1.0  0.3908579810756764  0.8829365682614281  0.5572977899784207  1.0000
  C   C21       1.0  0.6945064181620566  0.19123275242064605  0.4581704396494147  1.0000
  C   C22       1.0  0.30549454037745954  0.8087650393863584  0.5418261179584932  1.0000
  C   C23       1.0  0.6213006396811596  0.3143074857518116  0.5176144952439046  1.0000
  C   C24       1.0  0.3786986397606072  0.6856893244179502  0.48237976615723716  1.0000
  C   C25       1.0  0.4647606351240655  0.3625785158197344  0.5615324868249161  1.0000
  C   C26       1.0  0.5352382102676358  0.6374192759872699  0.4384635360024092  1.0000
  C   C27       1.0  0.8637692448534937  0.1395122490607648  0.409648163654829  1.0000
  C   C28       1.0  0.13623084558589935  0.8604875060207461  0.5903475999481174  1.0000
  C   C29       1.0  0.21586985997295474  0.5025089423484487  0.30191360534652734  1.0000
  C   C30       1.0  0.7841306074139994  0.4974947392820539  0.698087148627316  1.0000
  C   C31       1.0  0.3200338029582994  0.5521022377903861  0.23717067805219472  1.0000
  C   C32       1.0  0.6799670413762158  0.44790537038910827  0.7628255692064343  1.0000
  C   C33       1.0  0.45010829674501446  0.46768830586231047  0.16524649690836676  1.0000
  C   C34       1.0  0.5498827928480948  0.532322247228933  0.8347520321349934  1.0000
  C   C35       1.0  0.47680882007861675  0.3326209102636923  0.158248074605531  1.0000
  C   C36       1.0  0.5231869869626706  0.66738375300406  0.8417490543760026  1.0000
  C   C37       1.0  0.6101082304019131  0.237396207315598  0.08842076520271289  1.0000
  C   C38       1.0  0.38988633159168967  0.762606492677655  0.911574032888808  1.0000
  C   C39       1.0  0.6306654552151159  0.1077013123791559  0.0847674353396286  1.0000
  C   C40       1.0  0.36932954082854513  0.8923004059768473  0.9152316449259673  1.0000
  C   C41       1.0  0.5193334848507263  0.0631408711113437  0.1517164166860496  1.0000
  C   C42       1.0  0.48066207661427285  0.9368667370681507  0.8482866956500387  1.0000
  C   C43       1.0  0.5355423623755299  0.9301336871792714  0.1557344832901109  1.0000
  C   C44       1.0  0.464447293696118  0.0698729393629804  0.8442738969927036  1.0000
  C   C45       1.0  0.42218817117249324  0.8966294262436421  0.22337950170863513  1.0000
  C   C46       1.0  0.5777991261750657  0.1033801452103518  0.7766360538910888  1.0000
  C   C47       1.0  0.2904216506930269  0.995285933013214  0.2861427564099088  1.0000
  C   C48       1.0  0.7095696273738668  0.0047265833525216  0.7138694916479622  1.0000
  C   C49       1.0  0.38511722472666327  0.15511046494272307  0.2203947067518328  1.0000
  C   C50       1.0  0.6148792048384594  0.844895179962279  0.7796083362177628  1.0000
  C   C51       1.0  0.3636745351095953  0.29127631262264225  0.22403418897486196  1.0000
  C   C52       1.0  0.6363261778536327  0.7087244240961111  0.7759666252446851  1.0000
  N   N1        1.0  0.23494765477062177  0.3767023125541371  0.2929547920193656  1.0000
  N   N2        1.0  0.765051567568648  0.6232994058018662  0.7070479479218007  1.0000
  N   N3        1.0  0.2743705759109575  0.12055977869997038  0.2852492028659129  1.0000
  N   N4        1.0  0.725625796551661  0.8794507743912658  0.7147588651578333  1.0000
  O   O1        1.0  0.1075977670200459  0.2854296811693402  0.5166379302016608  1.0000
  O   O2        1.0  0.8924030601481833  0.7145612391769305  0.48335887750982925  1.0000
  O   O3        1.0  0.1147405926995404  0.5031931435107991  0.5927691974335758  1.0000
  O   O4        1.0  0.8852599888924078  0.4968007217472135  0.4072266866607563  1.0000
  O   O5        1.0  0.039171799431905206  0.31315798853357524  0.1896726349584341  1.0000
  O   O6        1.0  0.9608349502959609  0.6868506012831688  0.810330431553993  1.0000
  O   O7        1.0  0.041832577042178805  0.11415066910316089  0.1376459978923705  1.0000
  O   O8        1.0  0.9582103246083805  0.8858382879686032  0.862358146873902  1.0000
  O   O9        1.0  0.9133743493121929  0.2354133000732119  0.4027784159561207  1.0000
  O   O10       1.0  0.0866185335836676  0.7645884182827912  0.5972089056998371  1.0000
  O   O11       1.0  0.9383619911455343  0.022476548083645295  0.38289170038975584  1.0000
  O   O12       1.0  0.06163823066513878  0.9775300784585994  0.6171133101957267  1.0000
