data_image0
_chemical_formula_structural       Cu4H36C56N12
_chemical_formula_sum              "Cu4 H36 C56 N12"
_cell_length_a       4.7493653162608815
_cell_length_b       11.919196824804535
_cell_length_c       21.120253062788365
_cell_angle_alpha    85.02476570067499
_cell_angle_beta     83.57705321934931
_cell_angle_gamma    78.56209399539648

_space_group_name_H-M_alt    "P 1"
_space_group_IT_number       1

loop_
  _space_group_symop_operation_xyz
  'x, y, z'

loop_
  _atom_site_type_symbol
  _atom_site_label
  _atom_site_symmetry_multiplicity
  _atom_site_fract_x
  _atom_site_fract_y
  _atom_site_fract_z
  _atom_site_occupancy
  Cu  Cu1       1.0  0.6580326185286444  0.903741170869338  0.8673206088156318  1.0000
  Cu  Cu2       1.0  0.4296195264579695  0.5963286405212853  0.6328730529266905  1.0000
  Cu  Cu3       1.0  0.34195385147364027  0.09626243012371559  0.13267941973573727  1.0000
  Cu  Cu4       1.0  0.5703909585426317  0.4036689588778513  0.36712725086419334  1.0000
  H   H1        1.0  0.8860681254925424  0.051625803003204906  0.7561244502454727  1.0000
  H   H2        1.0  0.6927403115889917  0.4480611822509104  0.7438735283995043  1.0000
  H   H3        1.0  0.11394283234700704  0.9483717999382221  0.243875380029543  1.0000
  H   H4        1.0  0.3072619126922332  0.551940706484764  0.2561264646721284  1.0000
  H   H5        1.0  0.8456456040342745  0.09096292311647144  0.639478955204069  1.0000
  H   H6        1.0  0.5755396339804691  0.40886199852064914  0.8605262002807023  1.0000
  H   H7        1.0  0.15436919076567085  0.9090329711771686  0.3605200415080176  1.0000
  H   H8        1.0  0.4244662475143033  0.5911398866502892  0.1394743744959044  1.0000
  H   H9        1.0  0.29325204967535234  0.8403943771941654  0.6537948290853919  1.0000
  H   H10       1.0  0.7890468193915228  0.6600399396316303  0.8462661317495088  1.0000
  H   H11       1.0  0.7067534790164985  0.15960493794855776  0.34620530714214226  1.0000
  H   H12       1.0  0.21095522514285392  0.3399636541870946  0.15373527659002656  1.0000
  H   H13       1.0  0.35528890202918717  0.8127635169893922  0.769567567034791  1.0000
  H   H14       1.0  0.9380227576920325  0.6872360273838961  0.7304430675270835  1.0000
  H   H15       1.0  0.644712083482041  0.18723665603634745  0.23043243131651536  1.0000
  H   H16       1.0  0.061977282141306544  0.3127641385572487  0.26955787785594504  1.0000
  H   H17       1.0  0.5314562780458371  0.8112666784804857  0.559502350471412  1.0000
  H   H18       1.0  0.9048383746052906  0.6889377943464792  0.9406294065328709  1.0000
  H   H19       1.0  0.46853845267583  0.18873263317603767  0.4404979887992083  1.0000
  H   H20       1.0  0.09516508844592411  0.31106581009913004  0.0593705812590883  1.0000
  H   H21       1.0  0.8295478509338847  0.2610323378127148  0.4895622735933499  1.0000
  H   H22       1.0  0.5779999639898961  0.23897295852064093  0.01060090209532661  1.0000
  H   H23       1.0  0.1704613349715132  0.7389669737652795  0.5104384443391581  1.0000
  H   H24       1.0  0.4219883382717455  0.7610255059470461  0.9893978299365925  1.0000
  H   H25       1.0  0.8017361075715146  0.4482404782099179  0.5351352257226195  1.0000
  H   H26       1.0  0.7837605581308228  0.05205812724489079  0.9647888793887984  1.0000
  H   H27       1.0  0.19827160010623177  0.5517579613383317  0.46486741596044817  1.0000
  H   H28       1.0  0.21621234326919142  0.9479403302167381  0.035210421012955434  1.0000
  H   H29       1.0  0.16294405098126674  0.3851062191089197  0.6759520195261643  1.0000
  H   H30       1.0  0.22346021830295387  0.11517983968923322  0.8237432406863263  1.0000
  H   H31       1.0  0.8370617117062557  0.6148896539646242  0.32404965599742036  1.0000
  H   H32       1.0  0.7765161654113723  0.88482720697138  0.1762545045803492  1.0000
  H   H33       1.0  0.1734938886785997  0.19140470969047393  0.6389330548406917  1.0000
  H   H34       1.0  0.002401359430500504  0.30853690341593415  0.8609988133104166  1.0000
  H   H35       1.0  0.826512113466585  0.80859031970288  0.3610667022120139  1.0000
  H   H36       1.0  0.9975855827963473  0.6914709904110763  0.13900064738405857  1.0000
  C   C1        1.0  0.754052826989451  0.0074536997949579  0.7315316560360613  1.0000
  C   C2        1.0  0.49252333412777477  0.49240566233540056  0.7684791277564712  1.0000
  C   C3        1.0  0.24595447363655173  0.992543906711198  0.26846759253398733  1.0000
  C   C4        1.0  0.5074763522882576  0.5075962228691964  0.2315212847364663  1.0000
  C   C5        1.0  0.7294547904981887  0.029561050743168903  0.6665322630316622  1.0000
  C   C6        1.0  0.42535239198983293  0.470398668889139  0.8334937311356327  1.0000
  C   C7        1.0  0.27055752614737805  0.9704357014222679  0.33346664989875296  1.0000
  C   C8        1.0  0.5746461750778452  0.5296032234112573  0.16650568023102608  1.0000
  C   C9        1.0  0.5579996412414165  0.9715963549620951  0.6359783166711565  1.0000
  C   C10       1.0  0.16620849306711727  0.5285983810887415  0.8640596775047483  1.0000
  C   C11       1.0  0.44200931128271054  0.028402109393425693  0.36402095630633363  1.0000
  C   C12       1.0  0.8337932583751594  0.4714035041046357  0.13594078908274548  1.0000
  C   C13       1.0  0.42631540048198296  0.8901130782132965  0.6741028697209116  1.0000
  C   C14       1.0  0.9914406612738419  0.6100903467860446  0.8259358293866867  1.0000
  C   C15       1.0  0.5736893622788202  0.10988452476178168  0.3258967982704419  1.0000
  C   C16       1.0  0.008561563007376092  0.3899115419496226  0.17406416368494596  1.0000
  C   C17       1.0  0.4621685398247807  0.8732357908639798  0.7388443544509967  1.0000
  C   C18       1.0  0.07462415166732955  0.6268008128819317  0.7611692452352654  1.0000
  C   C19       1.0  0.5378370485778916  0.12676438568161064  0.261155278573561  1.0000
  C   C20       1.0  0.9253713449853865  0.37320021094222966  0.23883156227153526  1.0000
  C   C21       1.0  0.5218139405231808  0.9908002657385564  0.5670469645541515  1.0000
  C   C22       1.0  0.0801668387116341  0.509314332569076  0.9329877135091633  1.0000
  C   C23       1.0  0.4781915881686701  0.009199049404166701  0.43295317167338243  1.0000
  C   C24       1.0  0.9198340267635744  0.49068840694258137  0.06701319690706951  1.0000
  C   C25       1.0  0.5093314530074694  0.8954844416551706  0.5336778441387507  1.0000
  C   C26       1.0  0.940103500565244  0.6046328765302885  0.9663900100521728  1.0000
  C   C27       1.0  0.49066835344459053  0.10451487706350089  0.4663216562892528  1.0000
  C   C28       1.0  0.05989783774890616  0.3953698665236656  0.03361042684819891  1.0000
  C   C29       1.0  0.5099465627824175  0.09848397969946628  0.532217131370963  1.0000
  C   C30       1.0  0.13967035019745594  0.4015033197476399  0.9677481744224747  1.0000
  C   C31       1.0  0.4900553684067009  0.901516200410853  0.4677819199486207  1.0000
  C   C32       1.0  0.8603293362185767  0.5984985654569569  0.032252238070455505  1.0000
  C   C33       1.0  0.5046966417767254  0.20823223566620894  0.560726840091135  1.0000
  C   C34       1.0  0.2722311567172469  0.29176908336771845  0.9392636900032086  1.0000
  C   C35       1.0  0.49531390293469735  0.7917662251357951  0.4392729604967655  1.0000
  C   C36       1.0  0.7277603890154295  0.7082345246874836  0.06073549970554382  1.0000
  C   C37       1.0  0.680757865881596  0.2833919906245369  0.5316643774476971  1.0000
  C   C38       1.0  0.49408000323880696  0.21664148462939886  0.968402284369894  1.0000
  C   C39       1.0  0.3192471302604932  0.7166064595730215  0.4683367354986813  1.0000
  C   C40       1.0  0.5059049349013875  0.7833586920283718  0.03159680770910002  1.0000
  C   C41       1.0  0.6648727355178466  0.3889008925020007  0.5566797701465659  1.0000
  C   C42       1.0  0.6091335690309522  0.1113509184144377  0.9432592374395553  1.0000
  C   C43       1.0  0.3351367440940436  0.6110958384096817  0.4433219838790094  1.0000
  C   C44       1.0  0.39084729876756086  0.8886501196686322  0.05673924324734973  1.0000
  C   C45       1.0  0.3122761006325665  0.3528104263339386  0.635551265459945  1.0000
  C   C46       1.0  0.29982859293269826  0.14743021954699026  0.8642386031347583  1.0000
  C   C47       1.0  0.6877317867920212  0.6471863081312533  0.3644499609552199  1.0000
  C   C48       1.0  0.700151861123302  0.8525759656883166  0.135759753524006  1.0000
  C   C49       1.0  0.3175620277595003  0.2452508044030138  0.6143686956085048  1.0000
  C   C50       1.0  0.17584511601591388  0.25479967309197343  0.8855409192063276  1.0000
  C   C51       1.0  0.6824451534448669  0.7547450792974074  0.3856315593674964  1.0000
  C   C52       1.0  0.82414188653614  0.7452047928462446  0.1144581326262042  1.0000
  C   C53       1.0  0.040953273708623734  0.8630092339744947  0.8847204223054346  1.0000
  C   C54       1.0  0.7893131509792612  0.6373079470522496  0.6154589859682176  1.0000
  C   C55       1.0  0.95903107094221  0.136997794918571  0.11527996101332857  1.0000
  C   C56       1.0  0.2107011655197439  0.3626853453101049  0.3845439420266601  1.0000
  N   N1        1.0  0.6210444044329081  0.9312893139941633  0.768108819682837  1.0000
  N   N2        1.0  0.32023268714389286  0.568587398873241  0.731901809042725  1.0000
  N   N3        1.0  0.37895788017352317  0.06870914685271151  0.23189076452683818  1.0000
  N   N4        1.0  0.6797616901604687  0.4314136320467198  0.26809799733779016  1.0000
  N   N5        1.0  0.4831465262200255  0.4244510548484469  0.6076360315104096  1.0000
  N   N6        1.0  0.5146391631471805  0.07597314414881846  0.8920938213863038  1.0000
  N   N7        1.0  0.5168633665199921  0.5755448182026582  0.39236575220228787  1.0000
  N   N8        1.0  0.48533674834258983  0.9240296096778376  0.10790449173725851  1.0000
  N   N9        1.0  0.2912388754940599  0.8541815649306769  0.8881522307898064  1.0000
  N   N10       1.0  0.03422634763362736  0.6461969941238975  0.6119288127267238  1.0000
  N   N11       1.0  0.7087492464063488  0.14582289391173478  0.11184782216899689  1.0000
  N   N12       1.0  0.9657863230436377  0.35379374948643516  0.3880707274348154  1.0000
