data_image0
_chemical_formula_structural       Cu4H16C24N16O12
_chemical_formula_sum              "Cu4 H16 C24 N16 O12"
_cell_length_a       6.85777242579836
_cell_length_b       8.640139784195213
_cell_length_c       14.953086926050197
_cell_angle_alpha    103.56064588432463
_cell_angle_beta     90.00910036168438
_cell_angle_gamma    113.42561669100802

_space_group_name_H-M_alt    "P 1"
_space_group_IT_number       1

loop_
  _space_group_symop_operation_xyz
  'x, y, z'

loop_
  _atom_site_type_symbol
  _atom_site_label
  _atom_site_symmetry_multiplicity
  _atom_site_fract_x
  _atom_site_fract_y
  _atom_site_fract_z
  _atom_site_occupancy
  Cu  Cu1       1.0  0.6091855782703488  0.5469124199165376  0.2689095539103903  1.0000
  Cu  Cu2       1.0  0.0621928149192073  0.4530072037215405  0.2310910554643257  1.0000
  Cu  Cu3       1.0  0.39081285357542567  0.45308469701850373  0.7310873972441527  1.0000
  Cu  Cu4       1.0  0.9378088575997622  0.5469963877919498  0.7689088205841585  1.0000
  H   H1        1.0  0.11231367548728599  0.6563674885266126  0.0007884576070367537  1.0000
  H   H2        1.0  0.45630108886231097  0.3438290650921659  0.4992752346599757  1.0000
  H   H3        1.0  0.887691379876415  0.3436282942553746  0.9992096421636204  1.0000
  H   H4        1.0  0.5436958765530804  0.6561680351725485  0.5007223828877727  1.0000
  H   H5        1.0  0.5311127851305599  0.9143350883934076  0.8323065842998716  1.0000
  H   H6        1.0  0.6169575426350349  0.08590326005687392  0.6677684512608764  1.0000
  H   H7        1.0  0.46889710610351887  0.08566452859964359  0.167695403530864  1.0000
  H   H8        1.0  0.3830306401189319  0.9140937724461865  0.3322318316037851  1.0000
  H   H9        1.0  0.8449767553524621  0.9023487325819913  0.9140628303323481  1.0000
  H   H10       1.0  0.9428018249505427  0.09798963063271063  0.5859934019286257  1.0000
  H   H11       1.0  0.15502368438841066  0.0976494797953933  0.085942970791578  1.0000
  H   H12       1.0  0.05719545623771442  0.902013926999949  0.4140078067783151  1.0000
  H   H13       1.0  0.7838877908571574  0.768232724639084  0.049546991537170015  1.0000
  H   H14       1.0  0.0159512080169648  0.2321774100489407  0.4505504538948201  1.0000
  H   H15       1.0  0.2161158950011881  0.23176031991438606  0.9504560702707677  1.0000
  H   H16       1.0  0.9840559532832953  0.7678313202693731  0.5494534952798276  1.0000
  C   C1        1.0  0.4442944119904624  0.7002663045101585  0.03518829251936492  1.0000
  C   C2        1.0  0.7444228933365478  0.300079327379244  0.46496118032555245  1.0000
  C   C3        1.0  0.5557059387858131  0.29973464555555307  0.9648125464393189  1.0000
  C   C4        1.0  0.2555612352247465  0.6999125184688141  0.5350370291044584  1.0000
  C   C5        1.0  0.27743785257007386  0.7077378095111156  0.9859741911867488  1.0000
  C   C6        1.0  0.5701207554015113  0.2926051741882176  0.5141833565595277  1.0000
  C   C7        1.0  0.7225642301306365  0.2922578592796157  0.014028573976233414  1.0000
  C   C8        1.0  0.42987019164420553  0.7073944680425656  0.4858172965652656  1.0000
  C   C9        1.0  0.517368472965302  0.8546310316922927  0.8896719476514434  1.0000
  C   C10       1.0  0.663011289449642  0.1456920209383057  0.6104289471950182  1.0000
  C   C11       1.0  0.4826377037302975  0.14536990440406328  0.1103295583402897  1.0000
  C   C12       1.0  0.33699003545469003  0.8543050486867473  0.3895700037789993  1.0000
  C   C13       1.0  0.6864628661755461  0.8478176688455862  0.9365066186353275  1.0000
  C   C14       1.0  0.8389306074763281  0.1525856036893245  0.563589042458325  1.0000
  C   C15       1.0  0.3135496446626006  0.15218718265264636  0.063495442938553  1.0000
  C   C16       1.0  0.16106405410786817  0.8474127194381468  0.43641209250547064  1.0000
  C   C17       1.0  0.6523298343167524  0.7715807538843861  0.01068255873335744  1.0000
  C   C18       1.0  0.8811346097422897  0.22886023404118563  0.4894270333627161  1.0000
  C   C19       1.0  0.3476727884489463  0.2284189087980693  0.9893174288939973  1.0000
  C   C20       1.0  0.11885697429344332  0.7711406805231179  0.5105751378705179  1.0000
  C   C21       1.0  0.3985458717909934  0.6183870293473461  0.11563456306635092  1.0000
  C   C22       1.0  0.7804200876992197  0.3818355064938573  0.38447570467193504  1.0000
  C   C23       1.0  0.6014543502184749  0.38161657775606983  0.8843646463329832  1.0000
  C   C24       1.0  0.2195828906415613  0.6181706942071586  0.6155245415087123  1.0000
  N   N1        1.0  0.31453365978558157  0.78564881904979  0.9145862500076447  1.0000
  N   N2        1.0  0.5291757101056972  0.21459301345106496  0.5855273873610257  1.0000
  N   N3        1.0  0.6854726377163871  0.2143494438787386  0.0854175520646123  1.0000
  N   N4        1.0  0.47082123938880466  0.7854040545534033  0.4144715632290854  1.0000
  N   N5        1.0  0.29890148750236983  0.39099762533731314  0.2639955420798827  1.0000
  N   N6        1.0  0.907789634387164  0.6087421241408748  0.2358853716602312  1.0000
  N   N7        1.0  0.7010953491462216  0.6090021319651128  0.7360004459085231  1.0000
  N   N8        1.0  0.09220909479443405  0.3912497593693658  0.7641115060071043  1.0000
  N   N9        1.0  0.25665984266554187  0.2710700307035411  0.3004923303907674  1.0000
  N   N10       1.0  0.9856843374441695  0.7287951447853375  0.19945979607296496  1.0000
  N   N11       1.0  0.7433418230094233  0.7289481183319992  0.6995009159694376  1.0000
  N   N12       1.0  0.014327850777100068  0.271217806867014  0.8005320446534439  1.0000
  N   N13       1.0  0.2203105409771524  0.15650710561616418  0.33443830497854066  1.0000
  N   N14       1.0  0.06409367416368653  0.8434181574247291  0.16559228412091193  1.0000
  N   N15       1.0  0.7796827909039051  0.8434885599334123  0.665564459416629  1.0000
  N   N16       1.0  0.9358966825382281  0.1565657356011059  0.8344101479778201  1.0000
  O   O1        1.0  0.5611338456736733  0.6382050229850693  0.1650478803274922  1.0000
  O   O2        1.0  0.922912831819012  0.36185843437476006  0.3349743203034307  1.0000
  O   O3        1.0  0.4388668581615248  0.36179080656670953  0.8349482194957218  1.0000
  O   O4        1.0  0.07709210525447928  0.6381516801075479  0.6650264810754578  1.0000
  O   O5        1.0  0.20214408705840003  0.5395773936861658  0.126181610093461  1.0000
  O   O6        1.0  0.6628926999052709  0.4605389176168657  0.37386441634940576  1.0000
  O   O7        1.0  0.7978556426487416  0.46042231630627134  0.8738163777144194  1.0000
  O   O8        1.0  0.33709810789704175  0.539451706989013  0.6261302760484639  1.0000
  O   O9        1.0  0.15726355065071124  0.7955758199226751  0.8698295402459734  1.0000
  O   O10       1.0  0.36187777116671066  0.2045192934652604  0.6302150751541333  1.0000
  O   O11       1.0  0.8427379453387969  0.20443033184777448  0.1301727053702422  1.0000
  O   O12       1.0  0.6381151425721612  0.7954842786769377  0.36978546664771983  1.0000
