data_image0
_chemical_formula_structural       Al2H10C20O10F2
_chemical_formula_sum              "Al2 H10 C20 O10 F2"
_cell_length_a       6.625344727521529
_cell_length_b       8.842012482345117
_cell_length_c       17.800126172326184
_cell_angle_alpha    79.01010039691798
_cell_angle_beta     78.89804184236243
_cell_angle_gamma    75.5845864331955

_space_group_name_H-M_alt    "P 1"
_space_group_IT_number       1

loop_
  _space_group_symop_operation_xyz
  'x, y, z'

loop_
  _atom_site_type_symbol
  _atom_site_label
  _atom_site_symmetry_multiplicity
  _atom_site_fract_x
  _atom_site_fract_y
  _atom_site_fract_z
  _atom_site_occupancy
  Al  Al1       1.0  0.504044442047686  0.4993034683746062  0.49762154370461775  1.0000
  Al  Al2       1.0  0.0038862154697057393  0.49643385782448485  0.49925316751215815  1.0000
  H   H1        1.0  0.2459082551945428  0.38888518999408456  0.5922602279359594  1.0000
  H   H2        1.0  0.7218083840646871  0.6877697374636824  0.44710102343181984  1.0000
  H   H3        1.0  0.6469817140644096  0.5734339723547633  0.262700783105707  1.0000
  H   H4        1.0  0.7168630223691537  0.5809820777128606  0.1190411045706128  1.0000
  H   H5        1.0  0.1698504438805485  0.3884596052534875  0.13312038035518725  1.0000
  H   H6        1.0  0.09726356326299881  0.3886984046159725  0.2761601762997117  1.0000
  H   H7        1.0  0.8215777397130353  0.6135931244706115  0.8663034240882862  1.0000
  H   H8        1.0  0.8979828848061614  0.610492618680425  0.7236659760908707  1.0000
  H   H9        1.0  0.3577720792011476  0.4141199266209129  0.7373220874966575  1.0000
  H   H10       1.0  0.2842852872497019  0.41001167937223226  0.880311800152732  1.0000
  C   C1        1.0  0.8380928718798942  0.2190173384401462  0.5008394801195876  1.0000
  C   C2        1.0  0.6858426821772597  0.50273018235594  0.6373968364820468  1.0000
  C   C3        1.0  0.16752870110422438  0.7816820934980768  0.49314084295465915  1.0000
  C   C4        1.0  0.3187097275901464  0.48784788352844544  0.362284399829356  1.0000
  C   C5        1.0  0.3669314019993381  0.48232507917391826  0.27753170005611577  1.0000
  C   C6        1.0  0.543471971461237  0.5341147177109279  0.2334239287659797  1.0000
  C   C7        1.0  0.5824468158133841  0.5376522112342099  0.15369070177466426  1.0000
  C   C8        1.0  0.4465148151414765  0.48689233187469944  0.11636194250657175  1.0000
  C   C9        1.0  0.2728504453530434  0.4302555784630541  0.16156916318698214  1.0000
  C   C10       1.0  0.2329691590267943  0.4295225199883389  0.24108415137685307  1.0000
  C   C11       1.0  0.4821838081960339  0.4946851647262918  0.03492738567562269  1.0000
  C   C12       1.0  0.5120548517418513  0.5034464250284144  0.9644866750559583  1.0000
  C   C13       1.0  0.5492832057115745  0.5100407909555927  0.8831309114234638  1.0000
  C   C14       1.0  0.721493406784475  0.568719738069298  0.8379268026967708  1.0000
  C   C15       1.0  0.7637805710880698  0.5673478948993279  0.7585702898113238  1.0000
  C   C16       1.0  0.6340549847560978  0.5103508922566818  0.7220003713085601  1.0000
  C   C17       1.0  0.4586769371993001  0.4570394613126112  0.7661670472545479  1.0000
  C   C18       1.0  0.41722461424434687  0.45541483997822507  0.8457487053450019  1.0000
  C   C19       1.0  0.9037730326336159  0.04669604295891365  0.4955083531115107  1.0000
  C   C20       1.0  0.10061252184285517  0.9542749531700708  0.4979505097265146  1.0000
  O   O1        1.0  0.6515896177266781  0.2851240201914819  0.4892628713128245  1.0000
  O   O2        1.0  0.8679954520216383  0.5223725113101095  0.603978357880173  1.0000
  O   O3        1.0  0.031220809151093914  0.7147385165820026  0.4804706715752331  1.0000
  O   O4        1.0  0.4568117403159277  0.5207608898605615  0.39366966696607614  1.0000
  O   O5        1.0  0.35703234364623887  0.7183949479200963  0.5023440330020745  1.0000
  O   O6        1.0  0.14063521435812726  0.46321972294704494  0.3973538841523591  1.0000
  O   O7        1.0  0.9725728896715534  0.2832352308998836  0.5167723281012327  1.0000
  O   O8        1.0  0.5464533843459307  0.474253337928765  0.6047235176433715  1.0000
  O   O9        1.0  0.2571698619264637  0.43062003674857147  0.5375909117153057  1.0000
  O   O10       1.0  0.7483196272459693  0.5739719276777038  0.4622405947569916  1.0000
  F   F1        1.0  0.7460799007962038  0.9838477962633977  0.4865775233389299  1.0000
  F   F2        1.0  0.25775725305019387  0.01778218118215596  0.5063823864366126  1.0000
