data_image0
_chemical_formula_structural       Cd2H52C52N8O12
_chemical_formula_sum              "Cd2 H52 C52 N8 O12"
_cell_length_a       8.381698995107726
_cell_length_b       10.529677186000956
_cell_length_c       14.623
_cell_angle_alpha    100.48978847199525
_cell_angle_beta     100.97884787640716
_cell_angle_gamma    95.4126958641092

_space_group_name_H-M_alt    "P 1"
_space_group_IT_number       1

loop_
  _space_group_symop_operation_xyz
  'x, y, z'

loop_
  _atom_site_type_symbol
  _atom_site_label
  _atom_site_symmetry_multiplicity
  _atom_site_fract_x
  _atom_site_fract_y
  _atom_site_fract_z
  _atom_site_occupancy
  Cd  Cd1       1.0  0.6638119130874502  0.8953354104851456  0.5451330507577978  1.0000
  Cd  Cd2       1.0  0.33618603785017603  0.1046689711313249  0.45486606904442795  1.0000
  H   H1        1.0  0.3352968717260865  0.6577151421093034  0.7663555085421194  1.0000
  H   H2        1.0  0.6647077155824023  0.3422853411851676  0.23364519234398534  1.0000
  H   H3        1.0  0.9612648364760901  0.1236343076634654  0.3084637758386322  1.0000
  H   H4        1.0  0.03874096615123079  0.8763661756310056  0.6915370577132833  1.0000
  H   H5        1.0  0.7832603069704404  0.0883632647839789  0.7468944373134719  1.0000
  H   H6        1.0  0.21674654709018168  0.9116362439299904  0.2531063832494027  1.0000
  H   H7        1.0  0.7691869968319979  0.0955186348157895  0.9198187589617532  1.0000
  H   H8        1.0  0.2308192016864652  0.9044769755761806  0.08017942741912523  1.0000
  H   H9        1.0  0.5893379913437401  0.9232298535592988  0.9594190702070834  1.0000
  H   H10       1.0  0.4106718531312339  0.0767657568326712  0.04058019802543101  1.0000
  H   H11       1.0  0.45091847186353123  0.7520428395539582  0.6579627314760899  1.0000
  H   H12       1.0  0.549084012578362  0.247959592901509  0.34203594382547925  1.0000
  H   H13       1.0  0.3312115261163129  0.47455345749911254  0.8557955111740297  1.0000
  H   H14       1.0  0.6687730563141228  0.5254509241173578  0.14420078159587746  1.0000
  H   H15       1.0  0.16159118345612464  0.5592152655436777  0.8575038164431064  1.0000
  H   H16       1.0  0.8384023297427136  0.4407988618777949  0.1424981481411365  1.0000
  H   H17       1.0  0.3946798596701697  0.5127316740104247  0.034084600854441795  1.0000
  H   H18       1.0  0.6053101438122893  0.4872688092840463  0.9659138241877374  1.0000
  H   H19       1.0  0.22728554219913383  0.6002889607208174  0.038066315489871286  1.0000
  H   H20       1.0  0.7727094864442066  0.3997124971541552  0.9619327858703953  1.0000
  H   H21       1.0  0.036283448257790986  0.3991852491035956  0.9456719228624237  1.0000
  H   H22       1.0  0.9637059954479881  0.6008191325128748  0.05432968755014405  1.0000
  H   H23       1.0  0.2056550392365111  0.3124154234372938  0.9419538918516324  1.0000
  H   H24       1.0  0.7943316460605204  0.6875870090181735  0.0580423749402073  1.0000
  H   H25       1.0  0.11233055468809991  0.4429224727875365  0.12617436714439384  1.0000
  H   H26       1.0  0.8876617155464928  0.557077035926433  0.8738248614287658  1.0000
  H   H27       1.0  0.2743568909415188  0.3494104992214702  0.1186855694906086  1.0000
  H   H28       1.0  0.7256424392004844  0.6505948569754949  0.8813131447780692  1.0000
  H   H29       1.0  0.9117727409221956  0.24654255285435056  0.03329705090710886  1.0000
  H   H30       1.0  0.08822826854984811  0.7534511083766162  0.9667030489176583  1.0000
  H   H31       1.0  0.07473126744798009  0.1532596057058129  0.029661845233398803  1.0000
  H   H32       1.0  0.9252771297025505  0.8467418521691528  0.9703373477423725  1.0000
  H   H33       1.0  0.1415468344241333  0.1949950410425316  0.2091943453941667  1.0000
  H   H34       1.0  0.8584617947320013  0.8050005693494383  0.7908041063183404  1.0000
  H   H35       1.0  0.983814876330186  0.291303086063408  0.21343833278223912  1.0000
  H   H36       1.0  0.016192373621571207  0.7086915497480603  0.7865612083180056  1.0000
  H   H37       1.0  0.6752670968989422  0.8618712398528671  0.12217972385017366  1.0000
  H   H38       1.0  0.3247327930197343  0.1381302180221056  0.8778212758817363  1.0000
  H   H39       1.0  0.4934698264348612  0.6994544757680146  0.17145172101294293  1.0000
  H   H40       1.0  0.5065281245027647  0.300549905848456  0.8285501342060897  1.0000
  H   H41       1.0  0.498663621459933  0.7143684811612018  0.34722491144257367  1.0000
  H   H42       1.0  0.5013365962298267  0.285634925874767  0.6527763795990325  1.0000
  H   H43       1.0  0.8551321557365555  0.0375077051272399  0.4195043429334078  1.0000
  H   H44       1.0  0.144876241413975  0.9624937527477329  0.5804969016049667  1.0000
  H   H45       1.0  0.1291359007519404  0.6580815843773422  0.6362334224125094  1.0000
  H   H46       1.0  0.8708586362347859  0.3419169497561255  0.3637631904206131  1.0000
  H   H47       1.0  0.2584602154386531  0.4594854683869087  0.6699474416078743  1.0000
  H   H48       1.0  0.7415323825670157  0.5405159894880639  0.33005139442077086  1.0000
  H   H49       1.0  0.08123373817921478  0.24727348822943174  0.6425954204397045  1.0000
  H   H50       1.0  0.9187576445076147  0.7527279696455338  0.35741217302776107  1.0000
  H   H51       1.0  0.6582301568066385  0.4237359064818661  0.539800137229264  1.0000
  H   H52       1.0  0.34176956922650703  0.5762645768125978  0.46019661372258724  1.0000
  C   C1        1.0  0.7046817189110968  0.0160211288413095  0.7686126341700615  1.0000
  C   C2        1.0  0.2953239198306861  0.9839783798726599  0.2313873698728059  1.0000
  C   C3        1.0  0.6962814237121934  0.0190998286411599  0.8629860782467561  1.0000
  C   C4        1.0  0.30372040518754767  0.9808987054923148  0.1370140659980379  1.0000
  C   C5        1.0  0.5953301252046402  0.9225252318577188  0.8859823099240601  1.0000
  C   C6        1.0  0.4046734787906132  0.0774694039537493  0.11401751703296269  1.0000
  C   C7        1.0  0.5046593635713208  0.8228948419119603  0.8121609532797719  1.0000
  C   C8        1.0  0.4953495933558898  0.17710271764100577  0.1878391574508314  1.0000
  C   C9        1.0  0.5183325411905813  0.826809731780905  0.7185188150974824  1.0000
  C   C10       1.0  0.4816718822323693  0.17318977693306437  0.28148174013377764  1.0000
  C   C11       1.0  0.3945218634937149  0.68003303556182  0.9108527420715975  1.0000
  C   C12       1.0  0.6054783541960447  0.3199703714741489  0.0891478651158053  1.0000
  C   C13       1.0  0.2836403536297993  0.5531562985744927  0.8993972502715764  1.0000
  C   C14       1.0  0.7163511929425752  0.44684613388098166  0.1006009148919063  1.0000
  C   C15       1.0  0.2712477002023236  0.5194991610031892  0.9947351483980071  1.0000
  C   C16       1.0  0.7287448978033453  0.4805022968717835  0.005263003776434498  1.0000
  C   C17       1.0  0.1603965348215581  0.3927306024513654  0.9848946343605576  1.0000
  C   C18       1.0  0.8395936325464393  0.6072708554236002  0.015103936336473136  1.0000
  C   C19       1.0  0.1507557701427444  0.36014550343018203  0.08116311328020491  1.0000
  C   C20       1.0  0.8492416891382677  0.6398559544447834  0.9188355695574799  1.0000
  C   C21       1.0  0.034315710275535614  0.2364361530682118  0.07245049707392329  1.0000
  C   C22       1.0  0.9656883853763318  0.7635614064847615  0.9275483991392336  1.0000
  C   C23       1.0  0.021045954737786608  0.2076811554124589  0.168961717392655  1.0000
  C   C24       1.0  0.978962838303886  0.7923154295600056  0.8310382476831037  1.0000
  C   C25       1.0  0.9004166072637075  0.0878330929919215  0.1621393433130862  1.0000
  C   C26       1.0  0.09959169412135083  0.9121605682390452  0.8378601847981244  1.0000
  C   C27       1.0  0.7814758798630308  0.9629625259682867  0.2669593931325736  1.0000
  C   C28       1.0  0.21852975887875203  0.0370369827456827  0.7330412947644973  1.0000
  C   C29       1.0  0.6780881406347561  0.8649372701062106  0.19697359833370603  1.0000
  C   C30       1.0  0.3219164466737325  0.1350632131882605  0.8030277864065952  1.0000
  C   C31       1.0  0.5763835380728963  0.7741531473599536  0.2254804689726981  1.0000
  C   C32       1.0  0.4236175671646195  0.22584831051501197  0.7745213472792188  1.0000
  C   C33       1.0  0.5772917131086716  0.782083308889355  0.3214574979044755  1.0000
  C   C34       1.0  0.422712150537599  0.21792009814662083  0.678545558842963  1.0000
  C   C35       1.0  0.7762587551473319  0.9638601146088844  0.3626417285586642  1.0000
  C   C36       1.0  0.22375036566541706  0.0361384195245833  0.6373592116809804  1.0000
  C   C37       1.0  0.8096941733834131  0.6725092741009746  0.5724770408367306  1.0000
  C   C38       1.0  0.19030069137438943  0.3274912091934965  0.42752123101448813  1.0000
  C   C39       1.0  0.8857239232946555  0.5540743534055963  0.5915627071255614  1.0000
  C   C40       1.0  0.11426851082547532  0.4459261298888748  0.4084380348108425  1.0000
  C   C41       1.0  0.055119908694131  0.56378507350869  0.6268776802537346  1.0000
  C   C42       1.0  0.9448709823360845  0.4362134606247777  0.3731226377071692  1.0000
  C   C43       1.0  0.12599552622960888  0.4540229446837926  0.6455132807534198  1.0000
  C   C44       1.0  0.8739946411383884  0.54597851319118  0.3544866576520107  1.0000
  C   C45       1.0  0.028360682641860493  0.33392344049422457  0.6285655782061994  1.0000
  C   C46       1.0  0.9716346737725559  0.6660799665417443  0.3714413368599808  1.0000
  C   C47       1.0  0.8601925884862426  0.3216495736758347  0.5889646443666691  1.0000
  C   C48       1.0  0.139803327704854  0.6783499350381347  0.4110370337665259  1.0000
  C   C49       1.0  0.7888909035783273  0.4321952652228234  0.5711019359606838  1.0000
  C   C50       1.0  0.2111072793649029  0.5678032689106445  0.428893707161464  1.0000
  C   C51       1.0  0.7602914478518273  0.1884127243447864  0.5612146183220759  1.0000
  C   C52       1.0  0.23970640732032683  0.8115838606276852  0.43878552046979985  1.0000
  N   N1        1.0  0.6154967940461802  0.9211500987720598  0.6978612122132617  1.0000
  N   N2        1.0  0.3845088446956026  0.0788494099419097  0.3021394756838021  1.0000
  N   N3        1.0  0.40272685070968356  0.7182307436831364  0.8262916891897873  1.0000
  N   N4        1.0  0.5972786241465613  0.2817677904503313  0.17370748534402483  1.0000
  N   N5        1.0  0.8865379368574722  0.06149895329844669  0.24913533979013647  1.0000
  N   N6        1.0  0.11346996863643712  0.9384995808350212  0.7508661516379007  1.0000
  N   N7        1.0  0.6760889260611762  0.8767969402120527  0.3883197062657686  1.0000
  N   N8        1.0  0.3239147736995491  0.12320549224342157  0.6116825209726215  1.0000
  O   O1        1.0  0.47234424631973587  0.742074830198831  0.9889531029802967  1.0000
  O   O2        1.0  0.5276568589177799  0.2579266276761345  0.011048713271627326  1.0000
  O   O3        1.0  0.8212057660627039  0.022022595560990496  0.08523770442957361  1.0000
  O   O4        1.0  0.17881193010195767  0.97796911650898  0.9147666968236408  1.0000
  O   O5        1.0  0.901755924797115  0.7832878903874843  0.5931507493188165  1.0000
  O   O6        1.0  0.098237888527386  0.21671356748748138  0.40685027093825005  1.0000
  O   O7        1.0  0.6574874719323844  0.6608942237006588  0.5369987633110754  1.0000
  O   O8        1.0  0.3425099873486275  0.3391072341743069  0.46299034556778207  1.0000
  O   O9        1.0  0.62221174157456  0.1746808850982333  0.5045917385708449  1.0000
  O   O10       1.0  0.377782303755545  0.8253147252937367  0.49541264354816417  1.0000
  O   O11       1.0  0.824500546527787  0.0963830877193885  0.5946729151578296  1.0000
  O   O12       1.0  0.1755000670531146  0.9036154464140793  0.40532504485854304  1.0000
