data_image0
_chemical_formula_structural       Cd2H32C36N4O8
_chemical_formula_sum              "Cd2 H32 C36 N4 O8"
_cell_length_a       8.636097518672225
_cell_length_b       10.323446125599007
_cell_length_c       11.129821977510298
_cell_angle_alpha    84.0326226941627
_cell_angle_beta     68.08694799371065
_cell_angle_gamma    77.48157451645794

_space_group_name_H-M_alt    "P 1"
_space_group_IT_number       1

loop_
  _space_group_symop_operation_xyz
  'x, y, z'

loop_
  _atom_site_type_symbol
  _atom_site_label
  _atom_site_symmetry_multiplicity
  _atom_site_fract_x
  _atom_site_fract_y
  _atom_site_fract_z
  _atom_site_occupancy
  Cd  Cd1       1.0  0.4287789016214917  0.5683599655208696  0.16270515997219087  1.0000
  Cd  Cd2       1.0  0.5712329984448773  0.43163773013471024  0.8372859305560569  1.0000
  H   H1        1.0  0.44144074575029185  0.8733311704471163  0.22760721337998288  1.0000
  H   H2        1.0  0.5585531172532754  0.12667260518617957  0.7723977199027913  1.0000
  H   H3        1.0  0.5416101235102034  0.9867163993482112  0.3669392949061034  1.0000
  H   H4        1.0  0.45838793514024456  0.013289665007818004  0.6330588020287635  1.0000
  H   H5        1.0  0.709949171768791  0.8457665509579612  0.4923547682981991  1.0000
  H   H6        1.0  0.29006145454670207  0.15423912701319156  0.5076360230085016  1.0000
  H   H7        1.0  0.8238649023995562  0.6183560297887002  0.5634293809907334  1.0000
  H   H8        1.0  0.1761368542403119  0.3816501982297569  0.4365676004021637  1.0000
  H   H9        1.0  0.8765202905517742  0.37548292137587685  0.5448546548730419  1.0000
  H   H10       1.0  0.12348249632850637  0.6245202599272092  0.4551467718810613  1.0000
  H   H11       1.0  0.8610364155566402  0.1793335307454669  0.4380934424186336  1.0000
  H   H12       1.0  0.1389786462307967  0.8206662367080642  0.5619010233199617  1.0000
  H   H13       1.0  0.7561365795240748  0.09072399748902883  0.286933452608011  1.0000
  H   H14       1.0  0.24385663880896405  0.9092817748455958  0.7130706043120301  1.0000
  H   H15       1.0  0.5771002783341572  0.249084457156073  0.18086752172426657  1.0000
  H   H16       1.0  0.42288900345266717  0.7509180797685319  0.8191406789079283  1.0000
  H   H17       1.0  0.02164314247276167  0.30898152247814903  0.1438573913497052  1.0000
  H   H18       1.0  0.9783670235278875  0.6910292682248099  0.8561268118665595  1.0000
  H   H19       1.0  0.2055930854691112  0.2502817383393037  0.009451992959242338  1.0000
  H   H20       1.0  0.7944016669240244  0.7497223723065077  0.9905355726118829  1.0000
  H   H21       1.0  0.16300762635098215  0.4577932777982242  0.8842726017630583  1.0000
  H   H22       1.0  0.83700483621044  0.5422184948954581  0.11571802299017264  1.0000
  H   H23       1.0  0.9820030902154714  0.38385987740236527  0.9335157492508799  1.0000
  H   H24       1.0  0.018011120733582676  0.6161540601448011  0.06646967736826781  1.0000
  H   H25       1.0  0.9414095115120277  0.8981371716816894  0.21009145264523715  1.0000
  H   H26       1.0  0.0585889060619138  0.1018540628269093  0.7899527305425665  1.0000
  H   H27       1.0  0.08783095369374648  0.005582807233516  0.17905085011356192  1.0000
  H   H28       1.0  0.912161826136611  0.9944127884101169  0.8209604932004523  1.0000
  H   H29       1.0  0.058587180416900315  0.8518158665399087  0.9693099421718684  1.0000
  H   H30       1.0  0.9413530564815105  0.14816099955582027  0.030737517617531348  1.0000
  H   H31       1.0  0.19594799211964892  0.9639226746356759  0.9438510367450023  1.0000
  H   H32       1.0  0.8040016157972261  0.0360590301131936  0.05616985523280967  1.0000
  C   C1        1.0  0.6534151293164925  0.4650738700278084  0.33912350986852147  1.0000
  C   C2        1.0  0.3465874202155561  0.5349335068417461  0.6608668471210422  1.0000
  C   C3        1.0  0.6240167605855759  0.6076914925510837  0.3489828254238391  1.0000
  C   C4        1.0  0.3759908280012212  0.3923160139692358  0.6510114112914778  1.0000
  C   C5        1.0  0.5104194808178307  0.8164785887557217  0.2866982444185382  1.0000
  C   C6        1.0  0.4895807709448903  0.18352053880905575  0.713299788968776  1.0000
  C   C7        1.0  0.5690610303524012  0.8788350678493231  0.3633598507364226  1.0000
  C   C8        1.0  0.43094656071122733  0.12116843499710231  0.6366338269941565  1.0000
  C   C9        1.0  0.6602839355415995  0.8013568930384313  0.43295922202555903  1.0000
  C   C10       1.0  0.3397227361606454  0.1986455642836732  0.5670348184741203  1.0000
  C   C11       1.0  0.6907440186381208  0.6617076988087477  0.4274998573798925  1.0000
  C   C12       1.0  0.3092688369236996  0.3382910128492186  0.5724926594176055  1.0000
  C   C13       1.0  0.7817104955110495  0.5755347874003434  0.4982976835958012  1.0000
  C   C14       1.0  0.21829499772914576  0.42446757108471905  0.5016994123087315  1.0000
  C   C15       1.0  0.810517458977877  0.4410347672403818  0.48835482572569344  1.0000
  C   C16       1.0  0.18948575329173417  0.5589705981668731  0.511637302145779  1.0000
  C   C17       1.0  0.7505466013593465  0.38305158938569417  0.40691233119139275  1.0000
  C   C18       1.0  0.24945291044400617  0.6169576160330197  0.5930814712067942  1.0000
  C   C19       1.0  0.7853693376030577  0.24498243391079916  0.38845431963956395  1.0000
  C   C20       1.0  0.21463481457180936  0.7550199585859191  0.6115377809972387  1.0000
  C   C21       1.0  0.7257517619458724  0.19604107816215335  0.3066168095790119  1.0000
  C   C22       1.0  0.2742465558052416  0.803964039506596  0.6933785947201089  1.0000
  C   C23       1.0  0.6266281032165463  0.284092582603222  0.24604948694519646  1.0000
  C   C24       1.0  0.37337030734655496  0.7159084575867996  0.7539498309650555  1.0000
  C   C25       1.0  0.2335808139904357  0.3994453152219678  0.11296673465896842  1.0000
  C   C26       1.0  0.7664392643104492  0.6005418603488553  0.8870129289086109  1.0000
  C   C27       1.0  0.12482327842975854  0.3408359021629225  0.060819127398225696  1.0000
  C   C28       1.0  0.8751828450993386  0.6591677380219353  0.9391632934304043  1.0000
  C   C29       1.0  0.055582743435493916  0.4350054053929356  0.9689170449779567  1.0000
  C   C30       1.0  0.9444349680339313  0.5649975871993649  0.031070965338280177  1.0000
  C   C31       1.0  0.2013222524236582  0.7994232232804563  0.15537955779419121  1.0000
  C   C32       1.0  0.7986623709246106  0.20058614132711483  0.8446294500802124  1.0000
  C   C33       1.0  0.06620117986849273  0.9171363156275311  0.14431393331719286  1.0000
  C   C34       1.0  0.9337804817643233  0.08285954382351693  0.8557150780077694  1.0000
  C   C35       1.0  0.07003745249998163  0.9432587101048072  0.005639165863051692  1.0000
  C   C36       1.0  0.9299153134525682  0.05672180280186721  0.9943997582445689  1.0000
  N   N1        1.0  0.5373894695132223  0.6852316434931824  0.2801407453434095  1.0000
  N   N2        1.0  0.4626133198439035  0.31476753413601705  0.7198601224259492  1.0000
  N   N3        1.0  0.5910515320051247  0.41434738272487703  0.2629907792325881  1.0000
  N   N4        1.0  0.4089577159024247  0.5856510914658203  0.7370073257027555  1.0000
  O   O1        1.0  0.22722940456126386  0.3768167904120362  0.22732431517406587  1.0000
  O   O2        1.0  0.7728276996752683  0.6231559775655812  0.7726437460731717  1.0000
  O   O3        1.0  0.33089827516531056  0.475441263126399  0.03335697407418789  1.0000
  O   O4        1.0  0.6691003353436855  0.5245668820070295  0.9666380856122672  1.0000
  O   O5        1.0  0.3486904850818887  0.7844911296020813  0.06690023484065931  1.0000
  O   O6        1.0  0.6512895956605292  0.21551296310098425  0.9331132704367776  1.0000
  O   O7        1.0  0.1613342830067879  0.7193298342879474  0.2528311182168608  1.0000
  O   O8        1.0  0.8386886556182064  0.2806611293237752  0.7471680400626683  1.0000
