data_image0
_chemical_formula_structural       Al2H6C24S6O12
_chemical_formula_sum              "Al2 H6 C24 S6 O12"
_cell_length_a       3.963156069002387
_cell_length_b       20.144041211519795
_cell_length_c       20.143989452171084
_cell_angle_alpha    119.99996468978328
_cell_angle_beta     90.00004160953708
_cell_angle_gamma    90.00007549902615

_space_group_name_H-M_alt    "P 1"
_space_group_IT_number       1

loop_
  _space_group_symop_operation_xyz
  'x, y, z'

loop_
  _atom_site_type_symbol
  _atom_site_label
  _atom_site_symmetry_multiplicity
  _atom_site_fract_x
  _atom_site_fract_y
  _atom_site_fract_z
  _atom_site_occupancy
  Al  Al1       1.0  0.0018293504952210998  0.5000015605519934  0.5000001239257799  1.0000
  Al  Al2       1.0  0.0018343233779916002  0.16666682884083167  0.8333325974026379  1.0000
  H   H1        1.0  0.47854840079155286  0.4904166116605851  0.719306595328483  1.0000
  H   H2        1.0  0.47851451704529774  0.1762462618420315  0.6140211147910719  1.0000
  H   H3        1.0  0.4785459995839004  0.7288928503166261  0.5095811533817881  1.0000
  H   H4        1.0  0.47851450581981675  0.9377786451086294  0.8237529343917985  1.0000
  H   H5        1.0  0.47854676677530966  0.28069373467408104  0.2711087423644117  1.0000
  H   H6        1.0  0.4785162611098599  0.3859787861020152  0.06222293830095538  1.0000
  C   C1        1.0  0.5015417573150528  0.44101313259650254  0.3822275178313959  1.0000
  C   C2        1.0  0.5015396611757056  0.44121728911355973  0.5589884389386057  1.0000
  C   C3        1.0  0.5015451722210855  0.6177743371789717  0.558784957702386  1.0000
  C   C4        1.0  0.5015497055049066  0.22544907053242721  0.7743427540218094  1.0000
  C   C5        1.0  0.5015492409575727  0.04889471440561275  0.7745495004240937  1.0000
  C   C6        1.0  0.501550132619883  0.22565685561593818  0.9511050108086324  1.0000
  C   C7        1.0  0.48822477399093595  0.4290810194155483  0.6793079852409676  1.0000
  C   C8        1.0  0.48820654585772866  0.23758057932785462  0.6540190219481659  1.0000
  C   C9        1.0  0.4987640835162495  0.39832048703638634  0.6008489220806439  1.0000
  C   C10       1.0  0.4987691052909183  0.2683428927131004  0.7324792913775582  1.0000
  C   C11       1.0  0.5054984272166791  0.2960357480362177  0.6346065009200572  1.0000
  C   C12       1.0  0.5055164410980169  0.37062593589726595  0.6987194425269223  1.0000
  C   C13       1.0  0.48823040480889546  0.7502292423927059  0.5709165243562708  1.0000
  C   C14       1.0  0.4882060723311811  0.9164406916645407  0.7624171471002867  1.0000
  C   C15       1.0  0.49876741005497394  0.7025314032906067  0.6016785310012835  1.0000
  C   C16       1.0  0.498765889550448  0.9641380394622132  0.7316546476335192  1.0000
  C   C17       1.0  0.505500023640927  0.838574030923752  0.7039625560833187  1.0000
  C   C18       1.0  0.5055174787284642  0.8280961213404154  0.629371904317992  1.0000
  C   C19       1.0  0.48822345192450467  0.3206921588551808  0.2497717766242147  1.0000
  C   C20       1.0  0.4882079779775665  0.3459803666216602  0.08355990734966674  1.0000
  C   C21       1.0  0.4987608303406574  0.39915124424785386  0.2974701180029058  1.0000
  C   C22       1.0  0.4987724685122075  0.2675207131292013  0.03586214279979317  1.0000
  C   C23       1.0  0.5054999912582188  0.3653937239261538  0.16142716127125575  1.0000
  C   C24       1.0  0.5055149871199661  0.3012811590500633  0.17190515805043563  1.0000
  S   S1        1.0  0.5213694210099149  0.29883435568204664  0.5505577818663667  1.0000
  S   S2        1.0  0.5214080117379681  0.3678276225708928  0.7827678803941893  1.0000
  S   S3        1.0  0.5213760238681644  0.7517275682970349  0.7011647981589276  1.0000
  S   S4        1.0  0.5214090894149166  0.9149420952525276  0.6321691712434115  1.0000
  S   S5        1.0  0.5213640417524346  0.4494422967010365  0.2482749258453865  1.0000
  S   S6        1.0  0.5214109778221001  0.21723244039022666  0.0850595382009942  1.0000
  O   O1        1.0  0.7368146851464631  0.5842727337729771  0.5742308107364663  1.0000
  O   O2        1.0  0.7368140542220659  0.48995980043178383  0.415728179711266  1.0000
  O   O3        1.0  0.7368115895085836  0.42577218617253737  0.5100412615541856  1.0000
  O   O4        1.0  0.2686447238354148  0.5839601937900765  0.5093802480080214  1.0000
  O   O5        1.0  0.2686421120806344  0.4906220513046621  0.574579437982095  1.0000
  O   O6        1.0  0.268644081001149  0.42542305045827083  0.41604238859415693  1.0000
  O   O7        1.0  0.7368220099831291  0.17670951894730536  0.9176042194937322  1.0000
  O   O8        1.0  0.7368244746916659  0.24089642696785063  0.8232898581876782  1.0000
  O   O9        1.0  0.736821379058412  0.08239515255297655  0.759103021529036  1.0000
  O   O10       1.0  0.26865489846988316  0.24124653809474225  0.917290347091189  1.0000
  O   O11       1.0  0.2686492091573668  0.08270952777916558  0.8239543403637981  1.0000
  O   O12       1.0  0.2686543441410265  0.17604461492059906  0.7587532414867795  1.0000
