data_image0
_chemical_formula_structural       H30Pb2C40N4O12
_chemical_formula_sum              "H30 Pb2 C40 N4 O12"
_cell_length_a       9.851455593134917
_cell_length_b       9.958401693044083
_cell_length_c       11.344657638331492
_cell_angle_alpha    65.30014634694209
_cell_angle_beta     84.4460457860622
_cell_angle_gamma    67.78157675114542

_space_group_name_H-M_alt    "P 1"
_space_group_IT_number       1

loop_
  _space_group_symop_operation_xyz
  'x, y, z'

loop_
  _atom_site_type_symbol
  _atom_site_label
  _atom_site_symmetry_multiplicity
  _atom_site_fract_x
  _atom_site_fract_y
  _atom_site_fract_z
  _atom_site_occupancy
  H   H1        1.0  0.2729063817000323  0.36059058626642576  0.19407582739603418  1.0000
  H   H2        1.0  0.7270977609699045  0.6394059817000651  0.8059308780417141  1.0000
  H   H3        1.0  0.07694724840768431  0.7555285842002134  0.826787105581282  1.0000
  H   H4        1.0  0.9230559350269871  0.2444619653086448  0.1732166256535024  1.0000
  H   H5        1.0  0.8294585457089595  0.693012857898431  0.1684973480450012  1.0000
  H   H6        1.0  0.1705397292580741  0.3069800201207542  0.8315041849810428  1.0000
  H   H7        1.0  0.312607031091673  0.6913169473132399  0.7891038726916124  1.0000
  H   H8        1.0  0.6873914235302293  0.3086783340079506  0.21089851672410728  1.0000
  H   H9        1.0  0.23891152259386672  0.5691405318099995  0.7619434989373205  1.0000
  H   H10       1.0  0.7610871052536083  0.43085713919600727  0.238057108023412  1.0000
  H   H11       1.0  0.428768432975886  0.6366199016588823  0.5781173292425735  1.0000
  H   H12       1.0  0.5712276775337273  0.3633849271156393  0.4218826067443188  1.0000
  H   H13       1.0  0.6779579708999534  0.4940156066155697  0.5201031208138005  1.0000
  H   H14       1.0  0.32203795781170186  0.5059868143178862  0.4798950791685215  1.0000
  H   H15       1.0  0.7993145281723314  0.1656105005522974  0.9022383532343028  1.0000
  H   H16       1.0  0.2006816347258464  0.8343883120135587  0.09775675654761068  1.0000
  H   H17       1.0  0.5576623801402931  0.29679637717564594  0.9763541623337846  1.0000
  H   H18       1.0  0.4423376817447887  0.7032001091699911  0.023645877273764944  1.0000
  H   H19       1.0  0.8508085390128103  0.8233377604494265  0.7581783869964057  1.0000
  H   H20       1.0  0.14918892742869613  0.176671845404627  0.24181525246360286  1.0000
  H   H21       1.0  0.8402305976701996  0.0154593260440663  0.7353482861754018  1.0000
  H   H22       1.0  0.1597734797526015  0.9845432308967119  0.26465796777798545  1.0000
  H   H23       1.0  0.6574896805893288  0.08554064150030172  0.5436819882285634  1.0000
  H   H24       1.0  0.3425152758199275  0.9144738910989432  0.45632063113919935  1.0000
  H   H25       1.0  0.3864099959798963  0.1895700147267405  0.48722544391129935  1.0000
  H   H26       1.0  0.613599143848262  0.8104325625369525  0.5127733092618243  1.0000
  H   H27       1.0  0.3001967815147708  0.015081985180337699  0.8751442149911315  1.0000
  H   H28       1.0  0.6998003972934298  0.984916838712607  0.12485080201855683  1.0000
  H   H29       1.0  0.5666618919610753  0.9016230439546149  0.9480385588598779  1.0000
  H   H30       1.0  0.4333303367063977  0.09838414735263257  0.05196348422050081  1.0000
  Pb  Pb1       1.0  0.03645518374384688  0.22780049972804767  0.616769924411301  1.0000
  Pb  Pb2       1.0  0.9635523509642283  0.772200877050267  0.38323205818488754  1.0000
  C   C1        1.0  0.038437198916497606  0.42937632307547346  0.3373711330377206  1.0000
  C   C2        1.0  0.9615517008168839  0.5706200659066027  0.6626352047536912  1.0000
  C   C3        1.0  0.05138435344817786  0.5198601437751833  0.19602581541145267  1.0000
  C   C4        1.0  0.9486096151198496  0.4801362791470041  0.8039756604443582  1.0000
  C   C5        1.0  0.17934468216292737  0.4659846421499267  0.1373258300742961  1.0000
  C   C6        1.0  0.8206556417689159  0.5340082948359354  0.8626825543264119  1.0000
  C   C7        1.0  0.18718490499396984  0.5500906656478292  0.004300205114390105  1.0000
  C   C8        1.0  0.8128125401471918  0.449904617963476  0.9957049159182321  1.0000
  C   C9        1.0  0.06926482649355133  0.6882990634057935  0.9296615960476943  1.0000
  C   C10       1.0  0.9307438589050108  0.31169035582916393  0.0703429559747661  1.0000
  C   C11       1.0  0.9409615594160241  0.7382520642034793  0.9905655107622379  1.0000
  C   C12       1.0  0.059034200356244085  0.26174797612328154  0.00943623090486056  1.0000
  C   C13       1.0  0.931515513155581  0.6562411984666667  0.12339787523151811  1.0000
  C   C14       1.0  0.06848893323422088  0.34374578123606636  0.8766079507199651  1.0000
  C   C15       1.0  0.3268579437728576  0.5660437959087474  0.8176001522669696  1.0000
  C   C16       1.0  0.6731394927959187  0.433951469546301  0.18240145030609511  1.0000
  C   C17       1.0  0.47403282735765356  0.47787447916964254  0.782630302175555  1.0000
  C   C18       1.0  0.5259678301667775  0.5221232099514809  0.21736923962583182  1.0000
  C   C19       1.0  0.5089670935980806  0.5329583771577049  0.6526716414009144  1.0000
  C   C20       1.0  0.4910286618879951  0.46704165409092707  0.347328341036402  1.0000
  C   C21       1.0  0.6465083394828496  0.4532721212728604  0.6202689629904654  1.0000
  C   C22       1.0  0.3534851307087905  0.5467314548376337  0.3797263786577076  1.0000
  C   C23       1.0  0.7142632939882106  0.2706562146394944  0.8326034680044502  1.0000
  C   C24       1.0  0.28573490287310926  0.7293426251195997  0.16739233584789293  1.0000
  C   C25       1.0  0.5795649691395183  0.3428894072851136  0.8741860733792353  1.0000
  C   C26       1.0  0.4204340094453088  0.6571130521686611  0.12581272790129117  1.0000
  C   C27       1.0  0.7952833279770813  0.9220728554519297  0.7880045049285443  1.0000
  C   C28       1.0  0.20471846200818786  0.0779332418116283  0.2119962286208121  1.0000
  C   C29       1.0  0.6335824344400223  0.9868432549442047  0.751484266481171  1.0000
  C   C30       1.0  0.36641683820738535  0.013170000087868098  0.24851579609435256  1.0000
  C   C31       1.0  0.5817525460299748  0.0677315681162156  0.6201988576381439  1.0000
  C   C32       1.0  0.41825146400258706  0.932276973259782  0.37980606521599475  1.0000
  C   C33       1.0  0.4315420053623598  0.1257034580015741  0.5882699152792554  1.0000
  C   C34       1.0  0.5684635947886248  0.8743062520863562  0.4117256208475908  1.0000
  C   C35       1.0  0.38291076618860836  0.028201307795527004  0.8040098553284738  1.0000
  C   C36       1.0  0.6170889791180442  0.9718047395794899  0.19598578607600106  1.0000
  C   C37       1.0  0.5311014912068971  0.9658076561391055  0.8450332535073671  1.0000
  C   C38       1.0  0.4688959880931804  0.03420197694933339  0.1549656636419812  1.0000
  C   C39       1.0  0.9264640666997864  0.067616837407364  0.4607889561688125  1.0000
  C   C40       1.0  0.07355001898291387  0.9323773633638908  0.5392010117038312  1.0000
  N   N1        1.0  0.33297871614823993  0.10753720740696339  0.6783897679188728  1.0000
  N   N2        1.0  0.6670240790315775  0.8924688784883726  0.3216064747838062  1.0000
  N   N3        1.0  0.7484626694828266  0.32373711356062534  0.7084229729064049  1.0000
  N   N4        1.0  0.25153265716019046  0.6762640909801545  0.29157308603740983  1.0000
  O   O1        1.0  0.8686005275783941  0.18596186409180857  0.48967223767512286  1.0000
  O   O2        1.0  0.1314053399904367  0.8140239037161692  0.5103277432338302  1.0000
  O   O3        1.0  0.8730299347080717  0.0502046013670565  0.3728888538204416  1.0000
  O   O4        1.0  0.12699177773534123  0.9497968386701315  0.6270933580518374  1.0000
  O   O5        1.0  0.9306701151308517  0.4940670513161791  0.39282034087557366  1.0000
  O   O6        1.0  0.0693210463229192  0.5059257428743466  0.6071809619411895  1.0000
  O   O7        1.0  0.1359188812984442  0.2898492336998402  0.3974044801471451  1.0000
  O   O8        1.0  0.8640740777888425  0.7101471915124549  0.6025997273255683  1.0000
  O   O9        1.0  0.8174573462442822  0.8678530882990927  0.9257652826279781  1.0000
  O   O10       1.0  0.18254636543950647  0.1321446484204785  0.074236619701388  1.0000
  O   O11       1.0  0.31575129234256843  0.48863453772278836  0.9542943196414341  1.0000
  O   O12       1.0  0.6842478188796263  0.5113559483214729  0.04570626422270149  1.0000
