data_image0
_chemical_formula_structural       Cu4H36C28N12O16
_chemical_formula_sum              "Cu4 H36 C28 N12 O16"
_cell_length_a       7.379011977034776
_cell_length_b       9.657764037028063
_cell_length_c       16.113673988103667
_cell_angle_alpha    89.99974927280188
_cell_angle_beta     90.0003266254806
_cell_angle_gamma    90.00012226579864

_space_group_name_H-M_alt    "P 1"
_space_group_IT_number       1

loop_
  _space_group_symop_operation_xyz
  'x, y, z'

loop_
  _atom_site_type_symbol
  _atom_site_label
  _atom_site_symmetry_multiplicity
  _atom_site_fract_x
  _atom_site_fract_y
  _atom_site_fract_z
  _atom_site_occupancy
  Cu  Cu1       1.0  0.748599744587203  0.8394113360597542  0.8347610939176063  1.0000
  Cu  Cu2       1.0  0.2514024713416633  0.6605897801690119  0.3347598688099254  1.0000
  Cu  Cu3       1.0  0.7514015335784878  0.3394067502912749  0.16523846287456223  1.0000
  Cu  Cu4       1.0  0.24859723978055112  0.16059395419614483  0.6652394652767057  1.0000
  H   H1        1.0  0.7081627008172263  0.2311141395762418  0.8476906073587641  1.0000
  H   H2        1.0  0.2918383338601416  0.2688841936802788  0.3476910667958463  1.0000
  H   H3        1.0  0.79183964201615  0.7311061926562773  0.15231543860446808  1.0000
  H   H4        1.0  0.20816166786841714  0.768893153009138  0.6523154311274766  1.0000
  H   H5        1.0  0.6001959301542713  0.0206778563996721  0.9349296910570288  1.0000
  H   H6        1.0  0.3998034753783628  0.47932294445875095  0.43492926258127795  1.0000
  H   H7        1.0  0.8998099136651733  0.5206738374609898  0.0650762847197726  1.0000
  H   H8        1.0  0.10018895977182041  0.9793261469149571  0.5650754437462736  1.0000
  H   H9        1.0  0.5378590705752444  0.0328735375573999  0.835337160200268  1.0000
  H   H10       1.0  0.4621391005998775  0.46712592157966537  0.3353369270700171  1.0000
  H   H11       1.0  0.9621440955730096  0.5328678596628436  0.1646687836768734  1.0000
  H   H12       1.0  0.037857367416151505  0.9671303601242799  0.6646684317539737  1.0000
  H   H13       1.0  0.9441419260729945  0.05563334150866692  0.9628622736311455  1.0000
  H   H14       1.0  0.05585782564752151  0.44436621941434146  0.4628604141688299  1.0000
  H   H15       1.0  0.5558626563252672  0.5556320505427833  0.0371411283491341  1.0000
  H   H16       1.0  0.44413722607619394  0.9443660674833723  0.5371406600517332  1.0000
  H   H17       1.0  0.0167887379920586  0.21650534610031968  0.9218757809862268  1.0000
  H   H18       1.0  0.9832118609338423  0.28349244402635065  0.42187429144816946  1.0000
  H   H19       1.0  0.4832233199087029  0.7165055147016374  0.0781246480541569  1.0000
  H   H20       1.0  0.5167811360533039  0.7834954095708965  0.5781272733543119  1.0000
  H   H21       1.0  0.8668362615635561  0.5212020247172121  0.8746675239378519  1.0000
  H   H22       1.0  0.1331691593540398  0.9788039765330223  0.3746645359313021  1.0000
  H   H23       1.0  0.6331614524413923  0.021194424446868292  0.12533100337077485  1.0000
  H   H24       1.0  0.36683953668224945  0.47880450135091474  0.6253308629144385  1.0000
  H   H25       1.0  0.9589899186306285  0.35778376024119757  0.7556354142545345  1.0000
  H   H26       1.0  0.04101133028585479  0.1422204241816303  0.2556318237802842  1.0000
  H   H27       1.0  0.5410059880357282  0.857772643449159  0.2443634738943459  1.0000
  H   H28       1.0  0.45899375230771267  0.6422270637350848  0.7443632142194544  1.0000
  H   H29       1.0  0.9679321640386078  0.48510774104049387  0.6173303637829263  1.0000
  H   H30       1.0  0.0320633051447814  0.0148943496396754  0.1173295652423292  1.0000
  H   H31       1.0  0.5320654394185171  0.985094561086562  0.3826663295767787  1.0000
  H   H32       1.0  0.4679333046750998  0.5149041335277998  0.8826670469508217  1.0000
  H   H33       1.0  0.8630176247854849  0.7564084104534459  0.6539093628988509  1.0000
  H   H34       1.0  0.13697692887033242  0.7435950652905916  0.15390700008612157  1.0000
  H   H35       1.0  0.6369766547044833  0.2563950586459853  0.3460916521751543  1.0000
  H   H36       1.0  0.36302300496562623  0.24360432174997024  0.8460927374812357  1.0000
  C   C1        1.0  0.8971142726993547  0.095218674721508  0.7877102983744351  1.0000
  C   C2        1.0  0.10288466336798051  0.4047811331171545  0.28770804516327086  1.0000
  C   C3        1.0  0.6028849950936815  0.5952130747999077  0.2122886559308483  1.0000
  C   C4        1.0  0.39711299251854376  0.9047858317764578  0.7122887884543019  1.0000
  C   C5        1.0  0.778764249764471  0.1333565306968723  0.8617515565670288  1.0000
  C   C6        1.0  0.2212369591799757  0.3666427350547181  0.3617509546059736  1.0000
  C   C7        1.0  0.7212405411333123  0.6333516734186446  0.1382472979933453  1.0000
  C   C8        1.0  0.2787592391853623  0.8666467398118839  0.6382459787632015  1.0000
  C   C9        1.0  0.8960595920396628  0.15563583276561133  0.9386180743639443  1.0000
  C   C10       1.0  0.1039412143952134  0.3443618347824895  0.43861722312891516  1.0000
  C   C11       1.0  0.603949324248596  0.6556334103474908  0.0613850660627264  1.0000
  C   C12       1.0  0.3960535690259164  0.8443655656183962  0.5613847332428746  1.0000
  C   C13       1.0  0.7960093676244001  0.23507472842836558  0.007227517576367899  1.0000
  C   C14       1.0  0.2039888025256786  0.2649240266064581  0.5072281301338322  1.0000
  C   C15       1.0  0.7039916306065805  0.7350646210706628  0.9927735533013617  1.0000
  C   C16       1.0  0.2960138989408562  0.764930161103976  0.4927746546091001  1.0000
  C   C17       1.0  0.8823149392085484  0.5509224034288849  0.8102327898056103  1.0000
  C   C18       1.0  0.11768290712321772  0.9490788923808466  0.3102304595360863  1.0000
  C   C19       1.0  0.6176787889596085  0.05091534060706239  0.1897669009440435  1.0000
  C   C20       1.0  0.38232028839865967  0.4490841488664047  0.689766878816279  1.0000
  C   C21       1.0  0.9306403335230087  0.5349130220174914  0.6751277452712825  1.0000
  C   C22       1.0  0.06935312793152801  0.965088227496828  0.17512772877756788  1.0000
  C   C23       1.0  0.5693560620689838  0.0349048881594882  0.3248701255836863  1.0000
  C   C24       1.0  0.4306406241902181  0.4650936121672943  0.8248714294619575  1.0000
  C   C25       1.0  0.8810567584663147  0.6682170563838313  0.694507940232633  1.0000
  C   C26       1.0  0.11893829837779893  0.8317840512451866  0.1945071612296658  1.0000
  C   C27       1.0  0.6189386395918675  0.16820811299889024  0.3054908231415823  1.0000
  C   C28       1.0  0.3810591616691071  0.3317915646518513  0.8054911044928089  1.0000
  N   N1        1.0  0.6466340273375338  0.0209783906490415  0.8752797920926978  1.0000
  N   N2        1.0  0.35336599408203984  0.47902077605621685  0.3752792426454192  1.0000
  N   N3        1.0  0.8533677516938455  0.520975927174092  0.1247243211178741  1.0000
  N   N4        1.0  0.1466318610263997  0.9790215496220968  0.6247242233008805  1.0000
  N   N5        1.0  0.851535727530731  0.6769237056428921  0.7792036585343282  1.0000
  N   N6        1.0  0.14846715501423796  0.8230778173406108  0.2792029797177378  1.0000
  N   N7        1.0  0.6484637594746161  0.17691646781218398  0.2207950820704028  1.0000
  N   N8        1.0  0.3515370576492103  0.3230827944909791  0.7207959293793706  1.0000
  N   N9        1.0  0.9306976131205928  0.4632118904246311  0.7489688514680493  1.0000
  N   N10       1.0  0.06930219796927872  0.03678923649722779  0.2489649903390685  1.0000
  N   N11       1.0  0.5692985764250125  0.9632038790717702  0.25103162269817847  1.0000
  N   N12       1.0  0.43070260176394015  0.5367957792907418  0.751032185192983  1.0000
  O   O1        1.0  0.9955081299964875  0.18717804851060285  0.7558075889319793  1.0000
  O   O2        1.0  0.004487700292024499  0.31282199288774143  0.2558078006154573  1.0000
  O   O3        1.0  0.5044846085302624  0.6871616939139855  0.2441905042642176  1.0000
  O   O4        1.0  0.4955164848660304  0.812838014536794  0.7441905147007759  1.0000
  O   O5        1.0  0.8935809371475828  0.9689800181314254  0.7620210305064886  1.0000
  O   O6        1.0  0.10641360127284831  0.5310216306406089  0.262021625913043  1.0000
  O   O7        1.0  0.6064057814985943  0.46897568955189695  0.237976946191985  1.0000
  O   O8        1.0  0.39358847261373603  0.031021376070590592  0.7379799088462846  1.0000
  O   O9        1.0  0.8757372779267243  0.22812468508080747  0.07882086317647462  1.0000
  O   O10       1.0  0.12426042435821931  0.2718756166685381  0.5788206279159239  1.0000
  O   O11       1.0  0.624271832835298  0.7281263565887385  0.9211789846927443  1.0000
  O   O12       1.0  0.37574500612666384  0.7718648080123957  0.4211821386705665  1.0000
  O   O13       1.0  0.6537512551355464  0.3005022967705174  0.992104438126006  1.0000
  O   O14       1.0  0.3462488590315971  0.19949497917563258  0.4921058423085114  1.0000
  O   O15       1.0  0.8462526290076796  0.8005089600798173  0.007889635104703498  1.0000
  O   O16       1.0  0.1537455356492998  0.699500761917413  0.5078859429196285  1.0000
