data_image0
_chemical_formula_structural       Zn2H24C36N4O12F8
_chemical_formula_sum              "Zn2 H24 C36 N4 O12 F8"
_cell_length_a       7.138826659726679
_cell_length_b       11.33042902543398
_cell_length_c       11.33042178104866
_cell_angle_alpha    89.89646226528501
_cell_angle_beta     100.05134035765228
_cell_angle_gamma    100.05110262892822

_space_group_name_H-M_alt    "P 1"
_space_group_IT_number       1

loop_
  _space_group_symop_operation_xyz
  'x, y, z'

loop_
  _atom_site_type_symbol
  _atom_site_label
  _atom_site_symmetry_multiplicity
  _atom_site_fract_x
  _atom_site_fract_y
  _atom_site_fract_z
  _atom_site_occupancy
  Zn  Zn1       1.0  2.258245409346678e-06  0.5000017216133018  1.1431567656981263e-06  1.0000
  Zn  Zn2       1.0  0.49999980623829987  0.9999994446517272  0.5000002702713574  1.0000
  H   H1        1.0  0.9641183496409694  0.6925408518005012  0.8140417208784145  1.0000
  H   H2        1.0  0.535883272314507  0.1859617593924056  0.30745890860008984  1.0000
  H   H3        1.0  0.035882739634267594  0.30746091662490466  0.18596155979274445  1.0000
  H   H4        1.0  0.4641180367376592  0.814035550556383  0.6925417300724847  1.0000
  H   H5        1.0  0.9652168415984832  0.9089750144079003  0.8051223662201823  1.0000
  H   H6        1.0  0.5347773934822442  0.19487723040489868  0.09102458538016832  1.0000
  H   H7        1.0  0.0347770084645589  0.0910266682849254  0.19487666955699717  1.0000
  H   H8        1.0  0.4652196845169029  0.8051200199568953  0.9089774014280965  1.0000
  H   H9        1.0  0.03333652698809435  0.9146740613463678  0.19407494368815753  1.0000
  H   H10       1.0  0.46666837163009234  0.8059246178877332  0.08532846085388003  1.0000
  H   H11       1.0  0.9666606557938662  0.08532944981433128  0.805925309721026  1.0000
  H   H12       1.0  0.533328429058649  0.19407173964552982  0.9146717300567745  1.0000
  H   H13       1.0  0.03275796779450249  0.6978295326362555  0.18385269805013146  1.0000
  H   H14       1.0  0.46725357446588567  0.8161525734215043  0.30217689333356657  1.0000
  H   H15       1.0  0.9672528167647483  0.30217683021593433  0.8161515543757719  1.0000
  H   H16       1.0  0.5327448798011432  0.18384469927153893  0.6978234637712577  1.0000
  H   H17       1.0  0.6441827341482168  0.4319638908205049  0.00430591023903302  1.0000
  H   H18       1.0  0.8558177468818611  0.9956925512909078  0.5680388260240649  1.0000
  H   H19       1.0  0.3558181761906383  0.5680378905667353  0.9956911737265559  1.0000
  H   H20       1.0  0.1441814115046824  0.004307409146186099  0.4319624925553215  1.0000
  H   H21       1.0  0.6134532841493223  0.49814367738877496  0.8818113230521475  1.0000
  H   H22       1.0  0.8865470453371883  0.1181871238143941  0.5018556891018093  1.0000
  H   H23       1.0  0.38655000304087384  0.5018563500420681  0.1181851064169379  1.0000
  H   H24       1.0  0.1134534893172443  0.8818128589539498  0.49814399977413615  1.0000
  C   C1        1.0  0.9775141678301791  0.7456037367443074  0.8957840348309961  1.0000
  C   C2        1.0  0.5224880930167117  0.10421787883603169  0.2543976367274468  1.0000
  C   C3        1.0  0.0224855668641695  0.25439892069528713  0.10421381900467003  1.0000
  C   C4        1.0  0.47751251832473673  0.8957820983772391  0.7456047078794654  1.0000
  C   C5        1.0  0.9790965337571078  0.8681214543899712  0.89249892843457  1.0000
  C   C6        1.0  0.5209014230784703  0.1075007671253303  0.13187709884601875  1.0000
  C   C7        1.0  0.020899693157282694  0.1318784743464505  0.10749945284610622  1.0000
  C   C8        1.0  0.4790969545015428  0.8924965111227862  0.8681206025278458  1.0000
  C   C9        1.0  0.997846398521787  0.9345185727154754  0.9996977464399067  1.0000
  C   C10       1.0  0.5021545968526836  0.0003015342104148983  0.06548327275300642  1.0000
  C   C11       1.0  0.0021533872972483  0.06548408102074178  0.00030187788307499934  1.0000
  C   C12       1.0  0.4978467121994895  0.9996957757383669  0.9345173659195682  1.0000
  C   C13       1.0  0.015115319360404498  0.870982911999675  0.10635826224655179  1.0000
  C   C14       1.0  0.4848880203617014  0.8936436856836847  0.1290189355438685  1.0000
  C   C15       1.0  0.9848840140871785  0.12901794867271119  0.8936413112558271  1.0000
  C   C16       1.0  0.515110809589757  0.10635538562825532  0.8709788166506058  1.0000
  C   C17       1.0  0.01430221703625274  0.7484363395412285  0.1023288904490158  1.0000
  C   C18       1.0  0.48570152642381714  0.8976742956138892  0.25156719903348096  1.0000
  C   C19       1.0  0.9856999264805778  0.2515699170988057  0.8976718615426835  1.0000
  C   C20       1.0  0.5142962045701579  0.10232564619533238  0.7484339787620231  1.0000
  C   C21       1.0  0.766587496762682  0.47302313112403027  0.21270065660151266  1.0000
  C   C22       1.0  0.7334201255722164  0.787301402012247  0.5269839482174917  1.0000
  C   C23       1.0  0.2334065539237358  0.5269794499523925  0.7872975193423174  1.0000
  C   C24       1.0  0.2665845928858984  0.21269773084934226  0.4730205638180466  1.0000
  C   C25       1.0  0.7609897729746107  0.5072105898340734  0.3419493368261328  1.0000
  C   C26       1.0  0.7390173407488801  0.6580528588771911  0.492793070960346  1.0000
  C   C27       1.0  0.2390095604729794  0.4927902708383129  0.658050236676246  1.0000
  C   C28       1.0  0.26098880510179606  0.34194629261227044  0.5072115818590603  1.0000
  C   C29       1.0  0.7500011691624237  0.6233469472673219  0.37665601300865603  1.0000
  C   C30       1.0  0.2500005666988514  0.37665215759697884  0.6233437912408633  1.0000
  C   C31       1.0  0.7668110313144253  0.4232603664764196  0.43181834118045975  1.0000
  C   C32       1.0  0.7331903852913013  0.5681818166525402  0.5767414518138168  1.0000
  C   C33       1.0  0.23318211462910202  0.5767386284723557  0.5681797331221716  1.0000
  C   C34       1.0  0.26681230002874656  0.4318155156274911  0.42325755715532404  1.0000
  C   C35       1.0  0.7500036436194505  0.4510826963557902  0.5489180587337756  1.0000
  C   C36       1.0  0.2499992423239874  0.5489155343078451  0.45108009040201585  1.0000
  N   N1        1.0  0.9937676690094364  0.6858223829923842  0.998721967083803  1.0000
  N   N2        1.0  0.5062360236359497  0.0012806660570490003  0.3141780420740688  1.0000
  N   N3        1.0  0.006234796533682605  0.3141794077642714  0.0012796838839221967  1.0000
  N   N4        1.0  0.4937636062755857  0.9987157305836475  0.6858215451606853  1.0000
  O   O1        1.0  0.9310456926812876  0.49333950630928297  0.18202301582086738  1.0000
  O   O2        1.0  0.568958871726835  0.8179769360024732  0.5066637707625503  1.0000
  O   O3        1.0  0.06895449438450636  0.5066649441941349  0.8179748888354013  1.0000
  O   O4        1.0  0.43104792070987924  0.18201955192588304  0.4933374056352235  1.0000
  O   O5        1.0  0.6070532720734434  0.4277322633061543  0.14765921682890593  1.0000
  O   O6        1.0  0.892949915847133  0.8523438154521588  0.5722779840833426  1.0000
  O   O7        1.0  0.3929469149923506  0.5722721871972636  0.8523386878273629  1.0000
  O   O8        1.0  0.1070537036534915  0.14765618790671198  0.42772995355323223  1.0000
  O   O9        1.0  0.6928264579678398  0.4440584601881809  0.9264958806336738  1.0000
  O   O10       1.0  0.8071741677359086  0.0735026212804826  0.5559421447356598  1.0000
  O   O11       1.0  0.30717562801552123  0.5559424451467053  0.0735004334618381  1.0000
  O   O12       1.0  0.19282493952594848  0.9264973428599956  0.44405740335641763  1.0000
  F   F1        1.0  0.7499980746519623  0.7087323854012836  0.29127518403446834  1.0000
  F   F2        1.0  0.2500056687850289  0.29126852189625646  0.7087292380377975  1.0000
  F   F3        1.0  0.7920347380204545  0.3111675396682044  0.40531725862589957  1.0000
  F   F4        1.0  0.7079626702798194  0.5946786012054516  0.6888320218599447  1.0000
  F   F5        1.0  0.2079528158803825  0.6888269296992248  0.5946740695680361  1.0000
  F   F6        1.0  0.2920386898970335  0.4053187050399529  0.3111703872999385  1.0000
  F   F7        1.0  0.7499933084974587  0.36695208963838166  0.6330493253166908  1.0000
  F   F8        1.0  0.24999600123102533  0.6330432874820743  0.36694571004603205  1.0000
