data_image0
_chemical_formula_structural       Zn2H50C52N10O16
_chemical_formula_sum              "Zn2 H50 C52 N10 O16"
_cell_length_a       8.99286900522359
_cell_length_b       9.626141282037725
_cell_length_c       16.099799505450676
_cell_angle_alpha    73.34966235876922
_cell_angle_beta     76.62356480094688
_cell_angle_gamma    80.63083590885883

_space_group_name_H-M_alt    "P 1"
_space_group_IT_number       1

loop_
  _space_group_symop_operation_xyz
  'x, y, z'

loop_
  _atom_site_type_symbol
  _atom_site_label
  _atom_site_symmetry_multiplicity
  _atom_site_fract_x
  _atom_site_fract_y
  _atom_site_fract_z
  _atom_site_occupancy
  Zn  Zn1       1.0  0.5411864600083048  0.3475420777412239  0.16833491334043052  1.0000
  Zn  Zn2       1.0  0.4588129295723533  0.6524573537776989  0.8316654120465113  1.0000
  H   H1        1.0  0.980693090638276  0.9234565129222786  0.20296892144043696  1.0000
  H   H2        1.0  0.01930733028122939  0.07654401035252792  0.7970298438853259  1.0000
  H   H3        1.0  0.7645934962524948  0.021058410210251604  0.5761859660329517  1.0000
  H   H4        1.0  0.23540577123097955  0.9789421048106561  0.4238160541451988  1.0000
  H   H5        1.0  0.49882545289180064  0.7940972750819313  0.16626402114923874  1.0000
  H   H6        1.0  0.5011750860719602  0.2059021602558247  0.8337342929153304  1.0000
  H   H7        1.0  0.21402938267309676  0.804005066387653  0.9831949711835929  1.0000
  H   H8        1.0  0.7859721795236467  0.19599545183587005  0.01680426987982735  1.0000
  H   H9        1.0  0.28484880365675735  0.2040285670714681  0.03333374564831359  1.0000
  H   H10       1.0  0.7151539038701529  0.7959719505358367  0.9666647276227488  1.0000
  H   H11       1.0  0.7921162114944735  0.5248889540419344  0.0865085529204207  1.0000
  H   H12       1.0  0.2078842073985711  0.4751115670153326  0.9134908341703533  1.0000
  H   H13       1.0  0.07284351738235272  0.5144665968458995  0.09264839298871412  1.0000
  H   H14       1.0  0.9271582768499655  0.48553174106848485  0.9073511890823408  1.0000
  H   H15       1.0  0.19783738515076982  0.28645014498448523  0.1792650611100939  1.0000
  H   H16       1.0  0.8021622405183991  0.7135471106603506  0.8207343617544606  1.0000
  H   H17       1.0  0.7649864660319565  0.10092978154047223  0.24295017273713157  1.0000
  H   H18       1.0  0.23501154618296033  0.8990718309038144  0.7570505794345406  1.0000
  H   H19       1.0  0.08405086255006472  0.7692201972594647  0.36956046185255775  1.0000
  H   H20       1.0  0.9159497883785477  0.23077814348866357  0.6304392662458439  1.0000
  H   H21       1.0  0.20126729907079272  0.7302860475743602  0.2725847331590073  1.0000
  H   H22       1.0  0.7987333538842877  0.2697122953912938  0.7274143731743832  1.0000
  H   H23       1.0  0.974196182108777  0.6589456796184694  0.2341211507134274  1.0000
  H   H24       1.0  0.0258044688198353  0.341052661129659  0.765878577384967  1.0000
  H   H25       1.0  0.8533413310708017  0.710442917061684  0.32549762848209673  1.0000
  H   H26       1.0  0.1466592058664986  0.2895565160585464  0.6745013073474833  1.0000
  H   H27       1.0  0.0169407888490838  0.5152805881203548  0.42504610965774237  1.0000
  H   H28       1.0  0.9830584867402551  0.4847199357706701  0.5749534234603784  1.0000
  H   H29       1.0  0.10844110728348262  0.454217519520725  0.33077946862081103  1.0000
  H   H30       1.0  0.8915582822971757  0.5457819119981977  0.6692208567661309  1.0000
  H   H31       1.0  0.852651626298467  0.4079913603223775  0.311505398948263  1.0000
  H   H32       1.0  0.14734661795202442  0.5920080718127637  0.6884956942310365  1.0000
  H   H33       1.0  0.7608204063751458  0.4748771115186726  0.403054754367403  1.0000
  H   H34       1.0  0.23917875116993764  0.5251245003093887  0.5969452300119185  1.0000
  H   H35       1.0  0.9823950682259125  0.19522851196413174  0.4047757558403616  1.0000
  H   H36       1.0  0.01760306405972761  0.804772014760637  0.5952239233051059  1.0000
  H   H37       1.0  0.9231265722265074  0.2693435897522464  0.4972362110735771  1.0000
  H   H38       1.0  0.07687384464006897  0.7306569290875019  0.5027637977822079  1.0000
  H   H39       1.0  0.6480534082075806  0.2608805234844808  0.49578987150924536  1.0000
  H   H40       1.0  0.3519446019808683  0.73912108674228  0.5042115024274377  1.0000
  H   H41       1.0  0.7024758780852878  0.19514517952231364  0.39986149524528947  1.0000
  H   H42       1.0  0.2975222481209485  0.8048553405498782  0.6001400491952109  1.0000
  H   H43       1.0  0.585529703355128  0.8856405475994439  0.6683151282458366  1.0000
  H   H44       1.0  0.41446396565409327  0.11435889365316139  0.3316871708078677  1.0000
  H   H45       1.0  0.7182131408845649  0.6802961974263795  0.45308819137838424  1.0000
  H   H46       1.0  0.281786923875714  0.319707587442025  0.546912549495971  1.0000
  H   H47       1.0  0.6312131492838445  0.44604468601787073  0.5618546323493089  1.0000
  H   H48       1.0  0.3687894401988103  0.5539569195264846  0.43814429218295436  1.0000
  H   H49       1.0  0.522804321570014  0.4506901345553589  0.7199809476805679  1.0000
  H   H50       1.0  0.47719518808136746  0.5493082112440463  0.2800183046801691  1.0000
  C   C1        1.0  0.47042762295663465  0.08315662847306271  0.15290600539626095  1.0000
  C   C2        1.0  0.5295739412665768  0.9168438919679855  0.8470926139021555  1.0000
  C   C3        1.0  0.3939296839999145  0.005669989138425499  0.10775135406394294  1.0000
  C   C4        1.0  0.6060708509109177  0.9943294417642792  0.8922482035306412  1.0000
  C   C5        1.0  0.42243654810716436  0.8543266440227556  0.1215492315062363  1.0000
  C   C6        1.0  0.5775650140895792  0.14567387420077446  0.8784500095571839  1.0000
  C   C7        1.0  0.35861017297747116  0.7813766175225042  0.07663232905800753  1.0000
  C   C8        1.0  0.6413925345494463  0.21862390008480057  0.9233661442130621  1.0000
  C   C9        1.0  0.26348135625305247  0.8602096569243971  0.018347302010781198  1.0000
  C   C10       1.0  0.7365214672916452  0.13978977052833133  0.9816513417640987  1.0000
  C   C11       1.0  0.23886452304405736  0.0111569887605611  0.003969823531612301  1.0000
  C   C12       1.0  0.7611371592234021  0.9888424437434439  0.9960283445056102  1.0000
  C   C13       1.0  0.30264229007262594  0.0858751456922988  0.04730532248309769  1.0000
  C   C14       1.0  0.6973604154278163  0.9141253696974803  0.9526937725529759  1.0000
  C   C15       1.0  0.39398818508235683  0.6195694782248753  0.08699504444142996  1.0000
  C   C16       1.0  0.6060134931321741  0.38042994984407846  0.9130043671258076  1.0000
  C   C17       1.0  0.8535122011686981  0.4279490413994936  0.12281893918363097  1.0000
  C   C18       1.0  0.1464873024032798  0.5720492977473269  0.8771821784721394  1.0000
  C   C19       1.0  0.0072046554690671965  0.42182684179596214  0.12693852660679275  1.0000
  C   C20       1.0  0.9927949641206981  0.5781704071962893  0.8730627615527875  1.0000
  C   C21       1.0  0.07705951245019797  0.29435027655486584  0.17572092204129314  1.0000
  C   C22       1.0  0.9229410204341588  0.7056491521303131  0.824279257318302  1.0000
  C   C23       1.0  0.9925679460274283  0.17458930067959244  0.21699343324069528  1.0000
  C   C24       1.0  0.00743384415195439  0.8254090327997333  0.7830073923603746  1.0000
  C   C25       1.0  0.8381335377291705  0.1889986115779152  0.2105907034533486  1.0000
  C   C26       1.0  0.16186482051264048  0.8109997281851308  0.7894111819947793  1.0000
  C   C27       1.0  0.0663174697168003  0.03505955843068161  0.2686560028794388  1.0000
  C   C28       1.0  0.9336807745336912  0.9649398737044662  0.7313450902998607  1.0000
  C   C29       1.0  0.0828527259290865  0.7664256396049255  0.3019178747888204  1.0000
  C   C30       1.0  0.9171478110082062  0.2335737935153048  0.6980810610407597  1.0000
  C   C31       1.0  0.9704701118908544  0.6629617434288804  0.3023131355382416  1.0000
  C   C32       1.0  0.029530304975722284  0.3370387754108678  0.6976868733175434  1.0000
  C   C33       1.0  0.0003028916745577819  0.50895875346491  0.36045141277462267  1.0000
  C   C34       1.0  0.9996952406110822  0.4910417732598591  0.6395482663708445  1.0000
  C   C35       1.0  0.8688755233714146  0.4165993158076733  0.37555944148607495  1.0000
  C   C36       1.0  0.13112374816499542  0.5834012036482932  0.6244413351620678  1.0000
  C   C37       1.0  0.8894284628135908  0.26335872752918743  0.4367841019514811  1.0000
  C   C38       1.0  0.110569551427794  0.7366428871326322  0.563216028455187  1.0000
  C   C39       1.0  0.7386590016010288  0.19436966380042972  0.460622954706224  1.0000
  C   C40       1.0  0.2613390085874201  0.8056319464263311  0.539378419230452  1.0000
  C   C41       1.0  0.7017029946975627  0.9393305499738034  0.48497417799799064  1.0000
  C   C42       1.0  0.2982950114379578  0.06067105581790603  0.5150284394687074  1.0000
  C   C43       1.0  0.6025970046795236  0.7909964221899487  0.6414847154182224  1.0000
  C   C44       1.0  0.39739997822301376  0.209004100715994  0.3585169750496177  1.0000
  C   C45       1.0  0.6650835782593417  0.7984856739655799  0.5524590702690657  1.0000
  C   C46       1.0  0.33491443192910714  0.20151593626118114  0.44754230366761744  1.0000
  C   C47       1.0  0.6745546225496639  0.6734767843813645  0.5230105354206954  1.0000
  C   C48       1.0  0.32544556025487026  0.32652591255000374  0.47698975419246625  1.0000
  C   C49       1.0  0.6246796523816016  0.5456938716490002  0.5824287739484431  1.0000
  C   C50       1.0  0.3753217917708866  0.45430773451157364  0.41757091837617794  1.0000
  C   C51       1.0  0.564264634095089  0.5467749177219831  0.6699360078653525  1.0000
  C   C52       1.0  0.43573464149424973  0.45322560616903473  0.3300635252527683  1.0000
  N   N1        1.0  0.7705533282587137  0.31407426392500787  0.16490028018625938  1.0000
  N   N2        1.0  0.22944617328679576  0.6859240730042943  0.8351014592345148  1.0000
  N   N3        1.0  0.03645028168845948  0.9132734005883096  0.25346307861369155  1.0000
  N   N4        1.0  0.9635502532223726  0.08672603031438801  0.7465364789808997  1.0000
  N   N5        1.0  0.7405647675272888  0.04454247651533191  0.5140516207201528  1.0000
  N   N6        1.0  0.2594333546260117  0.9554580391218082  0.4859511672503627  1.0000
  N   N7        1.0  0.5534092830881718  0.6673555630529651  0.6985645790005603  1.0000
  N   N8        1.0  0.4465888471710003  0.33264496145427813  0.3014357219099109  1.0000
  N   N9        1.0  0.14773765921404453  0.09393979805152951  0.9385974808666613  1.0000
  N   N10       1.0  0.8522640210269472  0.9060596322349499  0.061401308935565176  1.0000
  O   O1        1.0  0.44012494727773793  0.22432101134350557  0.12897915011509292  1.0000
  O   O2        1.0  0.5598754756682354  0.77567951414882  0.8710189934456589  1.0000
  O   O3        1.0  0.5548488994563244  0.014274583521625998  0.20565794886760358  1.0000
  O   O4        1.0  0.44515369407926636  0.9857270264577739  0.7943397321346449  1.0000
  O   O5        1.0  0.5034829881449951  0.5602696932527496  0.13059205831026327  1.0000
  O   O6        1.0  0.49651742872157456  0.43973082558699883  0.8694079505455217  1.0000
  O   O7        1.0  0.3200810394757454  0.5555444194981477  0.055522748534222906  1.0000
  O   O8        1.0  0.6799206367123176  0.4444550063532803  0.9444772847980186  1.0000
  O   O9        1.0  0.0901013814622971  0.022792969831535007  0.9024523191555498  1.0000
  O   O10       1.0  0.909898923439421  0.9772086435978342  0.09754627566640282  1.0000
  O   O11       1.0  0.1308450978239009  0.2288418490669457  0.9217724406003139  1.0000
  O   O12       1.0  0.869157493685222  0.7711597586949351  0.07822586216693844  1.0000
  O   O13       1.0  0.148228868873943  0.03686561634621911  0.321382563687443  1.0000
  O   O14       1.0  0.8517706346980419  0.9631327228006017  0.6786185539683199  1.0000
  O   O15       1.0  0.6871366889885593  0.9547103139188241  0.40763240526324296  1.0000
  O   O16       1.0  0.3128624624771277  0.04529129125666031  0.5923694444110976  1.0000
