data_image0
_chemical_formula_structural       Al6H65C96N27O28
_chemical_formula_sum              "Al6 H65 C96 N27 O28"
_cell_length_a       13.22577927100525
_cell_length_b       13.205370641480062
_cell_length_c       33.706609163061835
_cell_angle_alpha    83.59998567808336
_cell_angle_beta     83.46939730527606
_cell_angle_gamma    63.55351457969074

_space_group_name_H-M_alt    "P 1"
_space_group_IT_number       1

loop_
  _space_group_symop_operation_xyz
  'x, y, z'

loop_
  _atom_site_type_symbol
  _atom_site_label
  _atom_site_symmetry_multiplicity
  _atom_site_fract_x
  _atom_site_fract_y
  _atom_site_fract_z
  _atom_site_occupancy
  Al  Al1       1.0  0.3993114381152977  0.4204251562536783  0.508910841938409  1.0000
  Al  Al2       1.0  0.6408008297532176  0.4254437233183381  0.4972741938658771  1.0000
  Al  Al3       1.0  0.43114159604022734  0.646622828542391  0.49777008886778873  1.0000
  Al  Al4       1.0  0.9139020184439204  0.9390547681179059  0.9837389434183663  1.0000
  Al  Al5       1.0  0.9107269989494567  0.6972854731745315  0.9963947446404547  1.0000
  Al  Al6       1.0  0.6881849117158153  0.904862793953811  0.9953135362192995  1.0000
  H   H1        1.0  0.11878577917164523  0.5479349766311544  0.0884379493037599  1.0000
  H   H2        1.0  0.10626810187854112  0.861134057592146  0.1606356160232139  1.0000
  H   H3        1.0  0.7663802372424939  0.2820841944537804  0.3941364553010445  1.0000
  H   H4        1.0  0.44995568440547357  0.26088580959555696  0.4090405665429699  1.0000
  H   H5        1.0  0.8555650999037284  0.07622054295400463  0.0850540983902803  1.0000
  H   H6        1.0  0.7779569508198564  0.2608828330246311  0.3205524182228245  1.0000
  H   H7        1.0  0.46176740351800316  0.23771044402005265  0.33520367214917  1.0000
  H   H8        1.0  0.8000790843689742  0.4677559289856177  0.5867107997136358  1.0000
  H   H9        1.0  0.4808672883724939  0.7631987653014392  0.5927004754454686  1.0000
  H   H10       1.0  0.8976837957670868  0.5658646044861372  0.9003870751035593  1.0000
  H   H11       1.0  0.48498632774100503  0.7845032763433297  0.3106348467562015  1.0000
  H   H12       1.0  0.5646719493882556  0.8254648370697809  0.8261429345348149  1.0000
  H   H13       1.0  0.003843048826851728  0.8982755577650607  0.8709923612600505  1.0000
  H   H14       1.0  0.5553076046476306  0.0442084669470191  0.8895723790601409  1.0000
  H   H15       1.0  0.8517684997698255  0.10300261886951743  0.8798814936029372  1.0000
  H   H16       1.0  0.7872347538085265  0.4764659808133018  0.38747203693729665  1.0000
  H   H17       1.0  0.8542279133283162  0.5397420965509951  0.18105317348113198  1.0000
  H   H18       1.0  0.87788459503755  0.5670166212146198  0.10660257866818061  1.0000
  H   H19       1.0  0.8135808705960984  0.4972447320409685  0.31290746714579143  1.0000
  H   H20       1.0  0.5502442441606872  0.8522766051306764  0.106260345222978  1.0000
  H   H21       1.0  0.2527096269933365  0.8236872980592695  0.4246468110508985  1.0000
  H   H22       1.0  0.20991713740405524  0.9010045486304037  0.37987884380171283  1.0000
  H   H23       1.0  0.27488250233047756  0.3768226992921769  0.3522773040088937  1.0000
  H   H24       1.0  0.26874084479327814  0.43679552557437523  0.3034655753057152  1.0000
  H   H25       1.0  0.22879270969445994  0.8069023152074168  0.3195100348861999  1.0000
  H   H26       1.0  0.23097092216100623  0.4648840090474807  0.18638700434289754  1.0000
  H   H27       1.0  0.2068127187312783  0.4210823896615637  0.1420445194238127  1.0000
  H   H28       1.0  0.041289515418789266  0.8990431223195616  0.0911402313446033  1.0000
  H   H29       1.0  0.52498159755892  0.8264359216369853  0.18076482687073536  1.0000
  H   H30       1.0  0.8442944478776367  0.17446171548491662  0.1810533365057765  1.0000
  H   H31       1.0  0.9254916420602585  0.11641815161671329  0.13727115344300242  1.0000
  H   H32       1.0  0.5156761249649264  0.0675329998681988  0.0678329535239257  1.0000
  H   H33       1.0  0.45763479430736004  0.0645927100738533  0.1149590885201235  1.0000
  H   H34       1.0  0.4002962906034923  0.20402214244715117  0.1475863163182822  1.0000
  H   H35       1.0  0.4467593006079155  0.22048174995160957  0.19225410204900584  1.0000
  H   H36       1.0  0.9162005926915954  0.419072206363758  0.638101892367807  1.0000
  H   H37       1.0  0.8819844487960468  0.4924584655084843  0.682120760719883  1.0000
  H   H38       1.0  0.5048816286748091  0.8289827338740354  0.6912844261569191  1.0000
  H   H39       1.0  0.42192355386104197  0.8617555163161014  0.6495055619799573  1.0000
  H   H40       1.0  0.9867662200581223  0.4851799491056711  0.8415087899075075  1.0000
  H   H41       1.0  0.9230666713539222  0.5221844919006814  0.795613077430623  1.0000
  H   H42       1.0  0.5660248910512775  0.8461715194751707  0.8988587917802563  1.0000
  H   H43       1.0  0.9841497915617838  0.9758361697233867  0.7981888627572786  1.0000
  H   H44       1.0  0.04497592956591485  0.8829012429263442  0.761664147419765  1.0000
  H   H45       1.0  0.21275962892369177  0.8189444231119369  0.6745046599833202  1.0000
  H   H46       1.0  0.2764280718958999  0.7873276242435667  0.602047121372479  1.0000
  H   H47       1.0  0.15091283228015578  0.44696076514181027  0.6243441532748123  1.0000
  H   H48       1.0  0.23371908763311214  0.4563789310208862  0.5816126763890991  1.0000
  H   H49       1.0  0.1631260854342712  0.5167118439916436  0.8193124396929434  1.0000
  H   H50       1.0  0.1836831406805075  0.44234029471644487  0.889135253062399  1.0000
  H   H51       1.0  0.10384995072421076  0.5269779658404944  0.926573455228521  1.0000
  H   H52       1.0  0.4599462245137715  0.7636073478394465  0.3848264114432851  1.0000
  H   H53       1.0  0.19232320232254815  0.4225474709905299  0.6843718845175318  1.0000
  H   H54       1.0  0.1262677819054119  0.5195921247595053  0.7187716026362025  1.0000
  H   H55       1.0  0.45684362532396966  0.07609375342146761  0.8279491806479271  1.0000
  H   H56       1.0  0.5142591565920327  0.10491647857421783  0.7817215338521066  1.0000
  H   H57       1.0  0.4808607502626714  0.21090606805355358  0.692415273192701  1.0000
  H   H58       1.0  0.4483905774626109  0.272200551052201  0.6201447155685712  1.0000
  H   H59       1.0  0.7846603633604374  0.24725012884372438  0.5991697854190149  1.0000
  H   H60       1.0  0.8951030968324077  0.1835647180548179  0.8137954552790845  1.0000
  H   H61       1.0  0.8345070455467366  0.18220194909133625  0.7722874310715753  1.0000
  H   H62       1.0  0.8184789139747438  0.18728776553250273  0.6713298906767023  1.0000
  H   H63       1.0  0.28201432053831604  0.46417893948475364  0.4072156588265443  1.0000
  H   H64       1.0  0.34422711264912204  0.27188595709012026  0.5180756367551496  1.0000
  H   H65       1.0  0.044428200615200794  0.006455269017188002  0.993638736888066  1.0000
  C   C1        1.0  0.5925528251865444  0.30181298400882645  0.4481018485619117  1.0000
  C   C2        1.0  0.6514656806325049  0.6430431619569106  0.3067840279685328  1.0000
  C   C3        1.0  0.5518179269189928  0.7183882314676567  0.32760591573197223  1.0000
  C   C4        1.0  0.5383645221766926  0.7073048439152032  0.36904326026369466  1.0000
  C   C5        1.0  0.6015872871189317  0.7692299964537455  0.16434834372329726  1.0000
  C   C6        1.0  0.6153208739959769  0.7833521130567506  0.12300214738288423  1.0000
  C   C7        1.0  0.8003614409722316  0.621857204035564  0.1231532935500965  1.0000
  C   C8        1.0  0.7873806640576291  0.607214548663123  0.16449537046761978  1.0000
  C   C9        1.0  0.6877010427020949  0.6808031508073072  0.18585102317228316  1.0000
  C   C10       1.0  0.6750516952389065  0.6668930494196063  0.2280549687964566  1.0000
  C   C11       1.0  0.6647638653202037  0.6548474008961167  0.2645357042541363  1.0000
  C   C12       1.0  0.6030632149391406  0.6017078207486435  0.4345587287916928  1.0000
  C   C13       1.0  0.714563455956032  0.7100018611991034  0.1019748327382146  1.0000
  C   C14       1.0  0.27053222524845216  0.630507994301169  0.4042007924775248  1.0000
  C   C15       1.0  0.2685540325680478  0.5394681178824287  0.3874096170401273  1.0000
  C   C16       1.0  0.2536075041718604  0.5397442685913064  0.34698454851088206  1.0000
  C   C17       1.0  0.24097207952790714  0.63914238164012  0.3219781833034148  1.0000
  C   C18       1.0  0.23850824687960437  0.7324730419604109  0.33928982361685917  1.0000
  C   C19       1.0  0.25226334996185046  0.7319006616521764  0.379843747652636  1.0000
  C   C20       1.0  0.19213759392827248  0.6658879844434581  0.203540159445275  1.0000
  C   C21       1.0  0.23343711569476966  0.6456610341922513  0.2789438055125473  1.0000
  C   C22       1.0  0.15664642529169728  0.5914301987972337  0.1431600707005884  1.0000
  C   C23       1.0  0.3020422513500094  0.6091893751797386  0.44622646731806265  1.0000
  C   C24       1.0  0.11813623946971316  0.6157779353638446  0.1043372946630114  1.0000
  C   C25       1.0  0.07454832420351211  0.8142221073542331  0.10592322560219002  1.0000
  C   C26       1.0  0.11021455472994289  0.792766603713183  0.14423580302613462  1.0000
  C   C27       1.0  0.15288196298144635  0.6826729812692419  0.1636740301488544  1.0000
  C   C28       1.0  0.07884943408930672  0.7242183265186242  0.0857923086927244  1.0000
  C   C29       1.0  0.6074298879880401  0.2727640549644121  0.4057284586919039  1.0000
  C   C30       1.0  0.7008516818697431  0.27103864061071903  0.3809391279455312  1.0000
  C   C31       1.0  0.7071616314610337  0.25951046932015487  0.3401598596910489  1.0000
  C   C32       1.0  0.6196745161694323  0.24938065177725124  0.3234140099766734  1.0000
  C   C33       1.0  0.5281052608363057  0.24700659903230365  0.3485408091050388  1.0000
  C   C34       1.0  0.591065965564745  0.30491508438593234  0.563322358051586  1.0000
  C   C35       1.0  0.5217778848624022  0.25921374438043193  0.3892650236780142  1.0000
  C   C36       1.0  0.6401732117731314  0.20227952136253438  0.204585013154599  1.0000
  C   C37       1.0  0.6226261873425045  0.2434121700588321  0.2801003630294403  1.0000
  C   C38       1.0  0.7651571860759957  0.12989404522956252  0.1419032771465751  1.0000
  C   C39       1.0  0.776163614133253  0.09720831294807651  0.10317907674281201  1.0000
  C   C40       1.0  0.5856090397366887  0.11113008662290012  0.10873072946821338  1.0000
  C   C41       1.0  0.5687846081978662  0.1520107209246149  0.1473855694778763  1.0000
  C   C42       1.0  0.657900645219982  0.1609557044559793  0.1651961832876836  1.0000
  C   C43       1.0  0.6895605454382335  0.08625614956204689  0.08644735319912658  1.0000
  C   C44       1.0  0.6398052105059476  0.6156861358831806  0.5858280540036631  1.0000
  C   C45       1.0  0.6156633260231529  0.5957905710028869  0.5461693375852975  1.0000
  C   C46       1.0  0.7388532924068867  0.539172487871511  0.6031358657376984  1.0000
  C   C47       1.0  0.7598308918810163  0.5528766558872534  0.6415977085804698  1.0000
  C   C48       1.0  0.6779153054673444  0.6460108026889629  0.6640415066577532  1.0000
  C   C49       1.0  0.5750606547763225  0.7223659870327669  0.6453514661006707  1.0000
  C   C50       1.0  0.5587407737301788  0.7060803539428022  0.6065046447046428  1.0000
  C   C51       1.0  0.7229507014284948  0.6797423892413833  0.7792320293677761  1.0000
  C   C52       1.0  0.6982644322065426  0.6624713623885797  0.7036810136825127  1.0000
  C   C53       1.0  0.8241171879430808  0.6067076044223756  0.8433633066192385  1.0000
  C   C54       1.0  0.823167523263038  0.6207450646295812  0.8843154816001119  1.0000
  C   C55       1.0  0.6364112469539263  0.7794772718962693  0.8832099171520653  1.0000
  C   C56       1.0  0.29411855687911265  0.6203533423837797  0.5609971124877546  1.0000
  C   C57       1.0  0.6360636836687307  0.7675296791768391  0.8430622925572423  1.0000
  C   C58       1.0  0.728405641074417  0.683177343333668  0.8219719370417453  1.0000
  C   C59       1.0  0.7319118994120046  0.7054370498313602  0.9039792222790838  1.0000
  C   C60       1.0  0.2491318612197446  0.638783529180877  0.602664162310333  1.0000
  C   C61       1.0  0.21211507364940013  0.5626086987356871  0.625496604276023  1.0000
  C   C62       1.0  0.17727518151771446  0.5804724996503694  0.6667412781729569  1.0000
  C   C63       1.0  0.1783737998657955  0.6720255500158387  0.6841548057835638  1.0000
  C   C64       1.0  0.21180366771655199  0.7491715991546004  0.660360832563299  1.0000
  C   C65       1.0  0.24728353603445902  0.7313769206168388  0.6206832173277661  1.0000
  C   C66       1.0  0.061193596194065863  0.8057807519421945  0.8176174046651001  1.0000
  C   C67       1.0  0.623478923777327  0.6202275796258547  0.39077441978986377  1.0000
  C   C68       1.0  0.03833319220515107  0.815430184944944  0.8588115365685951  1.0000
  C   C69       1.0  0.10114310453053578  0.6108418628919594  0.8721274461086708  1.0000
  C   C70       1.0  0.12742800780259236  0.6005609075653241  0.8309397076877546  1.0000
  C   C71       1.0  0.10822819855062701  0.6943884827602103  0.8036426895488378  1.0000
  C   C72       1.0  0.13253960229656053  0.6820959147337078  0.7621588204460468  1.0000
  C   C73       1.0  0.15133712108643493  0.6816882944868256  0.7257142653912965  1.0000
  C   C74       1.0  0.05689442724060695  0.721414906937156  0.8862179849107221  1.0000
  C   C75       1.0  0.6153168832182487  0.26140415448880117  0.6054217117786963  1.0000
  C   C76       1.0  0.7194327210867402  0.23786130713212117  0.6198914324684495  1.0000
  C   C77       1.0  0.7379281661610192  0.20487227073456893  0.6599990327016556  1.0000
  C   C78       1.0  0.7226258571515061  0.5445966545896326  0.3703142917972642  1.0000
  C   C79       1.0  0.6519995429695626  0.19474179704021577  0.6867693462436506  1.0000
  C   C80       1.0  0.5475572491689888  0.21798863802236923  0.6718195331835801  1.0000
  C   C81       1.0  0.5295343049704185  0.2511807969261639  0.6317634457679873  1.0000
  C   C82       1.0  0.6060975672334409  0.08933281311129801  0.8293048272525141  1.0000
  C   C83       1.0  0.6147066769940964  0.0682959089043678  0.8707579760446154  1.0000
  C   C84       1.0  0.7833915883589243  0.10143655139967221  0.8651093975735762  1.0000
  C   C85       1.0  0.7760472968778487  0.12336157464562804  0.8238743786301015  1.0000
  C   C86       1.0  0.6875417591246773  0.11740019752137705  0.8053856259665154  1.0000
  C   C87       1.0  0.6784660977452647  0.14138708312880507  0.7639066191189555  1.0000
  C   C88       1.0  0.668031118498483  0.1645362479874777  0.7279022003501225  1.0000
  C   C89       1.0  0.7369755794403403  0.5558733007367778  0.3289022326532205  1.0000
  C   C90       1.0  0.7028855134883188  0.07387996334821882  0.8880950718947673  1.0000
  C   C91       1.0  0.03443078643181259  0.7463403484798617  0.045458034673373504  1.0000
  C   C92       1.0  0.7339978293075049  0.7315505553106904  0.05832547828824633  1.0000
  C   C93       1.0  0.7179853237467809  0.040904134463680505  0.04612079802423351  1.0000
  C   C94       1.0  0.025743275614338736  0.7451754832808959  0.9288788568076355  1.0000
  C   C95       1.0  0.7427695544200007  0.7247679814734627  0.9455137241040674  1.0000
  C   C96       1.0  0.7200070515329812  0.0388046567240821  0.9312329609730058  1.0000
  N   N1        1.0  0.2330287056771282  0.5614225571125999  0.22289476339852854  1.0000
  N   N2        1.0  0.7984747494626773  0.593857785761209  0.7199524112111534  1.0000
  N   N3        1.0  0.6206094276081017  0.7542463335741729  0.723831238282415  1.0000
  N   N4        1.0  0.6326087412637447  0.762957738904703  0.7609077427737319  1.0000
  N   N5        1.0  0.25296596664568927  0.5515521982031616  0.26085805533739403  1.0000
  N   N6        1.0  0.2196868771405748  0.7439902412428835  0.25668794891711144  1.0000
  N   N7        1.0  0.19854678220065125  0.7541755261303679  0.2192869079135917  1.0000
  N   N8        1.0  0.7218259077941057  0.22288747168394002  0.2190519023898077  1.0000
  N   N9        1.0  0.7132574412079011  0.24260732623533002  0.2567451583499718  1.0000
  N   N10       1.0  0.5294422858768114  0.2522806592748523  0.2641054456993146  1.0000
  N   N11       1.0  0.5380196125128408  0.23248259707805366  0.22633372304059657  1.0000
  N   N12       1.0  0.8104293978708056  0.6020718396682483  0.7574515655407482  1.0000
  N   N13       1.0  0.2543873008905635  0.8249335299363666  0.3944077977099951  1.0000
  N   N14       1.0  0.24939973223003156  0.4473496132438442  0.3333648205702744  1.0000
  N   N15       1.0  0.19392489772645385  0.4831067762233233  0.1598470946581543  1.0000
  N   N16       1.0  0.8580463446015686  0.1284838714289265  0.15694863427077624  1.0000
  N   N17       1.0  0.493252641174074  0.10446647477786539  0.0945051657382123  1.0000
  N   N18       1.0  0.46310511879698163  0.1800786974140749  0.1663911792326473  1.0000
  N   N19       1.0  0.8581699669608939  0.47446088954598764  0.657001593088161  1.0000
  N   N20       1.0  0.4913896512735931  0.8109821286329577  0.6642161605341315  1.0000
  N   N21       1.0  0.9161280311732086  0.5206031189025212  0.8261182292673085  1.0000
  N   N22       1.0  0.044053947759380284  0.8976749393370226  0.7906721679104081  1.0000
  N   N23       1.0  0.2118492577278701  0.4691931787626089  0.6113651931027988  1.0000
  N   N24       1.0  0.11471227067058717  0.5141585555580691  0.8968406518462118  1.0000
  N   N25       1.0  0.1409986691408917  0.5055534437820555  0.6890764471736193  1.0000
  N   N26       1.0  0.5232593912004903  0.08029841156957221  0.8111525551646963  1.0000
  N   N27       1.0  0.8582814957885534  0.1453708268109395  0.7999847342860846  1.0000
  O   O1        1.0  0.31885955866777493  0.5138084689031857  0.4636139780596267  1.0000
  O   O2        1.0  0.6831492820288856  0.502110767581293  0.5308570896892348  1.0000
  O   O3        1.0  0.5262986321324873  0.6697599859077671  0.5303550845214602  1.0000
  O   O4        1.0  0.32682819811780917  0.6923280972654027  0.541409351781418  1.0000
  O   O5        1.0  0.49214571264317203  0.4975439656118255  0.5007904494443451  1.0000
  O   O6        1.0  0.8138687537955391  0.022389019969651303  0.0291326897515916  1.0000
  O   O7        1.0  0.013506275401795073  0.8407814765500847  0.026535679658906  1.0000
  O   O8        1.0  0.01649897257240696  0.6668451875784813  0.03309089415085251  1.0000
  O   O9        1.0  0.8270955099672507  0.6632016648695542  0.040954693194919393  1.0000
  O   O10       1.0  0.659404352683488  0.8206930382252864  0.0408501657912197  1.0000
  O   O11       1.0  0.644161917587212  0.0189952489823781  0.0307307656271618  1.0000
  O   O12       1.0  0.5015569605655514  0.314744545307363  0.4683808198767423  1.0000
  O   O13       1.0  0.8078351544567041  0.0329857127648552  0.9446989639255818  1.0000
  O   O14       1.0  0.0004954814728818091  0.8431484021881064  0.939135068634954  1.0000
  O   O15       1.0  0.02258605434730753  0.6639424844396018  0.9543553854459433  1.0000
  O   O16       1.0  0.8334959478216462  0.6567454373353385  0.9622208997385188  1.0000
  O   O17       1.0  0.6649212339563275  0.8123216337722143  0.9615786979276777  1.0000
  O   O18       1.0  0.6464564969514441  0.010872203813995902  0.9518990644073354  1.0000
  O   O19       1.0  0.8367412964263463  0.8459006071718919  0.9921853364627751  1.0000
  O   O20       1.0  0.6723630045517268  0.318516878959656  0.460658510357149  1.0000
  O   O21       1.0  0.6730305771538808  0.5102036187829669  0.452251682329269  1.0000
  O   O22       1.0  0.5128422726456777  0.6756363654242322  0.4518633471815576  1.0000
  O   O23       1.0  0.3162145791982809  0.6863349190744686  0.4626260877818212  1.0000
  O   O24       1.0  0.30269360201229745  0.532664358636801  0.5457757610333687  1.0000
  O   O25       1.0  0.49273361547781047  0.331463837843188  0.5531312058277608  1.0000
  O   O26       1.0  0.6706714342258663  0.3164120779971854  0.5401277567921952  1.0000
  O   O27       1.0  0.308550074394944  0.35326806917758796  0.5194187539584973  1.0000
  O   O28       1.0  0.9864029707919502  0.024064818639750702  0.9754809889824473  1.0000
