data_image0
_chemical_formula_structural       Zn4H36C64N4O32
_chemical_formula_sum              "Zn4 H36 C64 N4 O32"
_cell_length_a       4.665606076347108
_cell_length_b       16.15588678870775
_cell_length_c       20.75315376884311
_cell_angle_alpha    84.27604358934288
_cell_angle_beta     83.52422962379254
_cell_angle_gamma    81.69600634470112

_space_group_name_H-M_alt    "P 1"
_space_group_IT_number       1

loop_
  _space_group_symop_operation_xyz
  'x, y, z'

loop_
  _atom_site_type_symbol
  _atom_site_label
  _atom_site_symmetry_multiplicity
  _atom_site_fract_x
  _atom_site_fract_y
  _atom_site_fract_z
  _atom_site_occupancy
  Zn  Zn1       1.0  0.6070355320319859  0.1166081245129291  0.5372957992191729  1.0000
  Zn  Zn2       1.0  0.26102699467694634  0.3833824117298121  0.9627062797498593  1.0000
  Zn  Zn3       1.0  0.39296602657628926  0.8833917817575951  0.4627040977890146  1.0000
  Zn  Zn4       1.0  0.7389698768539577  0.6166174945407191  0.03729399048552299  1.0000
  H   H1        1.0  0.8035074172514743  0.7576655941121329  0.8542357258717386  1.0000
  H   H2        1.0  0.4155465926997831  0.7423656549353979  0.6457551480702861  1.0000
  H   H3        1.0  0.19649203876571167  0.2423343121583912  0.14576411680244658  1.0000
  H   H4        1.0  0.5844526746646891  0.2576336235422971  0.35424521780706897  1.0000
  H   H5        1.0  0.9346510592535822  0.2142098209525116  0.800535591316901  1.0000
  H   H6        1.0  0.9492960431471925  0.2858208940316587  0.6994614355682669  1.0000
  H   H7        1.0  0.06535098124989254  0.7857900853180197  0.19946382379609412  1.0000
  H   H8        1.0  0.050703119627506385  0.714179640031702  0.30053836579794785  1.0000
  H   H9        1.0  0.6180384261094999  0.8246705511624126  0.7048473995426575  1.0000
  H   H10       1.0  0.14779874832432663  0.675387065184182  0.7951310010367082  1.0000
  H   H11       1.0  0.38196390763646104  0.1753287273152822  0.2951520568783152  1.0000
  H   H12       1.0  0.8522002257976595  0.3246128410863491  0.20486932353267653  1.0000
  H   H13       1.0  0.3231790694499211  0.0278633293866122  0.824190682939168  1.0000
  H   H14       1.0  0.17517132047047554  0.4722000308249648  0.6758093330353745  1.0000
  H   H15       1.0  0.6768203865672647  0.972136576883919  0.17580915973501726  1.0000
  H   H16       1.0  0.8248279468940041  0.52779924765273  0.3241910328419806  1.0000
  H   H17       1.0  0.0105937147956822  0.2121381045976918  0.4574249967912323  1.0000
  H   H18       1.0  0.6799318005773498  0.2878172752463044  0.04257682845192788  1.0000
  H   H19       1.0  0.9894067754324136  0.7878630572585053  0.5425752994962139  1.0000
  H   H20       1.0  0.32006765543983534  0.712182631024227  0.9574230142222575  1.0000
  H   H21       1.0  0.15121939577585422  0.3540456525599396  0.4456253192163685  1.0000
  H   H22       1.0  0.9507565123273237  0.14592730548342556  0.05435236456586519  1.0000
  H   H23       1.0  0.848781387694736  0.6459548815034211  0.554375018379055  1.0000
  H   H24       1.0  0.04924265044736858  0.8540732285799351  0.9456474368003495  1.0000
  H   H25       1.0  0.4877028715175839  0.4175443866279025  0.6028398281897864  1.0000
  H   H26       1.0  0.5082295644561227  0.08242794362263338  0.897155935373597  1.0000
  H   H27       1.0  0.5122979119529988  0.5824561474354653  0.3971605094056372  1.0000
  H   H28       1.0  0.4917701848035562  0.9175713348550616  0.10284394860855879  1.0000
  H   H29       1.0  0.36949323294808073  0.2700928001415974  0.6080158966452486  1.0000
  H   H30       1.0  0.24765013008219233  0.2298895747942922  0.891996755851835  1.0000
  H   H31       1.0  0.6305038272355292  0.7299077339217703  0.39198385038695693  1.0000
  H   H32       1.0  0.7523496191774863  0.7701097036834028  0.10800312813032056  1.0000
  H   H33       1.0  0.761361905084648  0.5238962595988212  0.5556821639360763  1.0000
  H   H34       1.0  0.8410046167381816  0.9760803714720865  0.9443389333259091  1.0000
  H   H35       1.0  0.23864127421951772  0.4761036466717101  0.44431826930132695  1.0000
  H   H36       1.0  0.1589948392790035  0.0239195347984449  0.055660909348276284  1.0000
  C   C1        1.0  0.49878638815111054  0.8867937911293424  0.7110432540656504  1.0000
  C   C2        1.0  0.09701776907454726  0.6132431080537086  0.7889509556205638  1.0000
  C   C3        1.0  0.5012130678660753  0.1132061151411889  0.28895658860853496  1.0000
  C   C4        1.0  0.9029814982899325  0.3867561704239861  0.2110494102567912  1.0000
  C   C5        1.0  0.36568442658955996  0.9313476208217537  0.6587495957688175  1.0000
  C   C6        1.0  0.9562303979159311  0.5686748391260892  0.8412575327778169  1.0000
  C   C7        1.0  0.6343130314263162  0.0686510298631049  0.34125075708250546  1.0000
  C   C8        1.0  0.04376828296356901  0.4313256949372715  0.1587427504835901  1.0000
  C   C9        1.0  0.21901930246548298  0.0131340538966995  0.6653200779561529  1.0000
  C   C10       1.0  0.8977837382238076  0.4868972888803  0.8347102662662207  1.0000
  C   C11       1.0  0.7809809286893953  0.9868652245809955  0.33467932413081053  1.0000
  C   C12       1.0  0.10221601103587113  0.513101989597395  0.16528961771594194  1.0000
  C   C13       1.0  0.20276401055208768  0.04777942927758259  0.725840563672328  1.0000
  C   C14       1.0  0.9765173878034618  0.4522437521925723  0.7741803227736382  1.0000
  C   C15       1.0  0.7972377367088936  0.9522211047857851  0.27415881013268967  1.0000
  C   C16       1.0  0.023481293076038284  0.5477567818707954  0.2258199604877689  1.0000
  C   C17       1.0  0.3366005842283358  0.001271908283293  0.777672865558415  1.0000
  C   C18       1.0  0.11564398581482738  0.4987713625575765  0.7223350881651242  1.0000
  C   C19       1.0  0.6634009743799395  0.9987279979872383  0.22232703144977958  1.0000
  C   C20       1.0  0.884355281549652  0.5012279159201185  0.2776652777122308  1.0000
  C   C21       1.0  0.48695721971531475  0.9211679600055902  0.7704830189438852  1.0000
  C   C22       1.0  0.17896187389749954  0.5788419440855606  0.7295171763683611  1.0000
  C   C23       1.0  0.513045302683352  0.0788319462649412  0.22951591427391088  1.0000
  C   C24       1.0  0.82103949605807  0.4211573343921344  0.2704832438430032  1.0000
  C   C25       1.0  0.63541488141842  0.8735787519569485  0.825715873412548  1.0000
  C   C26       1.0  0.33506524168529944  0.6264198518631758  0.6742698822458165  1.0000
  C   C27       1.0  0.3645863839473619  0.1264217821064122  0.17428398228766884  1.0000
  C   C28       1.0  0.664934682584679  0.3735794266145191  0.3257319836511385  1.0000
  C   C29       1.0  0.3998289475262879  0.889640831635127  0.5961773713036604  1.0000
  C   C30       1.0  0.8858501934313171  0.6104117623687912  0.9038151977078428  1.0000
  C   C31       1.0  0.6001706130806782  0.11035781904973158  0.40382303588167184  1.0000
  C   C32       1.0  0.11414955582835525  0.3895875161089036  0.09618468627431297  1.0000
  C   C33       1.0  0.06891017195779627  0.061073570347154785  0.6095417589463209  1.0000
  C   C34       1.0  0.7396986806133724  0.438999834549783  0.890517725676858  1.0000
  C   C35       1.0  0.9310895773018827  0.9389257081305402  0.3904581250358347  1.0000
  C   C36       1.0  0.2603007754038131  0.5610000717207482  0.10948211699732718  1.0000
  C   C37       1.0  0.05661816596126822  0.1344217462001822  0.7357372586680382  1.0000
  C   C38       1.0  0.9271114529356836  0.36558134589925817  0.7642712437666646  1.0000
  C   C39       1.0  0.9433833926470072  0.8655781600703492  0.2642626383401563  1.0000
  C   C40       1.0  0.07288541859522005  0.6344185603712731  0.23572902646871086  1.0000
  C   C41       1.0  0.8964553851922257  0.2595678532662902  0.4882819354730401  1.0000
  C   C42       1.0  0.6441350529131283  0.2403956878845506  0.011718523761388194  1.0000
  C   C43       1.0  0.1035445527201588  0.7404320530042341  0.5117174253059459  1.0000
  C   C44       1.0  0.3558639212088654  0.7596042183859737  0.9882818008079962  1.0000
  C   C45       1.0  0.9750912398706859  0.3393283051338898  0.4822137329419575  1.0000
  C   C46       1.0  0.796514396289261  0.1606415139453006  0.017777017268741698  1.0000
  C   C47       1.0  0.024911834843699337  0.6606728567223072  0.5177861357842986  1.0000
  C   C48       1.0  0.20348428459023873  0.8393590201180601  0.9822232659926725  1.0000
  C   C49       1.0  0.8277521077786434  0.3991161557553937  0.5235476516711515  1.0000
  C   C50       1.0  0.7503772740963441  0.1008643358019938  0.9764440383157549  1.0000
  C   C51       1.0  0.17224867569194666  0.600884378307974  0.47645268592427203  1.0000
  C   C52       1.0  0.24962380261673892  0.8991355704685304  0.023556340587631994  1.0000
  C   C53       1.0  0.6061632017972017  0.3734111781347949  0.5697155340395951  1.0000
  C   C54       1.0  0.5493400108434798  0.1265642910799087  0.9302792555134117  1.0000
  C   C55       1.0  0.39383758167338795  0.6265893559285658  0.43028480355582127  1.0000
  C   C56       1.0  0.45066232290248104  0.873434987397786  0.06972020090756098  1.0000
  C   C57       1.0  0.5397336841742941  0.2920611548095025  0.5728645291791564  1.0000
  C   C58       1.0  0.4046584710461686  0.2079099198553607  0.9271410868080564  1.0000
  C   C59       1.0  0.46026577184289136  0.7079387514610289  0.4271353134950288  1.0000
  C   C60       1.0  0.5953414668662161  0.7920899864151707  0.07285827397092959  1.0000
  C   C61       1.0  0.8947279543769893  0.484438852139256  0.5208498920693003  1.0000
  C   C62       1.0  0.9000237521592285  0.015546661760808397  0.9791561964092422  1.0000
  C   C63       1.0  0.10527444978948354  0.5155616819241118  0.4791509817553177  1.0000
  C   C64       1.0  0.09997858158673256  0.9844526167168866  0.020843260011730463  1.0000
  N   N1        1.0  0.6823454796471039  0.2359471478572104  0.5326738362447472  1.0000
  N   N2        1.0  0.45087514100648507  0.2640132543294627  0.9673391659816486  1.0000
  N   N3        1.0  0.31765549247619185  0.7640540139989864  0.4673259781475068  1.0000
  N   N4        1.0  0.5491243150107011  0.7359866519410687  0.03266067669253658  1.0000
  O   O1        1.0  0.7066560639612903  0.7924559896378511  0.816657867815536  1.0000
  O   O2        1.0  0.3161051704445584  0.7075344528754213  0.6833436176853735  1.0000
  O   O3        1.0  0.2933430988134019  0.2075445444255095  0.18334193355067893  1.0000
  O   O4        1.0  0.6838959062685177  0.2924654533951099  0.3166567612180202  1.0000
  O   O5        1.0  0.6837314082266844  0.9069773307679299  0.8735127901146312  1.0000
  O   O6        1.0  0.4645450962775613  0.5930156229166812  0.6264555183030182  1.0000
  O   O7        1.0  0.3162659451994188  0.0930225755026015  0.12648699822555187  1.0000
  O   O8        1.0  0.5354546529821108  0.4069836555610138  0.3735443656791375  1.0000
  O   O9        1.0  0.5166695571397637  0.8141625546936524  0.5948293096475652  1.0000
  O   O10       1.0  0.9256062475506397  0.6859182899878318  0.9051572442644583  1.0000
  O   O11       1.0  0.4833330698486903  0.1858360959912133  0.405170188081378  1.0000
  O   O12       1.0  0.07439214008636694  0.314082871868365  0.0948429976889855  1.0000
  O   O13       1.0  0.3108672615059403  0.9350628988180603  0.5459673978450752  1.0000
  O   O14       1.0  0.791942092578758  0.5649966009070369  0.9540206977056228  1.0000
  O   O15       1.0  0.6891321945112449  0.0649370074524711  0.4540324448291102  1.0000
  O   O16       1.0  0.20805898413431825  0.4350033053634874  0.045979681197771086  1.0000
  O   O17       1.0  0.19449155741701654  0.1094468916464493  0.5672558018420588  1.0000
  O   O18       1.0  0.8711617476509376  0.3906692031632559  0.9328397951804631  1.0000
  O   O19       1.0  0.8055077099474629  0.8905523868312457  0.43274456403529626  1.0000
  O   O20       1.0  0.12883770836624814  0.6093307031072754  0.06716004749372219  1.0000
  O   O21       1.0  0.8043320823785078  0.0503784916136212  0.6095781881592828  1.0000
  O   O22       1.0  0.4644873050347442  0.4496735683269293  0.8904448498272758  1.0000
  O   O23       1.0  0.19566947622976733  0.9496214146569029  0.39042170884890476  1.0000
  O   O24       1.0  0.5355113758447559  0.5503269657364314  0.10955543343413857  1.0000
  O   O25       1.0  0.981164505248849  0.1864789558540352  0.6902748933396481  1.0000
  O   O26       1.0  0.8587668975277297  0.3134808185398015  0.8097635808206504  1.0000
  O   O27       1.0  0.01883753525461868  0.8135209504164889  0.3097245217733473  1.0000
  O   O28       1.0  0.1412299740031673  0.6865190877307297  0.1902366894147249  1.0000
  O   O29       1.0  0.018828550491349474  0.15250971335623115  0.7975681915776393  1.0000
  O   O30       1.0  0.9689231119511845  0.3475115847354147  0.7024290737240548  1.0000
  O   O31       1.0  0.9811716806635217  0.8474895651214638  0.20243121050932433  1.0000
  O   O32       1.0  0.031077964761898533  0.6524883215351096  0.2975713051793321  1.0000
