data_image0
_chemical_formula_structural       Hg2H20C24N8Cl4
_chemical_formula_sum              "Hg2 H20 C24 N8 Cl4"
_cell_length_a       7.98238136399726
_cell_length_b       8.897512294006392
_cell_length_c       10.867319381842734
_cell_angle_alpha    102.92534835912203
_cell_angle_beta     99.1927699975173
_cell_angle_gamma    110.910816596505

_space_group_name_H-M_alt    "P 1"
_space_group_IT_number       1

loop_
  _space_group_symop_operation_xyz
  'x, y, z'

loop_
  _atom_site_type_symbol
  _atom_site_label
  _atom_site_symmetry_multiplicity
  _atom_site_fract_x
  _atom_site_fract_y
  _atom_site_fract_z
  _atom_site_occupancy
  Hg  Hg1       1.0  0.5248310163496154  0.41726271338001203  0.2938865427058418  1.0000
  Hg  Hg2       1.0  0.4751659489874526  0.5827361289560642  0.7061131071336819  1.0000
  H   H1        1.0  0.6847840257725294  0.45517804911006016  0.04856610466562469  1.0000
  H   H2        1.0  0.31521651716768406  0.544823306188725  0.9514307080682942  1.0000
  H   H3        1.0  0.7925822650424548  0.3267391412904956  0.8675317387199261  1.0000
  H   H4        1.0  0.20742290702703772  0.6732610575674017  0.13246905185611987  1.0000
  H   H5        1.0  0.8449968364052011  0.0620800736662304  0.8698676113502021  1.0000
  H   H6        1.0  0.15501008623851217  0.9379239692016128  0.13013866538859284  1.0000
  H   H7        1.0  0.7914702672528335  0.9453295160779619  0.053545047375550346  1.0000
  H   H8        1.0  0.20853368670222489  0.05467070028057461  0.9464583742231343  1.0000
  H   H9        1.0  0.7591805710053802  0.19413053352701581  0.35966623027528755  1.0000
  H   H10       1.0  0.2408180486239431  0.8058720976591047  0.6403342838438919  1.0000
  H   H11       1.0  0.5378903144170762  0.03586684295856911  0.26616521814545996  1.0000
  H   H12       1.0  0.46210958109585915  0.9641358038228559  0.7338354380809308  1.0000
  H   H13       1.0  0.11960149815477909  0.22864848832082177  0.3764921293035855  1.0000
  H   H14       1.0  0.8803992370639404  0.7713503677052101  0.6235051737277362  1.0000
  H   H15       1.0  0.3876421404594196  0.1582800376604183  0.4417176164560389  1.0000
  H   H16       1.0  0.6123568059577309  0.8417175618842663  0.5582811051280815  1.0000
  H   H17       1.0  0.34548122643971607  0.861523325030646  0.41975611221136694  1.0000
  H   H18       1.0  0.654519053630224  0.13847432320527991  0.5802455246098291  1.0000
  H   H19       1.0  0.03129029858371987  0.6260637396865151  0.3415345906083545  1.0000
  H   H20       1.0  0.9687072759532853  0.3739363986955198  0.658468120454238  1.0000
  C   C1        1.0  0.7131382532511307  0.34379123061673067  0.04796112867705201  1.0000
  C   C2        1.0  0.28686248196758146  0.6562076254093087  0.9520361743542696  1.0000
  C   C3        1.0  0.7728235238678207  0.27076308183357883  0.9462652799723305  1.0000
  C   C4        1.0  0.22717724986368648  0.7292357962564255  0.05373387181222714  1.0000
  C   C5        1.0  0.8011735739613  0.1256068432223927  0.9481378904278019  1.0000
  C   C6        1.0  0.19883053375946963  0.8743908517994328  0.05186417271504953  1.0000
  C   C7        1.0  0.7721719176061865  0.0601572939189694  0.0519578820061639  1.0000
  C   C8        1.0  0.22782876012879422  0.9398441386036821  0.9480454013640838  1.0000
  C   C9        1.0  0.7174553522350776  0.1435293492934733  0.1517589937293309  1.0000
  C   C10       1.0  0.28254342115996417  0.8564707605559363  0.8482401619340083  1.0000
  C   C11       1.0  0.6867220223296682  0.0858450936868493  0.2703161031670832  1.0000
  C   C12       1.0  0.3132791298104891  0.9141575576578945  0.7296837707899047  1.0000
  C   C13       1.0  0.9240838313818998  0.9638745070873965  0.3215337013221173  1.0000
  C   C14       1.0  0.07591932109473021  0.0361269124979344  0.6784661687560959  1.0000
  C   C15       1.0  0.09951727717431418  0.0985834902544696  0.3672966816100925  1.0000
  C   C16       1.0  0.9004790789628173  0.9014140560356553  0.6326999070063553  1.0000
  C   C17       1.0  0.24834329827734783  0.05689513732274071  0.40279968613925393  1.0000
  C   C18       1.0  0.7516554366048991  0.943104950462711  0.5971976207708495  1.0000
  C   C19       1.0  0.2243202208288154  0.8883361015625583  0.3918898104257949  1.0000
  C   C20       1.0  0.7756751094723878  0.11165896295545247  0.6081098995106943  1.0000
  C   C21       1.0  0.0499223223120495  0.7550768229041296  0.3473576327477447  1.0000
  C   C22       1.0  0.95007153982705  0.2449207252913368  0.6526414447841234  1.0000
  C   C23       1.0  0.8981936410799063  0.7957306465859588  0.3127560242591444  1.0000
  C   C24       1.0  0.101803324257169  0.20426819575011732  0.6872436255803793  1.0000
  N   N1        1.0  0.68693497589134  0.28233078536180045  0.14876043562099284  1.0000
  N   N2        1.0  0.31306232934158357  0.7176718081650649  0.8512380876377251  1.0000
  N   N3        1.0  0.7472294420103507  0.9532927367925694  0.28192638170020257  1.0000
  N   N4        1.0  0.2527705880119058  0.04670737762016591  0.7180719916937337  1.0000
  N   N5        1.0  0.6208965714153079  0.7926427386249416  0.2524826025710923  1.0000
  N   N6        1.0  0.3791040678068852  0.20735867183374526  0.747518832045927  1.0000
  N   N7        1.0  0.7096799564870507  0.697736030086638  0.27032846063057303  1.0000
  N   N8        1.0  0.2903188554207787  0.30226410182672936  0.7296725437860092  1.0000
  Cl  Cl1       1.0  0.7097561023987993  0.448590428033434  0.5036793198703863  1.0000
  Cl  Cl2       1.0  0.290240728428948  0.5514109466713393  0.49632261280159196  1.0000
  Cl  Cl3       1.0  0.24623157343784635  0.3409609927928656  0.1311884678226249  1.0000
  Cl  Cl4       1.0  0.7537688542494436  0.6590429059065955  0.86881155212037  1.0000
