data_image0
_chemical_formula_structural       AlH9C27N6O18
_chemical_formula_sum              "Al1 H9 C27 N6 O18"
_cell_length_a       4.2477963653970985
_cell_length_b       16.118147907321056
_cell_length_c       16.118281885664828
_cell_angle_alpha    119.87572967217542
_cell_angle_beta     90.93392943632892
_cell_angle_gamma    90.93567607563516

_space_group_name_H-M_alt    "P 1"
_space_group_IT_number       1

loop_
  _space_group_symop_operation_xyz
  'x, y, z'

loop_
  _atom_site_type_symbol
  _atom_site_label
  _atom_site_symmetry_multiplicity
  _atom_site_fract_x
  _atom_site_fract_y
  _atom_site_fract_z
  _atom_site_occupancy
  Al  Al1       1.0  0.9999942174446661  0.49931844191082325  0.5005681229534956  1.0000
  H   H1        1.0  0.5000287016360119  0.9218687499692708  0.0780086620026808  1.0000
  H   H2        1.0  0.4867055589080849  0.6550578780926629  0.07794973034378219  1.0000
  H   H3        1.0  0.5131779095755675  0.9219287678876287  0.344816996358901  1.0000
  H   H4        1.0  0.7686644947254919  0.059748010920259303  0.16844825375086708  1.0000
  H   H5        1.0  0.2118044418124114  0.052024078165842993  0.38752707161673766  1.0000
  H   H6        1.0  0.23141359478137252  0.8314576524945495  0.9401364524219104  1.0000
  H   H7        1.0  0.7880750690249557  0.6123435054946358  0.947877672328289  1.0000
  H   H8        1.0  0.7350578086104279  0.6047869082689704  0.16191304656850045  1.0000
  H   H9        1.0  0.264858841320212  0.8380051335823782  0.39510930397702987  1.0000
  C   C1        1.0  0.515273828560943  0.5722645758248462  0.64632712685804  1.0000
  C   C2        1.0  0.4999874953560095  0.5721526221666977  0.4277679861937855  1.0000
  C   C3        1.0  0.4847345297587681  0.35356737179955633  0.42760523166781883  1.0000
  C   C4        1.0  0.5033595286763343  0.7825706311798798  0.06634321515538485  1.0000
  C   C5        1.0  0.5000696795338372  0.8828006191388627  0.11709145708582017  1.0000
  C   C6        1.0  0.49665361086852033  0.9335443367259871  0.21730966312331643  1.0000
  C   C7        1.0  0.5002795206533789  0.8825692506433428  0.266799417447018  1.0000
  C   C8        1.0  0.4999365405455194  0.7821833236155487  0.21769214327327552  1.0000
  C   C9        1.0  0.4996398020624041  0.7330933190421974  0.11732130835610377  1.0000
  C   C10       1.0  0.6306216114743393  0.19243081954888203  0.28461272656515035  1.0000
  C   C11       1.0  0.6401715912959319  0.09319122739460543  0.23470285172066946  1.0000
  C   C12       1.0  0.4920201813323288  0.039249996308278405  0.26989794345554685  1.0000
  C   C13       1.0  0.3369583233163596  0.08905498827209613  0.3565439992838505  1.0000
  C   C14       1.0  0.33651308553942977  0.18846632633309923  0.40575921720771646  1.0000
  C   C15       1.0  0.48196566785989603  0.2445501680520722  0.37237065660931984  1.0000
  C   C16       1.0  0.35986011189886097  0.7651899539194958  0.9066980767500253  1.0000
  C   C17       1.0  0.3694668712933691  0.7152774435133226  0.8074531832893255  1.0000
  C   C18       1.0  0.5180291130928438  0.627499986907843  0.7553415123796369  1.0000
  C   C19       1.0  0.6634112436726766  0.5941037853644672  0.8114298653784927  1.0000
  C   C20       1.0  0.6629700353645872  0.6433362681819761  0.9108395556424467  1.0000
  C   C21       1.0  0.5079609291208482  0.7299852883655191  0.9606367428888374  1.0000
  C   C22       1.0  0.629417134549925  0.6384786779752929  0.2319766707387814  1.0000
  C   C23       1.0  0.6307847595264633  0.5897816532315121  0.28280628743999603  1.0000
  C   C24       1.0  0.4999351116906113  0.626167400298066  0.3737561208764789  1.0000
  C   C25       1.0  0.369118237960727  0.7171272368845367  0.41013784011436627  1.0000
  C   C26       1.0  0.3705010061724892  0.7679375762165394  0.36142301595443627  1.0000
  C   C27       1.0  0.4999372575522544  0.729248279056414  0.27066178956899745  1.0000
  N   N1        1.0  0.17702729565979783  0.23459244520002195  0.4986349872050936  1.0000
  N   N2        1.0  0.7841456587608135  0.24294888840490367  0.23983818331098658  1.0000
  N   N3        1.0  0.21604687641067952  0.7600557925053479  0.756922325768059  1.0000
  N   N4        1.0  0.8228785713831568  0.501226802161412  0.7653152465619256  1.0000
  N   N5        1.0  0.7711439519774788  0.4934109357757992  0.22888540897777435  1.0000
  N   N6        1.0  0.2287774389667518  0.771056306154499  0.5065131169680869  1.0000
  O   O1        1.0  0.24484803683265707  0.39233794532862026  0.41560682432544377  1.0000
  O   O2        1.0  0.2716903879788006  0.5206171851257652  0.6064760291374043  1.0000
  O   O3        1.0  0.267903167898865  0.5836358753937108  0.4804308643815958  1.0000
  O   O4        1.0  0.7282584789443263  0.39341569241229024  0.47926299330498506  1.0000
  O   O5        1.0  0.7320678887509047  0.5194982510005205  0.4162788335520133  1.0000
  O   O6        1.0  0.7551148287491715  0.5842672111686299  0.6075520823887287  1.0000
  O   O7        1.0  0.2535442109995998  0.31837495127866333  0.55570257557288  1.0000
  O   O8        1.0  0.9806186617395838  0.1850105114408578  0.5122334378451894  1.0000
  O   O9        1.0  0.6983536456919878  0.3246838660378161  0.2657131363481681  1.0000
  O   O10       1.0  0.9844596437317108  0.19906206933210066  0.17923485009087867  1.0000
  O   O11       1.0  0.30190713025189087  0.7341533080378327  0.6751871837045229  1.0000
  O   O12       1.0  0.01576654410281719  0.8206746540006905  0.8007882897700752  1.0000
  O   O13       1.0  0.74641432873635  0.44415991707110464  0.6815291854884364  1.0000
  O   O14       1.0  0.019248257420592597  0.48763486331399264  0.8149086147907028  1.0000
  O   O15       1.0  0.03240038179344399  0.48209263556154985  0.2551838422414789  1.0000
  O   O16       1.0  0.6188902883262841  0.4342481837083696  0.15710218959926434  1.0000
  O   O17       1.0  0.9675582853598357  0.7447490873060405  0.5178539664771691  1.0000
  O   O18       1.0  0.38100776229671857  0.8428591219438106  0.5656508079450617  1.0000
