data_image0
_chemical_formula_structural       Cd4H48C56O24
_chemical_formula_sum              "Cd4 H48 C56 O24"
_cell_length_a       5.733468309
_cell_length_b       7.697960414
_cell_length_c       29.141
_cell_angle_alpha    90.0
_cell_angle_beta     90.0
_cell_angle_gamma    90.0

_space_group_name_H-M_alt    "P 1"
_space_group_IT_number       1

loop_
  _space_group_symop_operation_xyz
  'x, y, z'

loop_
  _atom_site_type_symbol
  _atom_site_label
  _atom_site_symmetry_multiplicity
  _atom_site_fract_x
  _atom_site_fract_y
  _atom_site_fract_z
  _atom_site_occupancy
  Cd  Cd1       1.0  0.4634768794010284  0.9432797272890738  0.2499910778628021  1.0000
  Cd  Cd2       1.0  0.0365363491538204  0.443268062770791  0.7500116674101776  1.0000
  Cd  Cd3       1.0  0.9634744106510098  0.5567253882217713  0.2500116674101776  1.0000
  Cd  Cd4       1.0  0.5365356245487902  0.056708527521927  0.7499897052263123  1.0000
  H   H1        1.0  0.4857060072397417  0.5924803135782923  0.2768408771147151  1.0000
  H   H2        1.0  0.014308965460088504  0.0924595557422663  0.7231594660444074  1.0000
  H   H3        1.0  0.9857035384897233  0.9075351942956902  0.2231615249991421  1.0000
  H   H4        1.0  0.5142925435501837  0.4075105393234892  0.7768391613191028  1.0000
  H   H5        1.0  0.5142785903903048  0.4075261278681879  0.7231855461377421  1.0000
  H   H6        1.0  0.9857140033596397  0.9075520818857756  0.2768147970213803  1.0000
  H   H7        1.0  0.014301988880149004  0.0924335748344376  0.7768120517483936  1.0000
  H   H8        1.0  0.4857129838196884  0.5924556317158505  0.223186918774239  1.0000
  H   H9        1.0  0.2968831269770931  0.2772851359586142  0.2764942864006058  1.0000
  H   H10       1.0  0.20313882230268382  0.7772565300697565  0.7235053704402716  1.0000
  H   H11       1.0  0.7968719375021467  0.2227317247412373  0.2235091451906257  1.0000
  H   H12       1.0  0.7031224003927791  0.7227161093062977  0.7764932569232386  1.0000
  H   H13       1.0  0.703136353552658  0.7226862312622941  0.7235280189423818  1.0000
  H   H14       1.0  0.7968806582270745  0.22270054765184  0.2764740400123529  1.0000
  H   H15       1.0  0.20312835743276741  0.7772903052499345  0.7764726673758631  1.0000
  H   H16       1.0  0.2968761503971535  0.2773111168664428  0.2235280189423818  1.0000
  H   H17       1.0  0.06552752710087621  0.12374056877035142  0.3661748052571951  1.0000
  H   H18       1.0  0.4344804690190216  0.6237197571538431  0.6338275968566619  1.0000
  H   H19       1.0  0.5655250583508575  0.3763256556543766  0.13382450842456  1.0000
  H   H20       1.0  0.9344692795440751  0.876263274585348  0.8661772073710593  1.0000
  H   H21       1.0  0.9345652075182687  0.8763477125357966  0.6337960262173539  1.0000
  H   H22       1.0  0.5654570366964222  0.3763906079239518  0.3661981400775574  1.0000
  H   H23       1.0  0.4345153519187264  0.6235937497508672  0.8661940221680808  1.0000
  H   H24       1.0  0.0654560171564711  0.12363014991206711  0.1338004872859528  1.0000
  H   H25       1.0  0.2286347336990247  0.1423506930494298  0.443444974434648  1.0000
  H   H26       1.0  0.2713680299859149  0.6423350776144972  0.5565546824062295  1.0000
  H   H27       1.0  0.7286026144842523  0.3576882514220756  0.0565498781785081  1.0000
  H   H28       1.0  0.7713655612358963  0.8576635426693928  0.9434484060258725  1.0000
  H   H29       1.0  0.7714632333550783  0.857738887302105  0.5565275728355203  1.0000
  H   H30       1.0  0.7285747081644871  0.3577596989186063  0.4434683092550031  1.0000
  H   H31       1.0  0.2713924480157104  0.6422207616200382  0.9434635050272817  1.0000
  H   H32       1.0  0.22856496789960803  0.1422558627358512  0.0565303181085071  1.0000
  H   H33       1.0  0.636148977099019  0.8553590361448187  0.4956442812532201  1.0000
  H   H34       1.0  0.863887220275558  0.3553629601712345  0.5043553755876573  1.0000
  H   H35       1.0  0.1360712151797117  0.644640883184465  0.0043536597920451  1.0000
  H   H36       1.0  0.36388620073560674  0.14463571389313765  0.9956432517758458  1.0000
  H   H37       1.0  0.3639018980404742  0.1448110850209972  0.504333413403792  1.0000
  H   H38       1.0  0.1361758638788331  0.6448461323563279  0.4956665865962079  1.0000
  H   H39       1.0  0.8638052454612435  0.3551538138631969  0.9956641844823437  1.0000
  H   H40       1.0  0.6361228149242422  0.8551940573800962  0.0043354723585338  1.0000
  H   H41       1.0  0.4707307783952359  0.8464280990780395  0.4180481109090265  1.0000
  H   H42       1.0  0.0292807060146245  0.3464255278774928  0.5819536048865857  1.0000
  H   H43       1.0  0.9706986591804636  0.65360819352221  0.08195429120483057  1.0000
  H   H44       1.0  0.5292852138445455  0.1535549595513928  0.9180463951134141  1.0000
  H   H45       1.0  0.5292956787144618  0.1537485173147317  0.5819391922034214  1.0000
  H   H46       1.0  0.9707597042549524  0.6538082465125046  0.4180673278199123  1.0000
  H   H47       1.0  0.029219660940135804  0.3462007930247566  0.9180645825469256  1.0000
  H   H48       1.0  0.4707272901052662  0.8462462327232245  0.08193644693044179  1.0000
  C   C1        1.0  0.6586257735256638  0.9732448073355329  0.33938402937442186  1.0000
  C   C2        1.0  0.8413668202242803  0.4732175542725514  0.6606163137847005  1.0000
  C   C3        1.0  0.15863870714559172  0.5268070738094082  0.16061665694382296  1.0000
  C   C4        1.0  0.3413727772642687  0.026748643657029406  0.8393854020109117  1.0000
  C   C5        1.0  0.3414251016138294  0.0268382777890466  0.660589890532236  1.0000
  C   C6        1.0  0.1585794062160915  0.5268941098506377  0.3394097663086342  1.0000
  C   C7        1.0  0.8413964706890269  0.4731149296866235  0.8394077073538995  1.0000
  C   C8        1.0  0.6585943789159289  0.9731473789311667  0.1605940084417128  1.0000
  C   C9        1.0  0.7559298781152464  0.9846803039171875  0.3867173398304827  1.0000
  C   C10       1.0  0.7440784129395653  0.4846673403535107  0.6132854054425039  1.0000
  C   C11       1.0  0.2559271144303068  0.5153637829554043  0.11328540544250387  1.0000
  C   C12       1.0  0.2440721609646559  0.0153105489845942  0.8867142513983737  1.0000
  C   C13       1.0  0.2441436709090539  0.015428762115220703  0.6132596685082845  1.0000
  C   C14       1.0  0.2558887432406323  0.5154599123143768  0.3867413609690828  1.0000
  C   C15       1.0  0.744073180504607  0.4845465291320963  0.8867379293778512  1.0000
  C   C16       1.0  0.7558775537656858  0.9845659879227355  0.11325863903091717  1.0000
  C   C17       1.0  0.9699975128963418  0.0674438386375442  0.394839916269177  1.0000
  C   C18       1.0  0.5300177547384095  0.5674191298848612  0.6051607700490749  1.0000
  C   C19       1.0  0.469963354601667  0.43261459151483456  0.10516008373082288  1.0000
  C   C20       1.0  0.030008014473530402  0.9325613037635421  0.8948402594282994  1.0000
  C   C21       1.0  0.030083012707905307  0.9326431436232099  0.6051326310009983  1.0000
  C   C22       1.0  0.4699214951220227  0.4326873380567663  0.3948642805668996  1.0000
  C   C23       1.0  0.5300543817831027  0.5673035148450154  0.894860848975668  1.0000
  C   C24       1.0  0.969931235386895  0.0673347188246538  0.105135376273978  1.0000
  C   C25       1.0  0.0626741059047831  0.0757928033689126  0.4389063518753673  1.0000
  C   C26       1.0  0.4373373785050774  0.5757836831609353  0.5610939912837551  1.0000
  C   C27       1.0  0.5626315218201015  0.4242370477848496  0.0610888438969184  1.0000
  C   C28       1.0  0.937334909755059  0.9242162361683484  0.9389090971483467  1.0000
  C   C29       1.0  0.9374238611493126  0.9242915808010537  0.5610651659174337  1.0000
  C   C30       1.0  0.5626123362252642  0.42431888764451753  0.4389355204008112  1.0000
  C   C31       1.0  0.4373583082449032  0.5756758623934388  0.9389314024913347  1.0000
  C   C32       1.0  0.0626060842503549  0.0757005711461147  0.0610685975086653  1.0000
  C   C33       1.0  0.9483177907280194  0.9985294268363065  0.47661404893449333  1.0000
  C   C34       1.0  0.5517184066465575  0.4985190613634175  0.5233842352698943  1.0000
  C   C35       1.0  0.4482539819685982  0.5014821839015013  0.0233821763151596  1.0000
  C   C36       1.0  0.0516929690768109  0.0014770146101739  0.9766147352527383  1.0000
  C   C37       1.0  0.0517819204710648  0.0015731439691464004  0.5233602141312943  1.0000
  C   C38       1.0  0.4482679351284773  0.5015848084874293  0.4766373837548485  1.0000
  C   C39       1.0  0.5517079417766411  0.4984151377320885  0.9766349816409843  1.0000
  C   C40       1.0  0.9482480249286029  0.9984268022503786  0.0233605572904168  1.0000
  C   C41       1.0  0.732235668488805  0.9169857495190783  0.4678779039840748  1.0000
  C   C42       1.0  0.7677830874359161  0.41698447736392563  0.5321224391750476  1.0000
  C   C43       1.0  0.23217360387436511  0.5830323564456847  0.0321217528568027  1.0000
  C   C44       1.0  0.2677873003309231  0.08301549574583333  0.9678768745067072  1.0000
  C   C45       1.0  0.26782741566558604  0.083144101239597  0.5320970453999507  1.0000
  C   C46       1.0  0.23219802190416064  0.5831817466657085  0.46790398407741657  1.0000
  C   C47       1.0  0.7677656459860602  0.4168272928715524  0.967900552486185  1.0000
  C   C48       1.0  0.7321850882842327  0.9168584430707085  0.0320977317181956  1.0000
  C   C49       1.0  0.6370297703166372  0.9109373941761094  0.4239957448268754  1.0000
  C   C50       1.0  0.8629977063330118  0.4109166363400831  0.5760059709687368  1.0000
  C   C51       1.0  0.1369938678769813  0.5891092907872704  0.0760028825366348  1.0000
  C   C52       1.0  0.36298447777816284  0.0890599539526278  0.9239954016677528  1.0000
  C   C53       1.0  0.3630280814027955  0.0892028489456962  0.5759850382622389  1.0000
  C   C54       1.0  0.1370078210368604  0.5892443915079897  0.4240204522837274  1.0000
  C   C55       1.0  0.8629732883032162  0.4107516575753607  0.9240204522837274  1.0000
  C   C56       1.0  0.636987910836993  0.9107957982284349  0.0759860677396134  1.0000
  O   O1        1.0  0.7892186293062835  0.024255775550678  0.3054939775573899  1.0000
  O   O2        1.0  0.7107687320087024  0.5242258706164336  0.6945063656017325  1.0000
  O   O3        1.0  0.2892280746362488  0.4757779727392589  0.1945043066469907  1.0000
  O   O4        1.0  0.2107764331936792  0.9757376754418843  0.8054939775573899  1.0000
  O   O5        1.0  0.21083573412317955  0.9757779458490177  0.6944761675989142  1.0000
  O   O6        1.0  0.2891774944316694  0.4758286355095294  0.3055234892419634  1.0000
  O   O7        1.0  0.7108193122132748  0.5241881983000809  0.8055207439689767  1.0000
  O   O8        1.0  0.7891889788415298  0.0242129070527568  0.1944789128719009  1.0000
  O   O9        1.0  0.454370698432335  0.916512896996565  0.3324992278919723  1.0000
  O   O10       1.0  0.04562160038268811  0.4165064286598437  0.6675028310627624  1.0000
  O   O11       1.0  0.9543699738273048  0.5835246946490713  0.16750557633574906  1.0000
  O   O12       1.0  0.545620875777651  0.0834688625874733  0.8324957963007478  1.0000
  O   O13       1.0  0.545666223547272  0.0835805804911516  0.6674853299474961  1.0000
  O   O14       1.0  0.9543525323774489  0.5836351135073556  0.3325181016437355  1.0000
  O   O15       1.0  0.0456634598623396  0.4163765241206931  0.832517758484606  1.0000
  O   O16       1.0  0.4543393038226  0.9164037771836746  0.16748567310661844  1.0000
  O   O17       1.0  0.5649023985910732  0.6501098642828111  0.2500096084554428  1.0000
  O   O18       1.0  0.9351215897686062  0.1500943026283537  0.7499886757489449  1.0000
  O   O19       1.0  0.0648961466161637  0.8498991483642087  0.2499921073401765  1.0000
  O   O20       1.0  0.43510138463381764  0.34987319434662123  0.7500072063415784  1.0000
  O   O21       1.0  0.2715808156741275  0.1985188176884805  0.2500082358189459  1.0000
  O   O22       1.0  0.22845159847555865  0.6984863146634552  0.7499931368175436  1.0000
  O   O23       1.0  0.7715766027791277  0.3014915477844156  0.24999382313578877  1.0000
  O   O24       1.0  0.7284281999857144  0.8014772313948697  0.750007549500701  1.0000
