data_image0
_chemical_formula_structural       Zn2H22C18N10O8
_chemical_formula_sum              "Zn2 H22 C18 N10 O8"
_cell_length_a       9.020823875054525
_cell_length_b       9.745729256835
_cell_length_c       10.946155026907705
_cell_angle_alpha    89.09147037049331
_cell_angle_beta     86.057372066807
_cell_angle_gamma    101.41243318807804

_space_group_name_H-M_alt    "P 1"
_space_group_IT_number       1

loop_
  _space_group_symop_operation_xyz
  'x, y, z'

loop_
  _atom_site_type_symbol
  _atom_site_label
  _atom_site_symmetry_multiplicity
  _atom_site_fract_x
  _atom_site_fract_y
  _atom_site_fract_z
  _atom_site_occupancy
  Zn  Zn1       1.0  0.48734924937349433  0.3501665590731236  0.5011464835484603  1.0000
  Zn  Zn2       1.0  0.519744580930066  0.6531360429774723  0.4964128480844963  1.0000
  H   H1        1.0  0.697572253728964  0.6442039065920399  0.8506775255188899  1.0000
  H   H2        1.0  0.8182593995308097  0.6862228885026127  0.26344568599824203  1.0000
  H   H3        1.0  0.15699740320975758  0.3287875792066117  0.9858160117505292  1.0000
  H   H4        1.0  0.2805327834406057  0.12524462789290422  0.9375138285193286  1.0000
  H   H5        1.0  0.30817808895174187  0.1993836307948911  0.7850628836560317  1.0000
  H   H6        1.0  0.12131769341116438  0.14343503018022116  0.8537252067891216  1.0000
  H   H7        1.0  0.2886426450882452  0.8542206657015255  0.2836012170412801  1.0000
  H   H8        1.0  0.42515024073947666  0.7522280170995614  0.2919944970672148  1.0000
  H   H9        1.0  0.6254098368132687  0.09936327241664601  0.764596620468204  1.0000
  H   H10       1.0  0.5767128518964241  0.24589138112306586  0.7066533856362014  1.0000
  H   H11       1.0  0.3431646551631217  0.09364775995748428  0.256769508682126  1.0000
  H   H12       1.0  0.3237134779839934  0.34870392025151636  0.14391378518512  1.0000
  H   H13       1.0  0.29277308096295945  0.19731692286840288  0.3680570388929922  1.0000
  H   H14       1.0  0.7357203537821349  0.8150971433817489  0.6164668893142604  1.0000
  H   H15       1.0  0.7786703256259528  0.9793173584204099  0.6752140082985533  1.0000
  H   H16       1.0  0.15410761115753496  0.7169156661895286  0.49529714847867  1.0000
  H   H17       1.0  0.9809405440978907  0.77002895410412  0.4872841472281307  1.0000
  H   H18       1.0  0.8554091543053063  0.2889792105087565  0.5155079430991236  1.0000
  H   H19       1.0  0.032426773886726296  0.24017586755379478  0.5083372531082091  1.0000
  H   H20       1.0  0.8525149711134857  0.6988826785796717  0.0018158467581272984  1.0000
  H   H21       1.0  0.9789144858570111  0.6684680334654161  0.16510324435162  1.0000
  H   H22       1.0  0.8361949665045499  0.518973248088791  0.20834163346250276  1.0000
  C   C1        1.0  0.4737209692899356  0.5027540008848134  0.7374833646401838  1.0000
  C   C2        1.0  0.377677423779339  0.4108392561626317  0.9544056914793017  1.0000
  C   C3        1.0  0.5352577901916077  0.4957162343884887  0.1234349938808919  1.0000
  C   C4        1.0  0.48667379222533913  0.49770523151745755  0.8730714671315097  1.0000
  C   C5        1.0  0.4469747017511594  0.9205328406402485  0.4047805191463993  1.0000
  C   C6        1.0  0.5615583864997759  0.0817112121278427  0.591545280913202  1.0000
  C   C7        1.0  0.41465608195316145  0.05537235453460449  0.42250194840756444  1.0000
  C   C8        1.0  0.5997034125133354  0.9498647015885667  0.5702332231414715  1.0000
  C   C9        1.0  0.8562415551279229  0.6316937945156482  0.18375221749531787  1.0000
  C   C10       1.0  0.2379496298050511  0.19295302181961918  0.8713727155286933  1.0000
  C   C11       1.0  0.5381331140988338  0.495599545662408  0.2595137094302159  1.0000
  C   C12       1.0  0.7997798384835803  0.5402633378337355  0.5115367735875721  1.0000
  C   C13       1.0  0.20817518870645557  0.46798302952752385  0.4872065035577292  1.0000
  C   C14       1.0  0.9667276953617049  0.5604903369793489  0.5060223462832808  1.0000
  C   C15       1.0  0.040494105549917885  0.44809861889429914  0.49509287237781047  1.0000
  C   C16       1.0  0.6159379146445119  0.5787751747679337  0.9164747965800967  1.0000
  C   C17       1.0  0.4067848953473002  0.41224161963486233  0.0778955331701141  1.0000
  C   C18       1.0  0.646271144948514  0.5789978273503564  0.0413273417428925  1.0000
  N   N1        1.0  0.4743289326247222  0.13411633451614344  0.5142821069140522  1.0000
  N   N2        1.0  0.6978401641409775  0.9028126060527057  0.6439501772573379  1.0000
  N   N3        1.0  0.5356596974680555  0.8687388774243698  0.4811066781099384  1.0000
  N   N4        1.0  0.04012136717931719  0.6987594411836611  0.5158955234057955  1.0000
  N   N5        1.0  0.9676294451366942  0.31011792894386053  0.487672627426889  1.0000
  N   N6        1.0  0.7814044652608985  0.6578951140300121  0.0746221903612465  1.0000
  N   N7        1.0  0.23798851243691393  0.33463804395335467  0.9151857602419112  1.0000
  N   N8        1.0  0.3942984682906428  0.8466964921835686  0.3056648826084967  1.0000
  N   N9        1.0  0.6213388409702886  0.1587407715903666  0.6880130453726494  1.0000
  N   N10       1.0  0.3148928773200836  0.1009747809429413  0.3479300367686519  1.0000
  O   O1        1.0  0.46098463646466564  0.3852996892432898  0.6841830933432149  1.0000
  O   O2        1.0  0.5463164292344017  0.6136146088648857  0.311064150160604  1.0000
  O   O3        1.0  0.4838844502413481  0.6208044484220707  0.6845413737953264  1.0000
  O   O4        1.0  0.5243230752597441  0.3778131120255921  0.31491321838213787  1.0000
  O   O5        1.0  0.7193311847329581  0.41663306449341064  0.5110203549317587  1.0000
  O   O6        1.0  0.288566026253946  0.5919817781838148  0.48710253448376756  1.0000
  O   O7        1.0  0.7445427431416292  0.6526916554413091  0.5146215934740183  1.0000
  O   O8        1.0  0.2630736086367875  0.3560579541456974  0.4812373446376696  1.0000
