data_image0
_chemical_formula_structural       Al4H8C24I4O20
_chemical_formula_sum              "Al4 H8 C24 I4 O20"
_cell_length_a       6.700408815032704
_cell_length_b       14.460133700430427
_cell_length_c       17.105010373999512
_cell_angle_alpha    93.25915521766635
_cell_angle_beta     89.40070776360446
_cell_angle_gamma    89.58251251408707

_space_group_name_H-M_alt    "P 1"
_space_group_IT_number       1

loop_
  _space_group_symop_operation_xyz
  'x, y, z'

loop_
  _atom_site_type_symbol
  _atom_site_label
  _atom_site_symmetry_multiplicity
  _atom_site_fract_x
  _atom_site_fract_y
  _atom_site_fract_z
  _atom_site_occupancy
  Al  Al1       1.0  0.8919722602988924  0.5038308079157119  0.5020303024968272  1.0000
  Al  Al2       1.0  0.39137627832993616  0.49993594075689163  0.5001967162584293  1.0000
  Al  Al3       1.0  0.3716028646470306  0.998988573767349  0.9979320393013041  1.0000
  Al  Al4       1.0  0.871545513357965  0.0026528169365747003  0.0005425961308133992  1.0000
  H   H1        1.0  0.9775898006572415  0.2248641286920616  0.18280010782753925  1.0000
  H   H2        1.0  0.4809284429595947  0.7939170773417599  0.8081153627502786  1.0000
  H   H3        1.0  0.36506836166064716  0.3509179404547211  0.27187135058103  1.0000
  H   H4        1.0  0.8524206480944159  0.7417539316172821  0.6519621087250586  1.0000
  H   H5        1.0  0.6511218567056786  0.3807172127007376  0.481303932275523  1.0000
  H   H6        1.0  0.14574460218668855  0.6169505119187377  0.4750324748589208  1.0000
  H   H7        1.0  0.6138379659606698  0.1184281588619456  0.026847267506589403  1.0000
  H   H8        1.0  0.11855918425409578  0.8846355669121378  0.9688479186028972  1.0000
  C   C1        1.0  0.6477216618282922  0.6098782241581728  0.39815601160610475  1.0000
  C   C2        1.0  0.1327333083103426  0.3965632458857654  0.6041021408807197  1.0000
  C   C3        1.0  0.6291609276781569  0.6055430643947375  0.6144295930695024  1.0000
  C   C4        1.0  0.15132244455045904  0.3790990649701199  0.39932441387517775  1.0000
  C   C5        1.0  0.2757251208963324  0.21922258929870245  0.21551916470421872  1.0000
  C   C6        1.0  0.7755160482135536  0.7991334324049573  0.7683025688107962  1.0000
  C   C7        1.0  0.12117067321700858  0.19031738280298777  0.17085561151618125  1.0000
  C   C8        1.0  0.6274794428263843  0.8238058354608668  0.819903635282124  1.0000
  C   C9        1.0  0.2632825196843242  0.29259256031626524  0.277544901680038  1.0000
  C   C10       1.0  0.752838699768958  0.7327862274980391  0.7020624040646909  1.0000
  C   C11       1.0  0.14883709536151457  0.2958421526751279  0.3429043952031279  1.0000
  C   C12       1.0  0.6305182155298465  0.6588990198901425  0.6924317859325911  1.0000
  C   C13       1.0  0.12387997167746077  0.16767939797632886  0.8303857543998562  1.0000
  C   C14       1.0  0.6221470420619963  0.8351147857331114  0.16913492730279966  1.0000
  C   C15       1.0  0.127896588866804  0.22114157355011338  0.7775236073390205  1.0000
  C   C16       1.0  0.6278216147233167  0.7827371694339716  0.22278807664067563  1.0000
  C   C17       1.0  0.13155954526499866  0.2805359407751027  0.7194605024482641  1.0000
  C   C18       1.0  0.6347475679575112  0.7245686151895184  0.28176102624353666  1.0000
  C   C19       1.0  0.13460354921691928  0.3345841909501813  0.6670108719263441  1.0000
  C   C20       1.0  0.6420226045828129  0.6716531382083558  0.33501643176572315  1.0000
  C   C21       1.0  0.6291202589151083  0.8880371688126871  0.8895037789964634  1.0000
  C   C22       1.0  0.11984599242322957  0.11803217492371233  0.10642536601786651  1.0000
  C   C23       1.0  0.621172257546128  0.8952629507544643  0.10435433129866568  1.0000
  C   C24       1.0  0.12330166700979107  0.10719144091203957  0.8947752536187182  1.0000
  I   I1        1.0  0.5682254210583861  0.16513646939711177  0.20553093616163662  1.0000
  I   I2        1.0  0.06392018731932578  0.8574939995943678  0.7721977535116197  1.0000
  I   I3        1.0  0.9662976727575128  0.18806869363628217  0.37759621371778723  1.0000
  I   I4        1.0  0.4346959156590841  0.6062428949543701  0.7749138773582303  1.0000
  O   O1        1.0  0.4622213522814817  0.5744063409608272  0.5914688947574761  1.0000
  O   O2        1.0  0.9849157741733945  0.403640455253992  0.4304725817809826  1.0000
  O   O3        1.0  0.8190815702705406  0.5797230621395217  0.41666304706063784  1.0000
  O   O4        1.0  0.29806260683165686  0.40874041368490305  0.568839369559214  1.0000
  O   O5        1.0  0.7944592563540027  0.5974447855359057  0.5772190258105214  1.0000
  O   O6        1.0  0.3197942621446543  0.41714733195965437  0.4114620678512325  1.0000
  O   O7        1.0  0.9647655161182767  0.43229103384692996  0.588565656017849  1.0000
  O   O8        1.0  0.4802234431027586  0.5920173365504765  0.42985996470355303  1.0000
  O   O9        1.0  0.6440240820543294  0.4459463125491111  0.4976854627357099  1.0000
  O   O10       1.0  0.142183054756849  0.558897895145641  0.5007611331706414  1.0000
  O   O11       1.0  0.7919523826856789  0.9199896967897626  0.08044351192062038  1.0000
  O   O12       1.0  0.2939975961404357  0.08165515343704752  0.9176543014274119  1.0000
  O   O13       1.0  0.4560971970203126  0.9113642616744214  0.9169348438525944  1.0000
  O   O14       1.0  0.9476824423819039  0.09170007581366946  0.08279812886159732  1.0000
  O   O15       1.0  0.4510246562633639  0.9159555437232498  0.07785799981463981  1.0000
  O   O16       1.0  0.9529748103300973  0.08723892726262507  0.9224394280260882  1.0000
  O   O17       1.0  0.2854765008965855  0.088260007262015  0.0778192292061135  1.0000
  O   O18       1.0  0.7944273163664802  0.9145565617563846  0.9187358310413744  1.0000
  O   O19       1.0  0.619490499611892  0.056583743200747  0.0016955437579966007  1.0000
  O   O20       1.0  0.12113609792469758  0.9449419314116128  0.9967499531767247  1.0000
