data_image0
_chemical_formula_structural       Cu2H36C48N8O12
_chemical_formula_sum              "Cu2 H36 C48 N8 O12"
_cell_length_a       10.814271804588339
_cell_length_b       10.814552703907344
_cell_length_c       12.596653659618543
_cell_angle_alpha    68.53994007710506
_cell_angle_beta     68.54233825486537
_cell_angle_gamma    82.86079722555641

_space_group_name_H-M_alt    "P 1"
_space_group_IT_number       1

loop_
  _space_group_symop_operation_xyz
  'x, y, z'

loop_
  _atom_site_type_symbol
  _atom_site_label
  _atom_site_symmetry_multiplicity
  _atom_site_fract_x
  _atom_site_fract_y
  _atom_site_fract_z
  _atom_site_occupancy
  Cu  Cu1       1.0  0.4999965232723298  2.736077185299685e-06  0.9999979457986894  1.0000
  Cu  Cu2       1.0  0.9999972636264686  0.49999985133362684  0.5000039398244451  1.0000
  H   H1        1.0  0.11403044549104642  0.8156404555289642  0.9727420160395678  1.0000
  H   H2        1.0  0.18434925262126  0.8859676691609054  0.5272738847308389  1.0000
  H   H3        1.0  0.8859686545619354  0.1843325484066654  0.02727389318352648  1.0000
  H   H4        1.0  0.8156432046576325  0.1140363103432023  0.4727239476767835  1.0000
  H   H5        1.0  0.8676319936690715  0.7897158320183593  0.048034470080765  1.0000
  H   H6        1.0  0.2102635837487128  0.1323653568009391  0.4519815641008833  1.0000
  H   H7        1.0  0.13237018787778956  0.2102600214767705  0.9519755792298168  1.0000
  H   H8        1.0  0.7897337597208464  0.8676364811964847  0.5480169813160528  1.0000
  H   H9        1.0  0.7289963956435271  0.8530703485679184  0.23351404847426938  1.0000
  H   H10       1.0  0.14691075450441096  0.27099632754459435  0.26649228590409985  1.0000
  H   H11       1.0  0.27099712153296446  0.14691271606791642  0.7664909066485703  1.0000
  H   H12       1.0  0.8530884796411655  0.7290034516586772  0.7335055192518496  1.0000
  H   H13       1.0  0.33727311395686843  0.24298600548829097  0.9773005798489648  1.0000
  H   H14       1.0  0.7570115898371838  0.6627324864517022  0.5226963467052882  1.0000
  H   H15       1.0  0.662725473728905  0.757022691806455  0.02268744369619205  1.0000
  H   H16       1.0  0.24298367064337603  0.3372664744153724  0.4773085430475916  1.0000
  H   H17       1.0  0.3180199821591002  0.44553636752620923  0.8056176770819474  1.0000
  H   H18       1.0  0.5544650588335855  0.6819905775793773  0.6943749169153719  1.0000
  H   H19       1.0  0.6819837016754561  0.5544751417559368  0.1943678258402599  1.0000
  H   H20       1.0  0.4455281512388609  0.31800648748571814  0.305634406210899  1.0000
  H   H21       1.0  0.6100017412153846  0.2715186627127366  0.5597363283528765  1.0000
  H   H22       1.0  0.7284791800549613  0.3899980789677073  0.9402659553898403  1.0000
  H   H23       1.0  0.39001266010703967  0.7284865850415086  0.4402564872316501  1.0000
  H   H24       1.0  0.2715180448544742  0.6099998454293001  0.05974181417247596  1.0000
  H   H25       1.0  0.6155268224041492  0.0788656410178206  0.7395364988436198  1.0000
  H   H26       1.0  0.9211277881189232  0.3844658758392754  0.7604768423085986  1.0000
  H   H27       1.0  0.3844828167064875  0.9211437694651682  0.26045968328214986  1.0000
  H   H28       1.0  0.07886952547913488  0.6155340346406036  0.23953026591886578  1.0000
  H   H29       1.0  0.3480786032084495  0.5050449198773919  0.5631234811055847  1.0000
  H   H30       1.0  0.4949652757998634  0.6519251424331358  0.9368694527541878  1.0000
  H   H31       1.0  0.6519379019204338  0.49496417462250963  0.4368594988852975  1.0000
  H   H32       1.0  0.505034906161626  0.3480717120664353  0.06314089089341482  1.0000
  H   H33       1.0  0.46560461600037667  0.5856954699005001  0.5811050387327439  1.0000
  H   H34       1.0  0.41429917196703053  0.5344100770300458  0.9188917333068429  1.0000
  H   H35       1.0  0.5344135965455905  0.414307587782993  0.4188777335192809  1.0000
  H   H36       1.0  0.5857020469619413  0.465587737083581  0.08111797394920481  1.0000
  C   C1        1.0  0.2581011328653701  0.9097782381389906  0.05915326182814336  1.0000
  C   C2        1.0  0.0902452348750771  0.741888935887822  0.44084827266104293  1.0000
  C   C3        1.0  0.7418958173871318  0.09021466834208522  0.9408490497431855  1.0000
  C   C4        1.0  0.9097581145595369  0.2581137004432961  0.5591488978912266  1.0000
  C   C5        1.0  0.02910746118000419  0.9215854382134908  0.21355249846952515  1.0000
  C   C6        1.0  0.07841435147808079  0.9708919197479488  0.2864453314472327  1.0000
  C   C7        1.0  0.9708876843757107  0.0784124593337694  0.7864432401799772  1.0000
  C   C8        1.0  0.9215761440813067  0.029112150037050796  0.7135562729989288  1.0000
  C   C9        1.0  0.10948648937750248  0.8887562927647464  0.11195896545714847  1.0000
  C   C10       1.0  0.11125100999767311  0.8905136030264489  0.3880402328734433  1.0000
  C   C11       1.0  0.8905078404693255  0.11124371214073389  0.888048269795149  1.0000
  C   C12       1.0  0.8887425344747156  0.10949233498968171  0.6119574226227582  1.0000
  C   C13       1.0  0.05164551617512808  0.8382592690543615  0.05324282481048933  1.0000
  C   C14       1.0  0.16173843080968447  0.9483552695980961  0.4467598513072913  1.0000
  C   C15       1.0  0.9483601667818533  0.1617293409884581  0.9467548973230603  1.0000
  C   C16       1.0  0.8382568771875113  0.05164563635612041  0.5532388460777681  1.0000
  C   C17       1.0  0.9141335624444763  0.8234772737260913  0.09607199861081757  1.0000
  C   C18       1.0  0.17650704273962958  0.0858593316085248  0.4039362254905256  1.0000
  C   C19       1.0  0.08585678454951308  0.17650095526737894  0.9039394777593868  1.0000
  C   C20       1.0  0.8234894144405089  0.9141445434687371  0.5960643347584023  1.0000
  C   C21       1.0  0.836822398488266  0.8584805217679519  0.1952032040338239  1.0000
  C   C22       1.0  0.1415122294975291  0.16317465126169142  0.3048002116836343  1.0000
  C   C23       1.0  0.16317538782763555  0.14150934873532614  0.804796633225372  1.0000
  C   C24       1.0  0.8584873919833953  0.8368340536014004  0.6951930371703554  1.0000
  C   C25       1.0  0.3962948116719573  0.2553804214122905  0.882821866352543  1.0000
  C   C26       1.0  0.744618217883172  0.6037054785995934  0.6171805849704839  1.0000
  C   C27       1.0  0.603709643064235  0.7446260892353253  0.11716498418265067  1.0000
  C   C28       1.0  0.25538088276653065  0.3962894232444966  0.38283072573610605  1.0000
  C   C29       1.0  0.38608572706372957  0.3666976340791805  0.7867264875644647  1.0000
  C   C30       1.0  0.6333045007458934  0.6139153019013718  0.7132712417195461  1.0000
  C   C31       1.0  0.6139236550351014  0.6333067760574665  0.2132666070130185  1.0000
  C   C32       1.0  0.3666936873781593  0.3860825597856063  0.28673227138079227  1.0000
  C   C33       1.0  0.46173027076376627  0.37660416702134114  0.6663964965290743  1.0000
  C   C34       1.0  0.6233932118324004  0.5382771430117899  0.8335949632942669  1.0000
  C   C35       1.0  0.5382814011098489  0.6234071216940293  0.3335928817806034  1.0000
  C   C36       1.0  0.37660504416280816  0.46172173514274567  0.16641137972892026  1.0000
  C   C37       1.0  0.5449364918721359  0.2704451455715997  0.6494643696707028  1.0000
  C   C38       1.0  0.7295514242217961  0.45505688621617685  0.85054536656402  1.0000
  C   C39       1.0  0.4550742050234432  0.7295661941407448  0.35052768480581165  1.0000
  C   C40       1.0  0.27044580656935574  0.5449410440373654  0.14946319314586265  1.0000
  C   C41       1.0  0.5501239987383926  0.1619217547625453  0.7498088999472257  1.0000
  C   C42       1.0  0.8380760871101529  0.449871684308171  0.7501941699684804  1.0000
  C   C43       1.0  0.4498823787917559  0.8380817801843963  0.2501878129127916  1.0000
  C   C44       1.0  0.16192123236961456  0.5501282320282357  0.2498137284065507  1.0000
  C   C45       1.0  0.4511919213765835  0.4976529835866687  0.5623399120177408  1.0000
  C   C46       1.0  0.5023522155156569  0.5488146860318679  0.9376560469225051  1.0000
  C   C47       1.0  0.5488243502673456  0.5023511339930096  0.4376431410151296  1.0000
  C   C48       1.0  0.4976469797043777  0.4511822077516143  0.062355392596806725  1.0000
  N   N1        1.0  0.892544389469542  0.9074252758882297  0.25371370743127386  1.0000
  N   N2        1.0  0.0925727217603054  0.1074544450489512  0.24628443545074663  1.0000
  N   N3        1.0  0.1074479791207352  0.0925767175330208  0.7462847863112  1.0000
  N   N4        1.0  0.9074206896791636  0.8925485138428827  0.7537142120477325  1.0000
  N   N5        1.0  0.4776587489126384  0.1545753903453146  0.86425272268292  1.0000
  N   N6        1.0  0.8454191269766582  0.5223413150970944  0.6357541859523861  1.0000
  N   N7        1.0  0.5223506716487947  0.8454300069762298  0.13573925107957036  1.0000
  N   N8        1.0  0.15458115272749498  0.4776584833875859  0.3642504248075367  1.0000
  O   O1        1.0  0.30447552701240704  0.9917407818367749  0.08960773814737881  1.0000
  O   O2        1.0  0.008266334565952594  0.6955183853238154  0.4103946477620964  1.0000
  O   O3        1.0  0.6955169714384651  0.008263238663062089  0.910395625293219  1.0000
  O   O4        1.0  0.9917299244194877  0.30448054797241764  0.5896107264142217  1.0000
  O   O5        1.0  0.3284711177234101  0.852006898059642  0.9879227980434345  1.0000
  O   O6        1.0  0.1480201316445644  0.6715246560890692  0.5120674723116491  1.0000
  O   O7        1.0  0.6715258053669686  0.14798313471470695  0.012094728186383427  1.0000
  O   O8        1.0  0.85199028154004  0.3284807078050918  0.4879241957267126  1.0000
  O   O9        1.0  0.8175046877209836  0.9388292526903044  0.34646933668189195  1.0000
  O   O10       1.0  0.0611755156089941  0.18248857028276433  0.15352140384283072  1.0000
  O   O11       1.0  0.18248179934607828  0.061175861854195504  0.6535220979274283  1.0000
  O   O12       1.0  0.9388179695833399  0.8175154109331614  0.8464808637260647  1.0000
