data_image0
_chemical_formula_structural       Na2B2H16C8O8
_chemical_formula_sum              "Na2 B2 H16 C8 O8"
_cell_length_a       5.727432874233652
_cell_length_b       7.943950630180625
_cell_length_c       8.28433408905131
_cell_angle_alpha    61.33366399631352
_cell_angle_beta     82.90376044605247
_cell_angle_gamma    75.07761495557068

_space_group_name_H-M_alt    "P 1"
_space_group_IT_number       1

loop_
  _space_group_symop_operation_xyz
  'x, y, z'

loop_
  _atom_site_type_symbol
  _atom_site_label
  _atom_site_symmetry_multiplicity
  _atom_site_fract_x
  _atom_site_fract_y
  _atom_site_fract_z
  _atom_site_occupancy
  Na  Na1       1.0  0.7504005303362077  0.08131026327590994  0.8374981293550758  1.0000
  Na  Na2       1.0  0.24959856618021084  0.918691353488754  0.16250046994817058  1.0000
  B   B1        1.0  0.7495278465614276  0.8795540268570792  0.24093423422501545  1.0000
  B   B2        1.0  0.2504716545765718  0.12044675873759314  0.7590637232262195  1.0000
  H   H1        1.0  0.05718739199325276  0.5043801129608526  0.190740016224339  1.0000
  H   H2        1.0  0.5581925278093536  0.6952311521965984  0.8088909019824935  1.0000
  H   H3        1.0  0.9428125197212933  0.49561863410111334  0.8092585077129895  1.0000
  H   H4        1.0  0.4418061700404722  0.30477008837534936  0.19110954751086232  1.0000
  H   H5        1.0  0.7844514880094877  0.623362785905627  0.05854717530148427  1.0000
  H   H6        1.0  0.28564654957862257  0.6815768791983817  0.9413090394196498  1.0000
  H   H7        1.0  0.21554937548631864  0.3766374743424594  0.9414527757179411  1.0000
  H   H8        1.0  0.7143552716534244  0.3184236868731177  0.058693547019963356  1.0000
  H   H9        1.0  0.6047510521946647  0.4632672785596343  0.3594428997309293  1.0000
  H   H10       1.0  0.10537453541648742  0.8227970551021146  0.6406450050619337  1.0000
  H   H11       1.0  0.3952515663705824  0.5367340398972972  0.6405559863284578  1.0000
  H   H12       1.0  0.8946228179404442  0.17720108872828896  0.3593570758775541  1.0000
  H   H13       1.0  0.8511258479206629  0.4606746087532303  0.4716947869671128  1.0000
  H   H14       1.0  0.35167556062534533  0.9324244080116347  0.5281675915664575  1.0000
  H   H15       1.0  0.1488746109535698  0.5393264826648548  0.5283058059043169  1.0000
  H   H16       1.0  0.6483221973531598  0.0675729046487704  0.4718338475210258  1.0000
  C   C1        1.0  0.8821356622054137  0.6100413724292865  0.17228626560354582  1.0000
  C   C2        1.0  0.3831429429608589  0.782332418209123  0.8275390579827258  1.0000
  C   C3        1.0  0.11786344026598519  0.38995903697266254  0.8277135420378058  1.0000
  C   C4        1.0  0.6168561595105403  0.21766799119282618  0.17246074965862587  1.0000
  C   C5        1.0  0.7325427079015581  0.5496330156208701  0.3498866908062367  1.0000
  C   C6        1.0  0.23333021303393034  0.899558090756891  0.6500237983675913  1.0000
  C   C7        1.0  0.2674616776430838  0.4503669463194841  0.6501135469693293  1.0000
  C   C8        1.0  0.7666693059689889  0.10043907274964438  0.34997778409795893  1.0000
  O   O1        1.0  0.9199576888574014  0.7984839262560046  0.12968081755357733  1.0000
  O   O2        1.0  0.42078964751294023  0.9280161788701167  0.870296878334649  1.0000
  O   O3        1.0  0.0800414195689712  0.20151527578324416  0.8703201984258723  1.0000
  O   O4        1.0  0.5792112040729194  0.07198649610338491  0.1297006560085592  1.0000
  O   O5        1.0  0.6034034747189665  0.7319428615203237  0.34428809861224596  1.0000
  O   O6        1.0  0.10439484143513773  0.07635945295904652  0.6556022461293052  1.0000
  O   O7        1.0  0.39659778744344715  0.26805777492047894  0.6557100022170556  1.0000
  O   O8        1.0  0.8956042610362542  0.9236409564429098  0.3443975615120393  1.0000
