data_image0
_chemical_formula_structural       La2H28C66N4Cl6O12F12
_chemical_formula_sum              "La2 H28 C66 N4 Cl6 O12 F12"
_cell_length_a       10.095383493889681
_cell_length_b       13.047451290956959
_cell_length_c       13.208556999229987
_cell_angle_alpha    72.95225433819999
_cell_angle_beta     83.53534252102772
_cell_angle_gamma    86.23211502199565

_space_group_name_H-M_alt    "P 1"
_space_group_IT_number       1

loop_
  _space_group_symop_operation_xyz
  'x, y, z'

loop_
  _atom_site_type_symbol
  _atom_site_label
  _atom_site_symmetry_multiplicity
  _atom_site_fract_x
  _atom_site_fract_y
  _atom_site_fract_z
  _atom_site_occupancy
  La  La1       1.0  0.28994850363497454  0.5540836883681453  0.48890560138827494  1.0000
  La  La2       1.0  0.7100500204578637  0.4459158049877487  0.5110941314094289  1.0000
  H   H1        1.0  0.044307577851498116  0.6496715037048871  0.9728949284838393  1.0000
  H   H2        1.0  0.9556919045289549  0.3503287950795979  0.027104485766471977  1.0000
  H   H3        1.0  0.9247045036078847  0.7445647248222756  0.3116740929332238  1.0000
  H   H4        1.0  0.075293941762439  0.2554363712929089  0.6883244226078418  1.0000
  H   H5        1.0  0.6776294225175974  0.39977998544537735  0.9734653148287292  1.0000
  H   H6        1.0  0.32237097969926515  0.6002219208924656  0.026533550492921193  1.0000
  H   H7        1.0  0.31051652698094057  0.3521415512543059  0.26604317928024546  1.0000
  H   H8        1.0  0.6894849855081943  0.6478579505228554  0.7339555325249093  1.0000
  H   H9        1.0  0.45373280254260356  0.9478279182232825  0.6593325368057918  1.0000
  H   H10       1.0  0.546267639945576  0.052173187480029505  0.3406673153912436  1.0000
  H   H11       1.0  0.37298665282033033  0.2611399795422926  0.8044725780130761  1.0000
  H   H12       1.0  0.6270138683903638  0.7388595234017219  0.19552849144059775  1.0000
  H   H13       1.0  0.21731991071455073  0.6777687709345628  0.6901832390295368  1.0000
  H   H14       1.0  0.7826806471272149  0.3222299283944637  0.3098173043112666  1.0000
  H   H15       1.0  0.16027519778157281  0.8497016793365689  0.7377525932384472  1.0000
  H   H16       1.0  0.8397243633213948  0.1502970166886328  0.2622480382684955  1.0000
  H   H17       1.0  0.1419477712942481  0.021163069387426996  0.5903828288387274  1.0000
  H   H18       1.0  0.8580517898087197  0.9788356266377677  0.4096178026682224  1.0000
  H   H19       1.0  0.14999423777505438  0.11295199027998139  0.3946560199791946  1.0000
  H   H20       1.0  0.8500042460464602  0.8870483037104435  0.6053427259431244  1.0000
  H   H21       1.0  0.1794718428907913  0.1013297097625525  0.2093232912659957  1.0000
  H   H22       1.0  0.8205275992183374  0.8986713896564708  0.7906751361089307  1.0000
  H   H23       1.0  0.2277401425398651  0.9914315069066222  0.08291956871136108  1.0000
  H   H24       1.0  0.772259341660707  0.008568793368098699  0.9170806020330744  1.0000
  H   H25       1.0  0.2902672737057443  0.8121063005932356  0.0545876559715808  1.0000
  H   H26       1.0  0.7097322104948277  0.18789399968148504  0.9454125147728546  1.0000
  H   H27       1.0  0.31409564102958143  0.6523562401725014  0.21469062812381887  1.0000
  H   H28       1.0  0.6859038816221884  0.34764325797745227  0.7853097730018773  1.0000
  C   C1        1.0  0.9933652323076178  0.6177598720825089  0.24163558451509454  1.0000
  C   C2        1.0  0.006631219585095502  0.382241217425019  0.7583631073582494  1.0000
  C   C3        1.0  0.027446988077429114  0.5929512793847849  0.1456066230821165  1.0000
  C   C4        1.0  0.9725495040866009  0.4070490094882119  0.8543930556666055  1.0000
  C   C5        1.0  0.01964236088985419  0.6701652756615887  0.047173692723184404  1.0000
  C   C6        1.0  0.9803560863005957  0.32983582194383126  0.9528255793120053  1.0000
  C   C7        1.0  0.9780154727834545  0.7739153821099265  0.045987939002785055  1.0000
  C   C8        1.0  0.02198397114580081  0.2260857187993253  0.9540112448662654  1.0000
  C   C9        1.0  0.9455721970591999  0.8004602075468057  0.14091224030854482  1.0000
  C   C10       1.0  0.05442617322885472  0.19954249430814025  0.8590865709641378  1.0000
  C   C11       1.0  0.9526771697155921  0.7232815543694856  0.23814613160294584  1.0000
  C   C12       1.0  0.04732027891592591  0.2767195384418741  0.761852472104259  1.0000
  C   C13       1.0  0.0022741893017367994  0.5328459152021737  0.3475218027582087  1.0000
  C   C14       1.0  0.9977234936771995  0.4671503678410718  0.6524796962247875  1.0000
  C   C15       1.0  0.5057845013048379  0.4144526464270655  0.2084674231835209  1.0000
  C   C16       1.0  0.4942190485734701  0.5855460643036848  0.791533612152989  1.0000
  C   C17       1.0  0.6091941364980685  0.426669842792549  0.12562353079877644  1.0000
  C   C18       1.0  0.3908072624575992  0.573332066849126  0.8743752463567417  1.0000
  C   C19       1.0  0.5998663059733645  0.3861766589372594  0.039680452705070444  1.0000
  C   C20       1.0  0.40013608972110876  0.6138252540082476  0.9603182362843014  1.0000
  C   C21       1.0  0.48710220164717555  0.3321813466993859  0.03755310748518776  1.0000
  C   C22       1.0  0.5129013482311323  0.6678173640313646  0.962447927851322  1.0000
  C   C23       1.0  0.38410538677738504  0.318275979367364  0.1196271038393064  1.0000
  C   C24       1.0  0.6158991982909188  0.6817219325424589  0.8803740737123176  1.0000
  C   C25       1.0  0.39268014328884254  0.35968586422578136  0.203638231378271  1.0000
  C   C26       1.0  0.607322329308019  0.6403144444701995  0.7963609183736152  1.0000
  C   C27       1.0  0.5064939252405695  0.45814312010714536  0.3024176740479802  1.0000
  C   C28       1.0  0.4935096649090553  0.5418547899890741  0.6975843481639146  1.0000
  C   C29       1.0  0.3990078803738157  0.2091137299841677  0.6615421715228677  1.0000
  C   C30       1.0  0.6009885751591426  0.7908873625038169  0.33845803333872465  1.0000
  C   C31       1.0  0.4223515822199104  0.12066764025775713  0.6219721187737548  1.0000
  C   C32       1.0  0.5776478635294638  0.8793334621417233  0.3780278215894198  1.0000
  C   C33       1.0  0.43677791083915474  0.0168992079622114  0.6898253441271293  1.0000
  C   C34       1.0  0.5632235302079565  0.9831019025351608  0.3101751763978911  1.0000
  C   C35       1.0  0.42745744893186816  0.0032948862238840002  0.7984866906668913  1.0000
  C   C36       1.0  0.5725441056487101  0.9967038164089741  0.2015137645077728  1.0000
  C   C37       1.0  0.405357453115066  0.0910088830822886  0.8391083872933081  1.0000
  C   C38       1.0  0.5946440263832431  0.908991425290324  0.1608923636129661  1.0000
  C   C39       1.0  0.3912700354068193  0.19372456805807295  0.771270337381253  1.0000
  C   C40       1.0  0.6087304473526842  0.806275737010708  0.22873050169116746  1.0000
  C   C41       1.0  0.37748366130707484  0.319877236815003  0.5884338358380318  1.0000
  C   C42       1.0  0.6225087340085196  0.6801254496876441  0.41156777391386606  1.0000
  C   C43       1.0  0.2083575567608591  0.7539994626961357  0.628601750670576  1.0000
  C   C44       1.0  0.7916399724133002  0.2460000288461544  0.37139882678739156  1.0000
  C   C45       1.0  0.1766143753042969  0.8504623970915406  0.6545502126759217  1.0000
  C   C46       1.0  0.8233861074551998  0.1495379079772334  0.34545062639649865  1.0000
  C   C47       1.0  0.1661250051976424  0.9447736473214405  0.5733299799720015  1.0000
  C   C48       1.0  0.8338734804439981  0.055226648159212695  0.42666952244444895  1.0000
  C   C49       1.0  0.18612422086441435  0.9422233562671422  0.46651969563986734  1.0000
  C   C50       1.0  0.8138742299662807  0.0577777443187344  0.5334810893835709  1.0000
  C   C51       1.0  0.17383444766214504  0.03623184798475171  0.3783211643873016  1.0000
  C   C52       1.0  0.8261640379794959  0.9637684474959016  0.6216783380291488  1.0000
  C   C53       1.0  0.18999519906525117  0.0299545363077129  0.2762730552776205  1.0000
  C   C54       1.0  0.8100042466841233  0.9700465660917672  0.7237268850855543  1.0000
  C   C55       1.0  0.22208614019447753  0.9295029030292238  0.25448173726931606  1.0000
  C   C56       1.0  0.7779133806371663  0.07049659363050151  0.7455179073622488  1.0000
  C   C57       1.0  0.24009278997563407  0.9203187888100148  0.14987431986749292  1.0000
  C   C58       1.0  0.7599067308560167  0.079680707849711  0.8501253247640719  1.0000
  C   C59       1.0  0.27372121646633474  0.8214120121298976  0.1342879586342107  1.0000
  C   C60       1.0  0.7262782659141181  0.1785882866545947  0.8657114556160934  1.0000
  C   C61       1.0  0.2877388131197733  0.7319874083971456  0.2234261011879752  1.0000
  C   C62       1.0  0.7122587124141334  0.2680120801646879  0.7765729632817439  1.0000
  C   C63       1.0  0.23793613649566234  0.8346018569458096  0.339773999520915  1.0000
  C   C64       1.0  0.7620633495250362  0.16539844481913957  0.6602269277176446  1.0000
  C   C65       1.0  0.21809899412450315  0.8408454682127413  0.4479574056121507  1.0000
  C   C66       1.0  0.7819004864358164  0.1591548290815155  0.5520412521440291  1.0000
  N   N1        1.0  0.22941568767195267  0.7490244452663217  0.5286362382633811  1.0000
  N   N2        1.0  0.7705848317186225  0.250975056187464  0.4713640746961687  1.0000
  N   N3        1.0  0.27020386991841866  0.7376806246399283  0.32314890866928886  1.0000
  N   N4        1.0  0.729795650913225  0.2623188720197973  0.676850735962276  1.0000
  Cl  Cl1       1.0  0.08289828513525782  0.46395057701318615  0.14753434501047738  1.0000
  Cl  Cl2       1.0  0.9171011990653144  0.5360497232615344  0.852465825733951  1.0000
  Cl  Cl3       1.0  0.7484020916348016  0.49823379121534117  0.12149875950208873  1.0000
  Cl  Cl4       1.0  0.25159831058206095  0.501768115122502  0.8785001058195687  1.0000
  Cl  Cl5       1.0  0.4305406693649658  0.1412471009328584  0.485645251438477  1.0000
  Cl  Cl6       1.0  0.5694598500256092  0.8587524005209274  0.5143550615210728  1.0000
  O   O1        1.0  0.10354008968713661  0.533947325957236  0.39501982997873597  1.0000
  O   O2        1.0  0.8964582457899725  0.4660561810029267  0.6049802639009413  1.0000
  O   O3        1.0  0.9086150068993677  0.4676940956996773  0.37894397433644395  1.0000
  O   O4        1.0  0.09138960569939773  0.5323030051440014  0.6210528946316883  1.0000
  O   O5        1.0  0.39423401438453  0.49304767106468733  0.33522434644365967  1.0000
  O   O6        1.0  0.6057726465241587  0.5069486476739584  0.664779385020573  1.0000
  O   O7        1.0  0.6161354886428114  0.4549512449956837  0.3413709258094641  1.0000
  O   O8        1.0  0.38387124734814654  0.5450434680032147  0.6586325099231586  1.0000
  O   O9        1.0  0.2595734481727447  0.35057302337583723  0.568189807410178  1.0000
  O   O10       1.0  0.7404199420615357  0.6494296649404064  0.43181095768144917  1.0000
  O   O11       1.0  0.4778400733767826  0.3786378645413039  0.5526853195270149  1.0000
  O   O12       1.0  0.5221504053635969  0.6213632111041535  0.447316927319676  1.0000
  F   F1        1.0  0.9704361464956439  0.8510877116875761  0.9514388229876257  1.0000
  F   F2        1.0  0.02956233732587781  0.1489125823028559  0.04855992293469309  1.0000
  F   F3        1.0  0.9082991175246137  0.9036135571338946  0.13690793138305674  1.0000
  F   F4        1.0  0.09170032822476061  0.0963875452655856  0.8630920089801178  1.0000
  F   F5        1.0  0.4751417548411753  0.2940500539544573  0.9541516147932825  1.0000
  F   F6        1.0  0.5248627881356925  0.705948657099668  0.04584781938883959  1.0000
  F   F7        1.0  0.27403223028842666  0.2659592236803975  0.11439641752857448  1.0000
  F   F8        1.0  0.7259733515186826  0.7340386915332505  0.8856046718569103  1.0000
  F   F9        1.0  0.43882517948586763  0.9032021731055623  0.8668021360153942  1.0000
  F   F10       1.0  0.5611763348233866  0.09679733016182719  0.13319733228389197  1.0000
  F   F11       1.0  0.3959029320270488  0.07475032263190683  0.945718877731025  1.0000
  F   F12       1.0  0.6040976276348432  0.9252483781873481  0.054282422103909746  1.0000
