data_image0
_chemical_formula_structural       Zn2H32C56S2N6O14
_chemical_formula_sum              "Zn2 H32 C56 S2 N6 O14"
_cell_length_a       11.762659313044157
_cell_length_b       16.662379371762025
_cell_length_c       16.97058216700807
_cell_angle_alpha    90.00540166776092
_cell_angle_beta     90.53182937851496
_cell_angle_gamma    89.32840579467565

_space_group_name_H-M_alt    "P 1"
_space_group_IT_number       1

loop_
  _space_group_symop_operation_xyz
  'x, y, z'

loop_
  _atom_site_type_symbol
  _atom_site_label
  _atom_site_symmetry_multiplicity
  _atom_site_fract_x
  _atom_site_fract_y
  _atom_site_fract_z
  _atom_site_occupancy
  Zn  Zn1       1.0  0.6139082874549188  0.998338367644692  0.5007588692218691  1.0000
  Zn  Zn2       1.0  0.386214775773297  0.0015965506324136002  0.49955272941233636  1.0000
  H   H1        1.0  0.1804445912174728  0.10820202201355761  0.5018981672642439  1.0000
  H   H2        1.0  0.23682648246381172  0.8628027455860875  0.5023234269682035  1.0000
  H   H3        1.0  0.8197357593211194  0.8917843320444233  0.5042202509981735  1.0000
  H   H4        1.0  0.7634221244182983  0.1371812733755107  0.501688146761893  1.0000
  H   H5        1.0  0.31323266732803745  0.28393824281337743  0.2084667241970308  1.0000
  H   H6        1.0  0.6849230417106256  0.7148143746265703  0.2116055146991513  1.0000
  H   H7        1.0  0.32068951034731435  0.7179115562511386  0.783608801118767  1.0000
  H   H8        1.0  0.6810838419927449  0.2827378749357622  0.7852461668508539  1.0000
  H   H9        1.0  0.6864277105067841  0.7138733077802469  0.7878548885730012  1.0000
  H   H10       1.0  0.3153238680322871  0.28752926650000177  0.784284560581348  1.0000
  H   H11       1.0  0.6786568688189901  0.28293622346065916  0.2178604824285486  1.0000
  H   H12       1.0  0.3195201149703024  0.7161388563330107  0.2164170960102325  1.0000
  H   H13       1.0  0.3108284767767842  0.17882509070774694  0.31415425555459103  1.0000
  H   H14       1.0  0.6876422686615626  0.8194605705457931  0.3178066513609465  1.0000
  H   H15       1.0  0.32284182020498514  0.8221064192688345  0.6775940797328133  1.0000
  H   H16       1.0  0.6787476436763955  0.1790664088115932  0.67865633645701  1.0000
  H   H17       1.0  0.6878438648964718  0.8179091274146159  0.6815690005326758  1.0000
  H   H18       1.0  0.3137652159134987  0.1840018524758023  0.6775294604393454  1.0000
  H   H19       1.0  0.6752098838186952  0.1782426112976268  0.323445097940116  1.0000
  H   H20       1.0  0.3232558474943659  0.8203307060571063  0.3225577915205662  1.0000
  H   H21       1.0  0.4977661966660277  0.4184331942659441  0.3009569713549354  1.0000
  H   H22       1.0  0.49885419518224683  0.580398373953514  0.3011955842759306  1.0000
  H   H23       1.0  0.5026948594662457  0.5815449600707153  0.6986497791898997  1.0000
  H   H24       1.0  0.5009997097642156  0.419529965214366  0.6983769379834754  1.0000
  H   H25       1.0  0.4972308924257759  0.19251209164950472  0.0786470952734248  1.0000
  H   H26       1.0  0.5017284542232475  0.8070829515449277  0.07989482078602349  1.0000
  H   H27       1.0  0.5025553378029457  0.8073334308407639  0.9205945124896857  1.0000
  H   H28       1.0  0.49800971860325655  0.19294322981351536  0.9193471569832922  1.0000
  H   H29       1.0  0.4990876758429649  0.4345122588784208  0.9996321849490571  1.0000
  H   H30       1.0  0.5006338863409638  0.5654203213749369  0.9997156389595787  1.0000
  H   H31       1.0  0.10705715889299228  0.2404090404609747  0.4207233882557304  1.0000
  H   H32       1.0  0.8911510016549896  0.7582799264332252  0.423825817966005  1.0000
  C   C1        1.0  0.49519016256138565  0.11293244231619329  0.6084656080357149  1.0000
  C   C2        1.0  0.4908834380357164  0.11067834275620211  0.38916241995713824  1.0000
  C   C3        1.0  0.5077761414871063  0.887727550495086  0.3906196919513718  1.0000
  C   C4        1.0  0.5063075776006656  0.888560385657847  0.6099608590618644  1.0000
  C   C5        1.0  0.1417082301129966  0.04912780101532381  0.500862944075493  1.0000
  C   C6        1.0  0.17271239072447034  0.9105093161012761  0.5016125312175248  1.0000
  C   C7        1.0  0.0580417308608858  0.8950284377683461  0.5026668171251742  1.0000
  C   C8        1.0  0.978317434735743  0.9600398409673049  0.5021884321355686  1.0000
  C   C9        1.0  0.8584455306191927  0.9508310355755044  0.5023196652210871  1.0000
  C   C10       1.0  0.8275025637258936  0.089454329908051  0.5013181784670664  1.0000
  C   C11       1.0  0.9421890187140037  0.1049333692001326  0.5014972838105152  1.0000
  C   C12       1.0  0.021874823098293902  0.039893772263774  0.5014799117068591  1.0000
  C   C13       1.0  0.3925057979419435  0.2607398877904004  0.2339516492338589  1.0000
  C   C14       1.0  0.6057269742291497  0.738003365699484  0.2362018670652972  1.0000
  C   C15       1.0  0.40111123617822403  0.7401957116545077  0.7613858484091054  1.0000
  C   C16       1.0  0.6006206027008788  0.2607810515143499  0.7617385281808636  1.0000
  C   C17       1.0  0.6067748879352804  0.7379274985207472  0.7637564634774492  1.0000
  C   C18       1.0  0.39495044055458806  0.2634735468400535  0.7611675113859135  1.0000
  C   C19       1.0  0.5979633074422849  0.26015093459853483  0.2391250939104594  1.0000
  C   C20       1.0  0.40027398570070727  0.738713915728397  0.2388184256900843  1.0000
  C   C21       1.0  0.39084151270094475  0.20260490400534084  0.292879904839431  1.0000
  C   C22       1.0  0.6075632768046475  0.7958297653855411  0.295459221330347  1.0000
  C   C23       1.0  0.4020285581216001  0.7981218331582484  0.7022718101826515  1.0000
  C   C24       1.0  0.5996070351504413  0.2031863336380439  0.7022790123223857  1.0000
  C   C25       1.0  0.6078768884452828  0.7958260136802056  0.704557301463467  1.0000
  C   C26       1.0  0.39376674053406197  0.2058788299452132  0.7016765155615091  1.0000
  C   C27       1.0  0.5963434721541107  0.2019379274163455  0.2979881535487863  1.0000
  C   C28       1.0  0.4020554667064715  0.796607538764377  0.2980295542900464  1.0000
  C   C29       1.0  0.49816635646521223  0.43424588999150165  0.1680578395135655  1.0000
  C   C30       1.0  0.49926178057594944  0.5649798926332252  0.16824158507223794  1.0000
  C   C31       1.0  0.5018400182992906  0.5656620430165447  0.8314989331456104  1.0000
  C   C32       1.0  0.5004134721611777  0.4349970639682468  0.8312799745117019  1.0000
  C   C33       1.0  0.49805771939666943  0.4586658753217847  0.2506298257525899  1.0000
  C   C34       1.0  0.4987631358233813  0.540319484119543  0.25074085993224327  1.0000
  C   C35       1.0  0.5020817475868425  0.5412636649834041  0.7489187662231486  1.0000
  C   C36       1.0  0.5011722174000467  0.4596604734751324  0.7487802142905764  1.0000
  C   C37       1.0  0.4978848140837541  0.3260025944304132  0.065940718463132  1.0000
  C   C38       1.0  0.5011426844162514  0.6736412760377634  0.0665687813619869  1.0000
  C   C39       1.0  0.5018002992468098  0.6739209485262523  0.9334600869566003  1.0000
  C   C40       1.0  0.49868737459948415  0.3263062750885338  0.9328209557562771  1.0000
  C   C41       1.0  0.497576023567497  0.2440977193121938  0.0396621504206678  1.0000
  C   C42       1.0  0.5017842658103647  0.7556696173363308  0.0406791896249032  1.0000
  C   C43       1.0  0.5021395401999696  0.7558222246155852  0.9596698617524951  1.0000
  C   C44       1.0  0.4980267315358233  0.2442881389921894  0.9586503503797702  1.0000
  C   C45       1.0  0.4975729482246649  0.3533222637180771  0.1440560294186355  1.0000
  C   C46       1.0  0.500539372911831  0.6459824313567354  0.1445417586387379  1.0000
  C   C47       1.0  0.5023621756087377  0.6466030789235404  0.8553737036043003  1.0000
  C   C48       1.0  0.4992666768874089  0.3539765236368453  0.8548431471932931  1.0000
  C   C49       1.0  0.49609772275246666  0.2903825993930198  0.20666170754649474  1.0000
  C   C50       1.0  0.5020615868654659  0.7086162840935019  0.20744965575647714  1.0000
  C   C51       1.0  0.5034646782614018  0.7094383130172093  0.7926459697165313  1.0000
  C   C52       1.0  0.4982969224218294  0.2915197346934946  0.7917400004674491  1.0000
  C   C53       1.0  0.4927221346867583  0.172896001999014  0.3255867792479705  1.0000
  C   C54       1.0  0.5057510555483943  0.8254562363591589  0.3270558661131702  1.0000
  C   C55       1.0  0.5054295037557351  0.8263175230487718  0.6733809547829637  1.0000
  C   C56       1.0  0.49617930058916937  0.17529379223615393  0.6718228104836826  1.0000
  S   S1        1.0  0.9822998740056619  0.2081548861737303  0.5054957672222784  1.0000
  S   S2        1.0  0.018084449889173005  0.7918762472765124  0.5081690886115666  1.0000
  N   N1        1.0  0.2121610716033402  0.9868830454358886  0.5003972814040979  1.0000
  N   N2        1.0  0.7879907993576581  0.013078835839124298  0.5013834779825075  1.0000
  N   N3        1.0  0.498862383368035  0.49967954248423757  0.1190774744526237  1.0000
  N   N4        1.0  0.5008622421659865  0.5002547981819703  0.8805097318004442  1.0000
  N   N5        1.0  0.49867194892021155  0.37324729568638304  0.9995015884823316  1.0000
  N   N6        1.0  0.5010498347261106  0.6266852823623594  0.9999169472815268  1.0000
  O   O1        1.0  0.591188266236628  0.0875887567577891  0.5836201163346003  1.0000
  O   O2        1.0  0.39857202735874614  0.08890558147123781  0.5837632617757222  1.0000
  O   O3        1.0  0.39392548736565663  0.0888136420994954  0.4140150700402359  1.0000
  O   O4        1.0  0.5866251949609945  0.083778000695979  0.41402164405421626  1.0000
  O   O5        1.0  0.4121308877478569  0.9147050028645011  0.4143634053071423  1.0000
  O   O6        1.0  0.6048259692464625  0.909722714534098  0.41643353751680223  1.0000
  O   O7        1.0  0.6028274817905198  0.9124939254009093  0.5862370346786676  1.0000
  O   O8        1.0  0.4102095037375689  0.913763410590768  0.5839447703686743  1.0000
  O   O9        1.0  0.029729393686039905  0.219265464873402  0.4170191026915191  1.0000
  O   O10       1.0  0.8800484870742551  0.25477306268273037  0.512462168750929  1.0000
  O   O11       1.0  0.0766234491749032  0.2171579411980744  0.5593733839721082  1.0000
  O   O12       1.0  0.9683150460127478  0.7794909631149025  0.4198583637291478  1.0000
  O   O13       1.0  0.12058390095008058  0.745406464895126  0.515776823515516  1.0000
  O   O14       1.0  0.9252568705342341  0.7836314761716282  0.562200010117003  1.0000
