data_image0
_chemical_formula_structural       Zn4H24C40O16
_chemical_formula_sum              "Zn4 H24 C40 O16"
_cell_length_a       7.5035900726574996
_cell_length_b       15.391590668093338
_cell_length_c       15.396876094365515
_cell_angle_alpha    90.00308730812228
_cell_angle_beta     89.72764796842765
_cell_angle_gamma    90.15109372176047

_space_group_name_H-M_alt    "P 1"
_space_group_IT_number       1

loop_
  _space_group_symop_operation_xyz
  'x, y, z'

loop_
  _atom_site_type_symbol
  _atom_site_label
  _atom_site_symmetry_multiplicity
  _atom_site_fract_x
  _atom_site_fract_y
  _atom_site_fract_z
  _atom_site_occupancy
  Zn  Zn1       1.0  0.3340229939635435  0.9999836264393666  0.5003749186258588  1.0000
  Zn  Zn2       1.0  0.6923472877093246  0.9973404277580472  0.5026047509595344  1.0000
  Zn  Zn3       1.0  0.6923681911992503  0.5025067135215551  0.997442282560115  1.0000
  Zn  Zn4       1.0  0.3340296208314228  0.4990196204562168  0.0012798666547056  1.0000
  H   H1        1.0  0.8805145239911026  0.8057408108121111  0.3081918674228205  1.0000
  H   H2        1.0  0.8804685023212996  0.693698398539354  0.1917476716736743  1.0000
  H   H3        1.0  0.17734108906595472  0.6514514563039172  0.23181360170467255  1.0000
  H   H4        1.0  0.17837775129601138  0.7344950899234347  0.151100007352774  1.0000
  H   H5        1.0  0.17863849544505678  0.8489743342918886  0.2687632368418136  1.0000
  H   H6        1.0  0.17704483542240007  0.7659017346088746  0.34944631688833977  1.0000
  H   H7        1.0  0.8806471926622804  0.19148632376995067  0.694057913888102  1.0000
  H   H8        1.0  0.8806088078579819  0.3079003071941316  0.8061350687214313  1.0000
  H   H9        1.0  0.1785115830360766  0.34928581386632374  0.7660406465957195  1.0000
  H   H10       1.0  0.17742184912095377  0.2685466705995482  0.8490555279802975  1.0000
  H   H11       1.0  0.17734767822218336  0.15085588943648534  0.7347035332383098  1.0000
  H   H12       1.0  0.17865482827806994  0.23152833372945034  0.6516136338754634  1.0000
  H   H13       1.0  0.7294899261513023  0.1929065698587351  0.3070710860746928  1.0000
  H   H14       1.0  0.729455206549794  0.3071764453065812  0.19277444740973945  1.0000
  H   H15       1.0  0.027507189846708992  0.2658107312779877  0.1521562285824558  1.0000
  H   H16       1.0  0.027217847706793905  0.3477575769289487  0.23404102274796654  1.0000
  H   H17       1.0  0.0269365763475733  0.23171361168176227  0.3500829378852757  1.0000
  H   H18       1.0  0.0274084272412267  0.1497675348820309  0.268214156509984  1.0000
  H   H19       1.0  0.12711073878029572  0.8062205000207571  0.6939983097508245  1.0000
  H   H20       1.0  0.12693553365147636  0.6919720209849063  0.808165329376173  1.0000
  H   H21       1.0  0.8293883954193148  0.651183562046455  0.7671704380577251  1.0000
  H   H22       1.0  0.8289752022427378  0.7331641044834499  0.849052816909001  1.0000
  H   H23       1.0  0.8294436936696384  0.8493005419063878  0.7329178768762786  1.0000
  H   H24       1.0  0.8298238835293431  0.7673680906778699  0.6509914165105427  1.0000
  C   C1        1.0  0.4187596115113124  0.8837986813026363  0.6164424439048729  1.0000
  C   C2        1.0  0.5923393816484148  0.8821658336914597  0.3862939961619175  1.0000
  C   C3        1.0  0.44780733882644336  0.11535167887195291  0.38485499523899586  1.0000
  C   C4        1.0  0.5924864350737165  0.11373148990000463  0.6178900438229034  1.0000
  C   C5        1.0  0.4478853681127076  0.38386122380769916  0.11620958137603307  1.0000
  C   C6        1.0  0.5922594315954297  0.6174995003475985  0.11411860504515657  1.0000
  C   C7        1.0  0.41861252749968253  0.615397180475  0.8847977194386799  1.0000
  C   C8        1.0  0.5923553028189019  0.38584238887079886  0.8826240240919958  1.0000
  C   C9        1.0  0.5948862987423665  0.6849371790007623  0.18293682673911593  1.0000
  C   C10       1.0  0.5949177275313674  0.8148665514347898  0.3173246454014063  1.0000
  C   C11       1.0  0.4375171621764053  0.7184628698603319  0.21765018011201676  1.0000
  C   C12       1.0  0.754994421077697  0.781248569277345  0.28267152158294806  1.0000
  C   C13       1.0  0.4375110444241485  0.7816130756720697  0.28270862383850204  1.0000
  C   C14       1.0  0.754984914230526  0.7183759690057697  0.21738342633832267  1.0000
  C   C15       1.0  0.23600651864768446  0.7143393281931837  0.21339076781524818  1.0000
  C   C16       1.0  0.23600882753382985  0.7860135689531024  0.2871182960489591  1.0000
  C   C17       1.0  0.5950043058655508  0.31700206676062254  0.8151918452382885  1.0000
  C   C18       1.0  0.5950782961559113  0.18266471359397232  0.6852203700409305  1.0000
  C   C19       1.0  0.43763422844994443  0.2824559614800393  0.7818177429349332  1.0000
  C   C20       1.0  0.755150458190087  0.21713278501980676  0.7186930408818597  1.0000
  C   C21       1.0  0.43766593509288737  0.21741484760749333  0.7186469373218782  1.0000
  C   C22       1.0  0.7551151996881129  0.28239892405485295  0.7815899684505891  1.0000
  C   C23       1.0  0.23613517304197978  0.2869149963998937  0.7861488756669103  1.0000
  C   C24       1.0  0.23615450069384988  0.21316647048040238  0.714496528441394  1.0000
  C   C25       1.0  0.4440437362008112  0.3156205708962219  0.18431705933879527  1.0000
  C   C26       1.0  0.4439902158455951  0.18343485685286248  0.3166054893341226  1.0000
  C   C27       1.0  0.2868277603194329  0.2812946826763748  0.21859194144874994  1.0000
  C   C28       1.0  0.6040578735202189  0.21783574078598628  0.2821427047489066  1.0000
  C   C29       1.0  0.28676889470141725  0.21711938241249842  0.28283003974200227  1.0000
  C   C30       1.0  0.6040777194568109  0.2817788550274186  0.218158396609347  1.0000
  C   C31       1.0  0.08541042803174288  0.2852071435633833  0.21466689374329206  1.0000
  C   C32       1.0  0.08534613732302178  0.21251683095233898  0.2873887904383778  1.0000
  C   C33       1.0  0.41283960769071365  0.6834885471084463  0.8167110545411729  1.0000
  C   C34       1.0  0.41302181585614756  0.8156865865363445  0.6845569200848728  1.0000
  C   C35       1.0  0.5700465379454228  0.7178391589123905  0.7823868447466821  1.0000
  C   C36       1.0  0.25271273145655465  0.7813954866663834  0.7188298009606624  1.0000
  C   C37       1.0  0.570202773233838  0.7818857141802769  0.7183563469863756  1.0000
  C   C38       1.0  0.25263303500413764  0.7172215604346304  0.7829607612566959  1.0000
  C   C39       1.0  0.7713403382231475  0.7138062951137131  0.7864522263662437  1.0000
  C   C40       1.0  0.7715965979105092  0.7865331259715235  0.7137359708124862  1.0000
  O   O1        1.0  0.269901333655305  0.9136662317832175  0.5867580334335967  1.0000
  O   O2        1.0  0.5720769008857686  0.9088181624129988  0.5912166111137862  1.0000
  O   O3        1.0  0.7433114642940948  0.9089359868653447  0.4167691303477596  1.0000
  O   O4        1.0  0.4407629550572095  0.9095670162954407  0.41096997777658106  1.0000
  O   O5        1.0  0.5980013958432264  0.08869335364337871  0.4114295807026095  1.0000
  O   O6        1.0  0.29487914658724895  0.08762548745946931  0.4127862928264534  1.0000
  O   O7        1.0  0.44090007161801736  0.08925686724258243  0.5906183646892201  1.0000
  O   O8        1.0  0.7434511197803032  0.08308776083836023  0.590969266478531  1.0000
  O   O9        1.0  0.5981072103534542  0.410940958447462  0.08903314860331338  1.0000
  O   O10       1.0  0.2949851180877871  0.411274345661397  0.0890330339436574  1.0000
  O   O11       1.0  0.4406687306788726  0.5897040373457543  0.0901751854947364  1.0000
  O   O12       1.0  0.7432315359503717  0.591016726691805  0.08304286780375489  1.0000
  O   O13       1.0  0.2697518914106496  0.5851769958163615  0.915207362876245  1.0000
  O   O14       1.0  0.5719073082309549  0.5907354987457722  0.909291906666901  1.0000
  O   O15       1.0  0.7433163543375372  0.4168137864540499  0.908919576520965  1.0000
  O   O16       1.0  0.44075345544899847  0.40991886326386867  0.9105737311696769  1.0000
