data_image0
_chemical_formula_structural       CuH18C28N8O4
_chemical_formula_sum              "Cu1 H18 C28 N8 O4"
_cell_length_a       7.096293777431795
_cell_length_b       8.032937244852963
_cell_length_c       10.86426439744469
_cell_angle_alpha    97.50028231948426
_cell_angle_beta     96.03382876640266
_cell_angle_gamma    97.83275788789301

_space_group_name_H-M_alt    "P 1"
_space_group_IT_number       1

loop_
  _space_group_symop_operation_xyz
  'x, y, z'

loop_
  _atom_site_type_symbol
  _atom_site_label
  _atom_site_symmetry_multiplicity
  _atom_site_fract_x
  _atom_site_fract_y
  _atom_site_fract_z
  _atom_site_occupancy
  Cu  Cu1       1.0  0.5000132750489001  0.9999963842918974  1.693386025183681e-06  1.0000
  H   H1        1.0  0.641304908936256  0.42250154245871124  0.765259356325963  1.0000
  H   H2        1.0  0.3586804058538037  0.5775016458819736  0.23474582309783193  1.0000
  H   H3        1.0  0.44446641620244526  0.13612159509091984  0.2585045967455244  1.0000
  H   H4        1.0  0.5555377115699258  0.8638844739048964  0.7414965728531513  1.0000
  H   H5        1.0  0.9989732417028211  0.37348083844342744  0.4503006511523254  1.0000
  H   H6        1.0  0.001026680185574931  0.626534347248665  0.5496968006248437  1.0000
  H   H7        1.0  0.13830185935440656  0.28225952142907573  0.256302712598405  1.0000
  H   H8        1.0  0.8617022068457063  0.7177631412184342  0.7436986974049165  1.0000
  H   H9        1.0  0.9245805928830891  0.11118457106189791  0.07346605190354441  1.0000
  H   H10       1.0  0.07543056110453962  0.888812486615457  0.9265371795482054  1.0000
  H   H11       1.0  0.1196292291695329  0.0654697859260693  0.5503198654005956  1.0000
  H   H12       1.0  0.8803803321808559  0.9345351753408195  0.449678734946076  1.0000
  H   H13       1.0  0.8298112232348914  0.0142609243012117  0.6603248576115632  1.0000
  H   H14       1.0  0.17017995882775244  0.9857369156608229  0.33966158567223914  1.0000
  H   H15       1.0  0.0779303831513616  0.434679379603253  0.9466065710675197  1.0000
  H   H16       1.0  0.9220613166994698  0.5652947876433672  0.053392587555528295  1.0000
  H   H17       1.0  0.3608780281338753  0.4823086958148366  0.8393415284454306  1.0000
  H   H18       1.0  0.6391220145799253  0.5176895039857143  0.16066300678439666  1.0000
  C   C1        1.0  0.598738482950779  0.17045441042225207  0.26180066096524274  1.0000
  C   C2        1.0  0.4012674519500267  0.829545024438609  0.7382053125358115  1.0000
  C   C3        1.0  0.7096021926639723  0.2595966162464549  0.37059020923370417  1.0000
  C   C4        1.0  0.29040414159266004  0.7404055536435052  0.6294124479332979  1.0000
  C   C5        1.0  0.9072180136597796  0.3034559442139794  0.3682958645421622  1.0000
  C   C6        1.0  0.09278513292934325  0.6965526110020904  0.6317064786353299  1.0000
  C   C7        1.0  0.9849207185443875  0.2530004911208934  0.2601052263760124  1.0000
  C   C8        1.0  0.015079691579558095  0.7470168412405229  0.7398998948530463  1.0000
  C   C9        1.0  0.8664852234410887  0.15917389501328927  0.1573226790309192  1.0000
  C   C10       1.0  0.13352255801440557  0.8408280824156692  0.8426837275626725  1.0000
  C   C11       1.0  0.6214018178868204  0.3003849605805229  0.48416865091180483  1.0000
  C   C12       1.0  0.37860984894933136  0.6996235185291584  0.5158360482176719  1.0000
  C   C13       1.0  0.4228525503585204  0.3027543063892253  0.6176437014592153  1.0000
  C   C14       1.0  0.5771424605261191  0.6972571580222892  0.38235113846791796  1.0000
  C   C15       1.0  0.25692320789523393  0.27737179077722374  0.6850286870128601  1.0000
  C   C16       1.0  0.7430726067146624  0.7226356728095453  0.31496938394897  1.0000
  C   C17       1.0  0.10589946955611403  0.14603356604347786  0.6364412875686655  1.0000
  C   C18       1.0  0.8940895726820487  0.8539677317545795  0.3635519074862685  1.0000
  C   C19       1.0  0.9461035128555154  0.1172295949414632  0.6988496716408436  1.0000
  C   C20       1.0  0.05389291051388064  0.8827657207471163  0.30113677604013134  1.0000
  C   C21       1.0  0.9335908258044656  0.22198275776001714  0.8105894911998845  1.0000
  C   C22       1.0  0.06640401734794217  0.7780109416051817  0.18940310456098794  1.0000
  C   C23       1.0  0.08443620820035852  0.3530460877980702  0.8594345471546562  1.0000
  C   C24       1.0  0.9155655379488723  0.6469461642872573  0.14056197522727842  1.0000
  C   C25       1.0  0.24583968482251348  0.37990755130252307  0.7983267735562408  1.0000
  C   C26       1.0  0.7541548502468205  0.6200922465267596  0.20167117610397162  1.0000
  C   C27       1.0  0.761121988255198  0.1980782400976367  0.8788052826649633  1.0000
  C   C28       1.0  0.23887422563660013  0.8019063352534206  0.12119085592153313  1.0000
  N   N1        1.0  0.6753547480773819  0.1208184128027554  0.15726848836266072  1.0000
  N   N2        1.0  0.3246465051241501  0.8791784721721569  0.8427368770499726  1.0000
  N   N3        1.0  0.43499749375692437  0.24350492358310308  0.4980782294313927  1.0000
  N   N4        1.0  0.5649967110094138  0.7565011198002124  0.5019223276816831  1.0000
  N   N5        1.0  0.5952118121917709  0.3934340701857479  0.6705469542908347  1.0000
  N   N6        1.0  0.4047814039846784  0.6065745084478067  0.3294538609188963  1.0000
  N   N7        1.0  0.7239606255826487  0.3915997749033621  0.5876976167662562  1.0000
  N   N8        1.0  0.2760404969938008  0.6084047231401185  0.412308697932211  1.0000
  O   O1        1.0  0.7087720134992496  0.04299665036568708  0.8976941084620763  1.0000
  O   O2        1.0  0.29125634355319363  0.9569762444985346  0.1023089832745256  1.0000
  O   O3        1.0  0.6815730079171232  0.3226972179612274  0.9149719635627207  1.0000
  O   O4        1.0  0.3184141950990664  0.6772758649739572  0.0850230978405548  1.0000
