data_image0
_chemical_formula_structural       Zn4H84C88N28O16
_chemical_formula_sum              "Zn4 H84 C88 N28 O16"
_cell_length_a       23.08954397419318
_cell_length_b       24.097027444550964
_cell_length_c       24.302963692114375
_cell_angle_alpha    94.49465912833064
_cell_angle_beta     115.67507746648458
_cell_angle_gamma    116.17172259765215

_space_group_name_H-M_alt    "P 1"
_space_group_IT_number       1

loop_
  _space_group_symop_operation_xyz
  'x, y, z'

loop_
  _atom_site_type_symbol
  _atom_site_label
  _atom_site_symmetry_multiplicity
  _atom_site_fract_x
  _atom_site_fract_y
  _atom_site_fract_z
  _atom_site_occupancy
  Zn  Zn1       1.0  0.4992239451442374  0.0418929829529588  0.5448968515121565  1.0000
  Zn  Zn2       1.0  0.5048061991721369  0.9603352534298323  0.45639078916319425  1.0000
  Zn  Zn3       1.0  0.49985996425536416  0.45990771998076946  0.9535996077461422  1.0000
  Zn  Zn4       1.0  0.5029615952670741  0.5411855102706016  0.04779231480018354  1.0000
  H   H1        1.0  0.42837246625197867  0.3211498111709544  0.8906733729411871  1.0000
  H   H2        1.0  0.43213599107460954  0.24633421182226553  0.817846992585544  1.0000
  H   H3        1.0  0.3996652621218074  0.08760509783434138  0.6874252395620533  1.0000
  H   H4        1.0  0.5683369827218812  0.2609931555682651  0.6828303621408411  1.0000
  H   H5        1.0  0.5677524932647343  0.30997083369188516  0.7554614245689494  1.0000
  H   H6        1.0  0.42964888913450483  0.1912375605869343  0.7423594538931795  1.0000
  H   H7        1.0  0.5760469063187446  0.6796749151436361  0.11330615459296219  1.0000
  H   H8        1.0  0.5650322217166774  0.7534667361712479  0.17978953648378854  1.0000
  H   H9        1.0  0.597839968750698  0.9115669731784595  0.3091215215318499  1.0000
  H   H10       1.0  0.4192386582815928  0.7400984630618694  0.3060970177399156  1.0000
  H   H11       1.0  0.4380084240216462  0.6888960197603993  0.25069330597710154  1.0000
  H   H12       1.0  0.551791417330989  0.8092327985766162  0.23986025058044194  1.0000
  H   H13       1.0  0.4963574488874869  0.4290752994052128  0.17372052548108738  1.0000
  H   H14       1.0  0.4938010527947581  0.3572314831101338  0.24072096485173225  1.0000
  H   H15       1.0  0.4843812294139909  0.2607955235044557  0.3799396360988681  1.0000
  H   H16       1.0  0.4996607282290028  0.1403908741696114  0.2525051055159793  1.0000
  H   H17       1.0  0.508318623024678  0.20814961650128788  0.20897217281025596  1.0000
  H   H18       1.0  0.4801304436983287  0.28681973733873173  0.28832012120332  1.0000
  H   H19       1.0  0.5073723467907881  0.5738752951236421  0.8275271419732777  1.0000
  H   H20       1.0  0.5040277782148834  0.6437319059362564  0.7587434735756703  1.0000
  H   H21       1.0  0.504044207175923  0.7379742286707582  0.6161943284773842  1.0000
  H   H22       1.0  0.49602313743800164  0.859740089933105  0.7489955271207408  1.0000
  H   H23       1.0  0.5024686176560423  0.7988093069754714  0.7985633591413334  1.0000
  H   H24       1.0  0.49481148613787684  0.7037336642118744  0.7009000816352967  1.0000
  H   H25       1.0  0.7390230053846736  0.6739353048762382  0.17544828662793305  1.0000
  H   H26       1.0  0.8788310390210154  0.7403738236855304  0.24296284070345556  1.0000
  H   H27       1.0  0.11195855066368669  0.8780138553084312  0.38512120218565127  1.0000
  H   H28       1.0  0.11940350345827964  0.7554998748254462  0.2524740984150142  1.0000
  H   H29       1.0  0.007026397153303775  0.710609814716939  0.20319952383320575  1.0000
  H   H30       1.0  0.9970957287421243  0.7878221752660368  0.30119200690130304  1.0000
  H   H31       1.0  0.2646123247678531  0.3297690884600897  0.8244951867822083  1.0000
  H   H32       1.0  0.12488998721224222  0.259256744834282  0.7597469407500201  1.0000
  H   H33       1.0  0.8945920168576863  0.11569732448585772  0.6218330964914573  1.0000
  H   H34       1.0  0.8820496076302359  0.2391594396337169  0.748909714367386  1.0000
  H   H35       1.0  0.9950567919105777  0.292994587969126  0.792733162698511  1.0000
  H   H36       1.0  0.0077451339028016195  0.19884037754609102  0.7133695258473766  1.0000
  H   H37       1.0  0.5689971228714085  0.5245927548314668  0.8950012543650275  1.0000
  H   H38       1.0  0.6005880972459892  0.516102696307307  0.8441702884086556  1.0000
  H   H39       1.0  0.6206427112328042  0.4019257871394828  0.7819183984680294  1.0000
  H   H40       1.0  0.6579987002187193  0.4702739581519849  0.8407730308336383  1.0000
  H   H41       1.0  0.5763483442786564  0.1667877289969653  0.567589257514925  1.0000
  H   H42       1.0  0.6109572719771776  0.2426938484564403  0.6157149559963815  1.0000
  H   H43       1.0  0.41789714249988197  0.9800292203145488  0.5923119564621189  1.0000
  H   H44       1.0  0.37482112533631107  0.9862894444134797  0.6326883510638768  1.0000
  H   H45       1.0  0.4271501661404996  0.47465094012685677  0.10051631934592098  1.0000
  H   H46       1.0  0.35841221813845436  0.476268393610674  0.11119279050982553  1.0000
  H   H47       1.0  0.38417557261806223  0.597049340547514  0.22273715708328012  1.0000
  H   H48       1.0  0.3865015193896539  0.5304027007118464  0.20081405305725042  1.0000
  H   H49       1.0  0.4010374142464672  0.8370438881038498  0.4098735437896012  1.0000
  H   H50       1.0  0.3702605838907615  0.7606909163980617  0.3665468561180133  1.0000
  H   H51       1.0  0.6131998445385276  0.019466527954705295  0.43417172298700296  1.0000
  H   H52       1.0  0.6450366327640109  0.0129038478252923  0.38329439265522325  1.0000
  H   H53       1.0  0.4988115494377752  0.32599036554644556  0.004737895998836371  1.0000
  H   H54       1.0  0.47383930605207775  0.248141937918156  0.009126935422862926  1.0000
  H   H55       1.0  0.5130341425655516  0.19564112045254237  0.13680213117014262  1.0000
  H   H56       1.0  0.5393637671942813  0.23070087288593302  0.08813198034713565  1.0000
  H   H57       1.0  0.5068251837122304  0.03028078280502199  0.34159385098111983  1.0000
  H   H58       1.0  0.5023592620480172  0.05052197634769579  0.27230132048311634  1.0000
  H   H59       1.0  0.47815028333037185  0.16271798874069526  0.4822714118987009  1.0000
  H   H60       1.0  0.46773466308890477  0.2259424406623296  0.4598234342228694  1.0000
  H   H61       1.0  0.4891122790659848  0.6671741747964005  0.9902031261252091  1.0000
  H   H62       1.0  0.45902723370762294  0.7181581286769045  0.9603580685143954  1.0000
  H   H63       1.0  0.49984819849174733  0.811417469984782  0.8718097164197475  1.0000
  H   H64       1.0  0.5235263382935925  0.8000250216134075  0.9438011751078649  1.0000
  H   H65       1.0  0.5145835188101701  0.9821864598878065  0.6748736278316018  1.0000
  H   H66       1.0  0.5154182965381366  0.9584323522109202  0.7405462822829776  1.0000
  H   H67       1.0  0.5036584172054858  0.8345769855707558  0.5113236665128298  1.0000
  H   H68       1.0  0.5032015744069014  0.764771526077027  0.527668193306063  1.0000
  H   H69       1.0  0.6874801642366248  0.509196415129807  0.015460525786217202  1.0000
  H   H70       1.0  0.7710394378163483  0.5106803722777044  0.04667310642165746  1.0000
  H   H71       1.0  0.9516764327691831  0.6393243694454966  0.13108693457489548  1.0000
  H   H72       1.0  0.8696213326846376  0.5911069204259861  0.06036199877162573  1.0000
  H   H73       1.0  0.3186846902308673  0.8500633017792653  0.3265481791763136  1.0000
  H   H74       1.0  0.23205796909221724  0.7888201432299055  0.26055285929275124  1.0000
  H   H75       1.0  0.3135310432214595  0.981989716331199  0.4892460950650629  1.0000
  H   H76       1.0  0.2235868545690922  0.9618537492112441  0.4734023932870955  1.0000
  H   H77       1.0  0.3143847912176838  0.48564823493922665  0.9916927312320567  1.0000
  H   H78       1.0  0.22902184714671142  0.45447993459563923  0.9888003041690326  1.0000
  H   H79       1.0  0.04942151349215606  0.3618495200163919  0.8668591187959012  1.0000
  H   H80       1.0  0.12846941501736353  0.43614063382725027  0.9104078653677093  1.0000
  H   H81       1.0  0.6803661126191185  0.15575442212939086  0.6595751380609229  1.0000
  H   H82       1.0  0.7671770192060237  0.21772321041991194  0.7285376830987433  1.0000
  H   H83       1.0  0.6944963397979294  0.007532238935610301  0.5193773411990039  1.0000
  H   H84       1.0  0.7842005011239407  0.0238529300631569  0.5414144995640983  1.0000
  C   C1        1.0  0.5023053631528923  0.9239733713194694  0.5741210468891822  1.0000
  C   C2        1.0  0.3508523454598844  0.9281614251239603  0.42705779207889805  1.0000
  C   C3        1.0  0.5012338845690394  0.08307497130115143  0.4322632008274213  1.0000
  C   C4        1.0  0.6535102170277652  0.06957420204374641  0.5691003159733301  1.0000
  C   C5        1.0  0.650141446329556  0.5685784485011638  0.07039950816214709  1.0000
  C   C6        1.0  0.5048066818730775  0.5858729479901613  0.9363061256522871  1.0000
  C   C7        1.0  0.3523792137480227  0.4332000131550798  0.9310842813121385  1.0000
  C   C8        1.0  0.49717459341244563  0.4147476448231375  0.06423661348171096  1.0000
  C   C9        1.0  0.4640651910056235  0.3399843911777581  0.8703236132131665  1.0000
  C   C10       1.0  0.46664161360925505  0.2991137282086171  0.8299648268640996  1.0000
  C   C11       1.0  0.5156698572406242  0.32583083207292407  0.8061236373313392  1.0000
  C   C12       1.0  0.5590517389659053  0.3945381192759854  0.8244655733960756  1.0000
  C   C13       1.0  0.5487635231528498  0.43349834817538363  0.8626348214993984  1.0000
  C   C14       1.0  0.521761309752179  0.2848804621674503  0.7643934213218702  1.0000
  C   C15       1.0  0.4764048721923756  0.2190722313998351  0.7349993376891605  1.0000
  C   C16       1.0  0.4392163836722602  0.1117084618998163  0.6716790373462377  1.0000
  C   C17       1.0  0.48386068663270265  0.18016188032626698  0.6922603960763212  1.0000
  C   C18       1.0  0.5334464267906114  0.2081335883480264  0.6701660552372959  1.0000
  C   C19       1.0  0.5374380234906155  0.167582709511791  0.6291612648426723  1.0000
  C   C20       1.0  0.44547616426710596  0.07331012947173582  0.6304583400359577  1.0000
  C   C21       1.0  0.5377715012563656  0.660401510554216  0.1311789628096989  1.0000
  C   C22       1.0  0.5307451704784397  0.7006702553939802  0.16778683904744432  1.0000
  C   C23       1.0  0.4806854960278599  0.6737589993968031  0.1905626996895364  1.0000
  C   C24       1.0  0.4386680178230408  0.6049613515332837  0.17318803151285783  1.0000
  C   C25       1.0  0.4494864418252646  0.5663926633996256  0.13525197310294604  1.0000
  C   C26       1.0  0.4752644128392304  0.7144993753178069  0.23314405864331172  1.0000
  C   C27       1.0  0.5132110991600812  0.7808128859342885  0.2552794108180905  1.0000
  C   C28       1.0  0.5578777996413252  0.8880787999952491  0.3246202806262346  1.0000
  C   C29       1.0  0.5090637114264212  0.8199009872197037  0.3008728388840182  1.0000
  C   C30       1.0  0.4593276289439387  0.7926701343316795  0.3230106417236059  1.0000
  C   C31       1.0  0.4602369114903624  0.8336765433558071  0.3679413755675682  1.0000
  C   C32       1.0  0.5563868917781319  0.9269947852475936  0.3697108359181981  1.0000
  C   C33       1.0  0.49853353716231635  0.3708841410907339  0.10371051418773891  1.0000
  C   C34       1.0  0.49652891649105146  0.38503432650504266  0.16016001890383078  1.0000
  C   C35       1.0  0.49511643987433007  0.34476140162902164  0.1973863041052013  1.0000
  C   C36       1.0  0.49771724769396286  0.2883390450754391  0.18161375308539357  1.0000
  C   C37       1.0  0.501254858255507  0.2742244074044963  0.12605093619030333  1.0000
  C   C38       1.0  0.5003399724684455  0.31458662589691494  0.08624360097914516  1.0000
  C   C39       1.0  0.4987759496379596  0.2465927875173364  0.22151077147390913  1.0000
  C   C40       1.0  0.4897276119781182  0.24945012799260272  0.27292094919950227  1.0000
  C   C41       1.0  0.4888063133714552  0.2190403969939396  0.3669143756724722  1.0000
  C   C42       1.0  0.4920967087460326  0.2061507211168419  0.3114658944388466  1.0000
  C   C43       1.0  0.4979214097702921  0.15249976645813487  0.2957255666794651  1.0000
  C   C44       1.0  0.5016425531471711  0.1124525142832482  0.33437034411518607  1.0000
  C   C45       1.0  0.49898201073860077  0.12543480947802982  0.3919143604590333  1.0000
  C   C46       1.0  0.49206478081372745  0.1802075307804856  0.4069601967440094  1.0000
  C   C47       1.0  0.5032525947812445  0.630197468807566  0.8973405930163666  1.0000
  C   C48       1.0  0.5051806178790127  0.6168157206343988  0.8407142278196531  1.0000
  C   C49       1.0  0.5025537430955892  0.6556118226509824  0.8021107661909995  1.0000
  C   C50       1.0  0.4991356946755517  0.7114725239553651  0.8182093582588976  1.0000
  C   C51       1.0  0.49685318471078677  0.7254370909460377  0.8745159879103426  1.0000
  C   C52       1.0  0.49745750843131714  0.6843572021944339  0.9136459292529794  1.0000
  C   C53       1.0  0.4996319424233279  0.7544781210823147  0.7795853228597595  1.0000
  C   C54       1.0  0.497759901934593  0.746984774797305  0.7228914436816538  1.0000
  C   C55       1.0  0.5027513129469198  0.7810352829969673  0.6314931860490703  1.0000
  C   C56       1.0  0.4997543086070594  0.7929834236708544  0.6871121700219406  1.0000
  C   C57       1.0  0.49918328393429323  0.8490716987859627  0.7062904572464035  1.0000
  C   C58       1.0  0.5009422045373881  0.8923023389312805  0.6710779102288029  1.0000
  C   C59       1.0  0.5029682901888676  0.8803330922179954  0.6131742488090168  1.0000
  C   C60       1.0  0.5052097731107209  0.8234505644879205  0.594704791572461  1.0000
  C   C61       1.0  0.7343051487843795  0.6067017176131912  0.10789446657773269  1.0000
  C   C62       1.0  0.7729590494518986  0.661605435321455  0.16320696916791633  1.0000
  C   C63       1.0  0.850835316825993  0.6981808690112671  0.20075483007349954  1.0000
  C   C64       1.0  0.895524943295129  0.6829582650707379  0.18481975491349095  1.0000
  C   C65       1.0  0.8576985388837883  0.6282570542085963  0.12953671633859898  1.0000
  C   C66       1.0  0.7771339535881907  0.5893126470215863  0.09141630248748109  1.0000
  C   C67       1.0  0.9776239748392609  0.7225895942365738  0.2225477580635839  1.0000
  C   C68       1.0  0.022741292613659477  0.7732743147752857  0.27899419364936767  1.0000
  C   C69       1.0  0.1440237023108608  0.8655250323317389  0.369884191746948  1.0000
  C   C70       1.0  0.10525684641542213  0.811780555088447  0.3144436536119884  1.0000
  C   C71       1.0  0.14759054046551506  0.7973405609987836  0.2951604409389503  1.0000
  C   C72       1.0  0.22664827094342124  0.8346728971415514  0.33025550545208654  1.0000
  C   C73       1.0  0.26761531374300074  0.8895173026665405  0.3880883228390246  1.0000
  C   C74       1.0  0.2236165015794923  0.9049451974292919  0.40647382283848527  1.0000
  C   C75       1.0  0.26830512179481747  0.39452210147481276  0.8934728192428311  1.0000
  C   C76       1.0  0.23026207500208776  0.3399468084482464  0.8380761728663516  1.0000
  C   C77       1.0  0.15247998722544054  0.30077750837971  0.8024324338055352  1.0000
  C   C78       1.0  0.10729072558635273  0.3144007434862246  0.8191068314305883  1.0000
  C   C79       1.0  0.14444472318896115  0.3690719911606378  0.8741596085366085  1.0000
  C   C80       1.0  0.22495599023826435  0.4089988252336667  0.9119515531999981  1.0000
  C   C81       1.0  0.025187226408675722  0.2750786015076514  0.7800821240843092  1.0000
  C   C82       1.0  0.9810883755392793  0.2191493049892586  0.7287434475491781  1.0000
  C   C83       1.0  0.8613430836383955  0.1287492063229365  0.6347152389686672  1.0000
  C   C84       1.0  0.8986005749084852  0.1823349505243854  0.6900723292796087  1.0000
  C   C85       1.0  0.8550555287848878  0.1983485993118279  0.7056993424281546  1.0000
  C   C86       1.0  0.7757945589854742  0.16278197231444838  0.6671385255963787  1.0000
  C   C87       1.0  0.7366075363173151  0.10789830048157971  0.6096024516126237  1.0000
  C   C88       1.0  0.7821600153796169  0.09166525296717512  0.5946479695400343  1.0000
  N   N1        1.0  0.5044769464257257  0.4062944521040492  0.8868027180811924  1.0000
  N   N2        1.0  0.4939222549584982  0.10068930771719659  0.6091532533833403  1.0000
  N   N3        1.0  0.49718718227485686  0.5940332511765121  0.11438209980019554  1.0000
  N   N4        1.0  0.5078981959012763  0.9003055018815542  0.39114102662557565  1.0000
  N   N5        1.0  0.5867002552562751  0.49979000015227365  0.8764641950472696  1.0000
  N   N6        1.0  0.6093748015290714  0.4289974993345351  0.8050224431598565  1.0000
  N   N7        1.0  0.5875414566724259  0.19416917908507259  0.6092394120205287  1.0000
  N   N8        1.0  0.40080986666566076  0.006604843890500002  0.6087936797602681  1.0000
  N   N9        1.0  0.4132536365076831  0.5000074470698976  0.12326356228829374  1.0000
  N   N10       1.0  0.38580112480578077  0.5701511048980309  0.1898554169283173  1.0000
  N   N11       1.0  0.4143492610489475  0.8075533368085532  0.39210217944548026  1.0000
  N   N12       1.0  0.6024590536145665  0.9934186124029052  0.3920679168505926  1.0000
  N   N13       1.0  0.5045242705901316  0.2972060331563783  0.03298739084456764  1.0000
  N   N14       1.0  0.5032739001594706  0.21968674490452142  0.10472672366781671  1.0000
  N   N15       1.0  0.5090754242766876  0.06207452306298219  0.3163370616720087  1.0000
  N   N16       1.0  0.4900238623597487  0.1977425543541784  0.4611894706993597  1.0000
  N   N17       1.0  0.4947067457302979  0.7018157052518602  0.9677960825200815  1.0000
  N   N18       1.0  0.4911910631073511  0.7779255531458844  0.8947701055862967  1.0000
  N   N19       1.0  0.49844652745431267  0.9453892889763156  0.6930952093747537  1.0000
  N   N20       1.0  0.511148747690946  0.8092070366840147  0.542634454015726  1.0000
  N   N21       1.0  0.7452130699974974  0.5367338277087371  0.037776445516314504  1.0000
  N   N22       1.0  0.8952339136563409  0.6070534444485602  0.10952476783804606  1.0000
  N   N23       1.0  0.2633016550565015  0.8156094638712187  0.3081784910435842  1.0000
  N   N24       1.0  0.2565415286048492  0.958045201699939  0.4583123012623745  1.0000
  N   N25       1.0  0.2566515571580865  0.4624107142442996  0.964397363996149  1.0000
  N   N26       1.0  0.10644908192425365  0.38679644292113124  0.8969473113085658  1.0000
  N   N27       1.0  0.7378599548148654  0.1823132065409538  0.6854958383168326  1.0000
  N   N28       1.0  0.7508161825108529  0.04077641567293709  0.5404690224376766  1.0000
  O   O1        1.0  0.4988798098023396  0.9740345271273017  0.5918917418993674  1.0000
  O   O2        1.0  0.504592081889676  0.9116800527694193  0.5229555103280887  1.0000
  O   O3        1.0  0.38828933539028276  0.9119221379587471  0.4093607914315456  1.0000
  O   O4        1.0  0.38520195269129676  0.9770059568857687  0.47816843466141984  1.0000
  O   O5        1.0  0.5033549825154324  0.03245215124070461  0.415277321309887  1.0000
  O   O6        1.0  0.5009119770896503  0.09764032573533399  0.4845541336734486  1.0000
  O   O7        1.0  0.6147297801412605  0.08378980417638358  0.5859234180242865  1.0000
  O   O8        1.0  0.6205315442602668  0.0217492509195694  0.5168025358522713  1.0000
  O   O9        1.0  0.6150669846169592  0.5198956934661753  0.01883714965457979  1.0000
  O   O10       1.0  0.6168821090270669  0.5862147816974713  0.09150436136368256  1.0000
  O   O11       1.0  0.5036415777814511  0.5983919032451795  0.9879312486062946  1.0000
  O   O12       1.0  0.506953566125439  0.5364259804237504  0.9161269485585637  1.0000
  O   O13       1.0  0.3870365184386698  0.48228299309285916  0.9822254433242039  1.0000
  O   O14       1.0  0.3860983420579558  0.4153364079576819  0.910846109717298  1.0000
  O   O15       1.0  0.49953134106384306  0.40227908790452455  0.013226934714786814  1.0000
  O   O16       1.0  0.4936362150437644  0.46370337223261526  0.0832574453705917  1.0000
