data_image0
_chemical_formula_structural       Zn2H24C22N6O10
_chemical_formula_sum              "Zn2 H24 C22 N6 O10"
_cell_length_a       9.642913171552195
_cell_length_b       10.939752073133441
_cell_length_c       10.94691168416486
_cell_angle_alpha    90.05737019990636
_cell_angle_beta     90.2603581812416
_cell_angle_gamma    90.1593104978601

_space_group_name_H-M_alt    "P 1"
_space_group_IT_number       1

loop_
  _space_group_symop_operation_xyz
  'x, y, z'

loop_
  _atom_site_type_symbol
  _atom_site_label
  _atom_site_symmetry_multiplicity
  _atom_site_fract_x
  _atom_site_fract_y
  _atom_site_fract_z
  _atom_site_occupancy
  Zn  Zn1       1.0  0.6518438702753714  0.4953246799640708  0.494663316465953  1.0000
  Zn  Zn2       1.0  0.3536785750245742  0.49937096055840846  0.4988701538176841  1.0000
  H   H1        1.0  0.7197912275642225  0.5024174199038426  0.11479217019528679  1.0000
  H   H2        1.0  0.17845154122784385  0.5837128347750633  0.1130865976900211  1.0000
  H   H3        1.0  0.17964745817661762  0.4196014492193639  0.11157477182042189  1.0000
  H   H4        1.0  0.18057748274365082  0.4202673489890854  0.8855009003804782  1.0000
  H   H5        1.0  0.17901464037928602  0.5842889364904307  0.885153494753368  1.0000
  H   H6        1.0  0.1271578679163952  0.3330181514546026  0.6014219984197098  1.0000
  H   H7        1.0  0.12695636106121813  0.469550875541806  0.6881631867130764  1.0000
  H   H8        1.0  0.8848620898787872  0.4711682527509993  0.6882727429473405  1.0000
  H   H9        1.0  0.879365487826675  0.33361883093060374  0.6028771349078852  1.0000
  H   H10       1.0  0.8822863202490016  0.6650936521905634  0.5847907477287676  1.0000
  H   H11       1.0  0.8827869996655338  0.669867787168357  0.42259919113193695  1.0000
  H   H12       1.0  0.1267605535158083  0.6645742196452173  0.5857866926061206  1.0000
  H   H13       1.0  0.12692121995608122  0.6705247968514099  0.42481692837820617  1.0000
  H   H14       1.0  0.1265324750656092  0.3408430359129396  0.384449814182382  1.0000
  H   H15       1.0  0.12686966509438244  0.4829977705452676  0.3078803292566477  1.0000
  H   H16       1.0  0.8807643972596966  0.48378670260741785  0.3068799330255061  1.0000
  H   H17       1.0  0.8794913852315746  0.34103130378800717  0.38249647888984123  1.0000
  H   H18       1.0  0.7205822242670622  0.11593390022527927  0.4987168927761161  1.0000
  H   H19       1.0  0.1796572613842855  0.11377937096615647  0.41897115845628713  1.0000
  H   H20       1.0  0.18013113532575895  0.1139817467408477  0.5828455388957536  1.0000
  H   H21       1.0  0.1807766409688867  0.8864181628029041  0.5826710710662013  1.0000
  H   H22       1.0  0.18058317142943284  0.886486159074849  0.4189701891832556  1.0000
  H   H23       1.0  0.7184379723644627  0.5044181267855733  0.7897784359775386  1.0000
  H   H24       1.0  0.7211116102095759  0.7908933784605875  0.4992101828315754  1.0000
  C   C1        1.0  0.49765589831245904  0.5037420985895267  0.7399165668356033  1.0000
  C   C2        1.0  0.5013339604882745  0.5030387296568576  0.2606742537213265  1.0000
  C   C3        1.0  0.5020217589547685  0.2615408693674297  0.5008631616280468  1.0000
  C   C4        1.0  0.49932460461023714  0.7405948341982974  0.5010335940584696  1.0000
  C   C5        1.0  0.3811957546697117  0.5034032782611318  0.0619197955211064  1.0000
  C   C6        1.0  0.6258497736093745  0.5039066471034557  0.9402701274065848  1.0000
  C   C7        1.0  0.3817657385997181  0.5039553795575741  0.9391224284511565  1.0000
  C   C8        1.0  0.6232568178524646  0.5027076053437651  0.0639462561848418  1.0000
  C   C9        1.0  0.22541265121989806  0.5023495896815859  0.0714202531386761  1.0000
  C   C10       1.0  0.22607438315331765  0.5028509952651062  0.9267914433460334  1.0000
  C   C11       1.0  0.08427634431928513  0.4256567205436354  0.6062556074227174  1.0000
  C   C12       1.0  0.9238041223740652  0.4259982631809648  0.6061584511309733  1.0000
  C   C13       1.0  0.9240181700186413  0.6214869733575339  0.5025316822918526  1.0000
  C   C14       1.0  0.08400707090324032  0.6214736158118653  0.5033397202526046  1.0000
  C   C15       1.0  0.08371014858343531  0.433676909370888  0.38600044760353575  1.0000
  C   C16       1.0  0.9230939875936671  0.43375691285720547  0.3852862728168631  1.0000
  C   C17       1.0  0.3820767123478462  0.0629270413426042  0.5012002753270792  1.0000
  C   C18       1.0  0.6270078954619721  0.9411802631379796  0.49984967990709345  1.0000
  C   C19       1.0  0.38280507299116107  0.9400245193980011  0.5013272826018563  1.0000
  C   C20       1.0  0.6242266915164906  0.06492529469435478  0.4994810308624764  1.0000
  C   C21       1.0  0.22634340485109314  0.07276385251540768  0.5010042330512263  1.0000
  C   C22       1.0  0.22702778985902233  0.9279840293583844  0.5010339930872902  1.0000
  N   N1        1.0  0.49968223770844844  0.5026488661049981  0.1344999174503414  1.0000
  N   N2        1.0  0.5015352938268621  0.5040493106887209  0.8662781221340552  1.0000
  N   N3        1.0  0.8699511361526934  0.49400315647299914  0.49806363122068836  1.0000
  N   N4        1.0  0.1369272306082365  0.49409817453373955  0.4986794623241693  1.0000
  N   N5        1.0  0.5005117892298899  0.13542498550339127  0.5003675800809759  1.0000
  N   N6        1.0  0.5027941800566111  0.8671346170555764  0.5007397841247608  1.0000
  O   O1        1.0  0.6219295504881189  0.3126442578033418  0.5000549614109956  1.0000
  O   O2        1.0  0.38394753214293337  0.3149704003688071  0.502278185313159  1.0000
  O   O3        1.0  0.618003313481026  0.6846069467160942  0.4996540299061252  1.0000
  O   O4        1.0  0.38176486525507164  0.6886658604646029  0.5027768249385643  1.0000
  O   O5        1.0  0.6161981339822802  0.5025034866630589  0.6837308416186545  1.0000
  O   O6        1.0  0.38341979804354775  0.5046378338860577  0.3140236876612761  1.0000
  O   O7        1.0  0.37985763136834555  0.5046980682040996  0.6880805802021257  1.0000
  O   O8        1.0  0.6212353862308718  0.5017820771198344  0.31175528741508163  1.0000
  O   O9        1.0  0.7471071853288367  0.5054681685216876  0.8796657353521836  1.0000
  O   O10       1.0  0.748604211531415  0.8808879956788614  0.49953754261871103  1.0000
