data_image0
_chemical_formula_structural       Zn2H28C54S4N2O20F4
_chemical_formula_sum              "Zn2 H28 C54 S4 N2 O20 F4"
_cell_length_a       14.862416196584237
_cell_length_b       19.616518876252368
_cell_length_c       18.601638398110946
_cell_angle_alpha    88.48378236222297
_cell_angle_beta     86.14848035057871
_cell_angle_gamma    87.50706431126184

_space_group_name_H-M_alt    "P 1"
_space_group_IT_number       1

loop_
  _space_group_symop_operation_xyz
  'x, y, z'

loop_
  _atom_site_type_symbol
  _atom_site_label
  _atom_site_symmetry_multiplicity
  _atom_site_fract_x
  _atom_site_fract_y
  _atom_site_fract_z
  _atom_site_occupancy
  Zn  Zn1       1.0  0.5192521882562031  0.6044497701080899  0.4972250890890847  1.0000
  Zn  Zn2       1.0  0.5010113986907355  0.4435403670873227  0.48595685610749223  1.0000
  H   H1        1.0  0.7402489094282884  0.4204787443213148  0.4335603526576719  1.0000
  H   H2        1.0  0.020688214129762596  0.3263585897904235  0.32911340742847967  1.0000
  H   H3        1.0  0.13719022793136304  0.5560457548220298  0.5717227940844722  1.0000
  H   H4        1.0  0.8588460495002508  0.35521845592071327  0.3597249821508157  1.0000
  H   H5        1.0  0.5598949386367381  0.47182053757957476  0.2972111596021207  1.0000
  H   H6        1.0  0.45075567301040553  0.6235293138998443  0.706153816068479  1.0000
  H   H7        1.0  0.4181236406267813  0.40720717841495696  0.7067337032018484  1.0000
  H   H8        1.0  0.334620554721738  0.6169241117552174  0.30273814068538474  1.0000
  H   H9        1.0  0.54233725576686  0.45283498127124466  0.1678364057581234  1.0000
  H   H10       1.0  0.4440446686012223  0.6210347134968971  0.8397093832164798  1.0000
  H   H11       1.0  0.4082665603001344  0.40394704028962986  0.8406568760568192  1.0000
  H   H12       1.0  0.2556577717435217  0.4850807056753224  0.504733833213713  1.0000
  H   H13       1.0  0.30983045598200926  0.5928516028052683  0.1753935474305379  1.0000
  H   H14       1.0  0.35879779722217353  0.6178527159461565  0.0687894197729477  1.0000
  H   H15       1.0  0.4853033866145466  0.41187704818616316  0.9430313955079582  1.0000
  H   H16       1.0  0.3558120969047351  0.6125964557070986  0.9375865564960648  1.0000
  H   H17       1.0  0.4824617856866312  0.41504188738321807  0.07505026564183478  1.0000
  H   H18       1.0  0.765849840160527  0.7804111611282849  0.3715356151093303  1.0000
  H   H19       1.0  0.3600574570170211  0.24049707126000186  0.7231310527949546  1.0000
  H   H20       1.0  0.3181785768959031  0.774011342406105  0.6617550401696163  1.0000
  H   H21       1.0  0.4109501177038696  0.32856714188073244  0.36488196592709693  1.0000
  H   H22       1.0  0.5765355474820097  0.9379636089865567  0.6639281391219497  1.0000
  H   H23       1.0  0.5862456485329801  0.06363450244718648  0.4281480906191674  1.0000
  H   H24       1.0  0.599608114057588  0.9386508890021045  0.4313465032753001  1.0000
  H   H25       1.0  0.5672453645117342  0.0637786804863367  0.6608141509941774  1.0000
  H   H26       1.0  0.8143267858460489  0.5757243303395754  0.5750727856140259  1.0000
  H   H27       1.0  0.18246721460074164  0.3407124884975232  0.3506868789742937  1.0000
  H   H28       1.0  0.9754343095510051  0.5883537218428571  0.5984103768000252  1.0000
  C   C1        1.0  0.44554177905928316  0.5183492332674717  0.6175924345456848  1.0000
  C   C2        1.0  0.4363882288490899  0.5740805647551495  0.8109960224904211  1.0000
  C   C3        1.0  0.4185885608112797  0.45228398747342874  0.8114901853025032  1.0000
  C   C4        1.0  0.3664307861092837  0.5675849840908072  0.20109495847158598  1.0000
  C   C5        1.0  0.42627950721693253  0.5229473291103304  0.1611007997732798  1.0000
  C   C6        1.0  0.4251373766812776  0.5123211223534553  0.8502956560581011  1.0000
  C   C7        1.0  0.449999643854511  0.5469506426741759  0.30693993971450334  1.0000
  C   C8        1.0  0.43516300222255205  0.5155552774035852  0.6980443485952179  1.0000
  C   C9        1.0  0.3849698210414728  0.5717501734835864  0.04181049109664769  1.0000
  C   C10       1.0  0.4556042916141293  0.45673224735072876  0.9705099683979839  1.0000
  C   C11       1.0  0.3848495518657131  0.5693186349849881  0.9673416325593107  1.0000
  C   C12       1.0  0.4710812665654061  0.5657898728890841  0.37975333165312714  1.0000
  C   C13       1.0  0.4552119769458471  0.4589909879426129  0.04524223404303739  1.0000
  C   C14       1.0  0.42129466617782185  0.5121616000943233  0.9297184171308928  1.0000
  C   C15       1.0  0.4208807620550061  0.5169418926681145  0.0826485852053054  1.0000
  C   C16       1.0  0.6161532695284891  0.746454309136368  0.4853419647238367  1.0000
  C   C17       1.0  0.4455540471469276  0.24359374751045232  0.5674910357232719  1.0000
  C   C18       1.0  0.4757581872245352  0.7598348009831991  0.5454961920245509  1.0000
  C   C19       1.0  0.5506189798560897  0.256403100885791  0.4719422069277002  1.0000
  C   C20       1.0  0.6377624312276141  0.8121191602101515  0.5038906609881337  1.0000
  C   C21       1.0  0.4787278276866189  0.1773718543382046  0.582384503616467  1.0000
  C   C22       1.0  0.49628114080820046  0.8248745085133391  0.5671203168829493  1.0000
  C   C23       1.0  0.0848249038341322  0.5317021120826836  0.5443643922561066  1.0000
  C   C24       1.0  0.5863261320341165  0.1902443411983299  0.48399431327101167  1.0000
  C   C25       1.0  0.5768981616368833  0.8551058139011403  0.5436655922551521  1.0000
  C   C26       1.0  0.5494786115925053  0.14706669281288504  0.5391403461135764  1.0000
  C   C27       1.0  0.32468889873509005  0.3928157058224073  0.4135659183735426  1.0000
  C   C28       1.0  0.6707323409723785  0.5163533444714331  0.5214389406946366  1.0000
  C   C29       1.0  0.5796598274901968  0.9654798079721659  0.6122047961166073  1.0000
  C   C30       1.0  0.5860374639538009  0.03671784472864199  0.48004356242786633  1.0000
  C   C31       1.0  0.5936656998725383  0.9659987702472533  0.48182000149753895  1.0000
  C   C32       1.0  0.5739109240140793  0.036640894786216884  0.6103416172867283  1.0000
  C   C33       1.0  0.5733795590865893  0.07317344316530239  0.5442987492862484  1.0000
  C   C34       1.0  0.9113744400370152  0.38071398806785334  0.3858217746421957  1.0000
  C   C35       1.0  0.5873136928791067  0.9295573914309402  0.5478775448518789  1.0000
  C   C36       1.0  0.7930473106093598  0.4476906732845477  0.4572516504960262  1.0000
  C   C37       1.0  0.2030722668536455  0.461729289047689  0.47684197219144403  1.0000
  C   C38       1.0  0.7689843765530496  0.49967688035994234  0.5059505045750541  1.0000
  C   C39       1.0  0.22763651641898966  0.4114881319977926  0.4262848076083259  1.0000
  C   C40       1.0  0.8347224746107641  0.5348896924604531  0.5380177757895551  1.0000
  C   C41       1.0  0.16193454498466756  0.3795235813885255  0.39003632442143743  1.0000
  C   C42       1.0  0.9264865057013197  0.5172437379773454  0.5238512957202346  1.0000
  C   C43       1.0  0.07009559228491469  0.39690001493687516  0.404334376092514  1.0000
  C   C44       1.0  0.9519055450942132  0.4655403647217327  0.47265267663319577  1.0000
  C   C45       1.0  0.5058465312595501  0.49842188922400504  0.2695816991931181  1.0000
  C   C46       1.0  0.04457303373224869  0.44788251773794485  0.45639257822956136  1.0000
  C   C47       1.0  0.8840935629765595  0.431269274428999  0.4382378353142187  1.0000
  C   C48       1.0  0.11222495693805712  0.4807055234397808  0.492551375006606  1.0000
  C   C49       1.0  0.9957916760114712  0.5494020415553108  0.5590314066318456  1.0000
  C   C50       1.0  0.0005621266537688046  0.36469160150667773  0.3692374017634847  1.0000
  C   C51       1.0  0.4411348757071777  0.5757450501615222  0.7362548935374917  1.0000
  C   C52       1.0  0.4234503987171365  0.45378915975496875  0.7364206342715035  1.0000
  C   C53       1.0  0.37900602312159026  0.5805998039115821  0.272609003566977  1.0000
  C   C54       1.0  0.4947979576652983  0.48747080721876995  0.1973055609382826  1.0000
  S   S1        1.0  0.6945362532815834  0.6989912317802549  0.4237050333362262  1.0000
  S   S2        1.0  0.3437097700838406  0.2764731639131455  0.6154594280255877  1.0000
  S   S3        1.0  0.35787479215364476  0.7372623722934788  0.5574324359021857  1.0000
  S   S4        1.0  0.5840994510895854  0.3097288545702668  0.3938841182562172  1.0000
  N   N1        1.0  0.5359745541916182  0.7209742172199326  0.5062147939665137  1.0000
  N   N2        1.0  0.4811673821269337  0.28161117627242754  0.5137662856817897  1.0000
  O   O1        1.0  0.45953969814339507  0.577600112460253  0.5895891939510561  1.0000
  O   O2        1.0  0.6448304292214787  0.6489768400841527  0.3909856083976635  1.0000
  O   O3        1.0  0.7109836234011196  0.7572438202671066  0.3617188754546206  1.0000
  O   O4        1.0  0.324727440165681  0.3443613650713999  0.5901439841513252  1.0000
  O   O5        1.0  0.27903126379564464  0.22381188796280324  0.6173563043688759  1.0000
  O   O6        1.0  0.37722408288694703  0.28211334180806347  0.6963236343307528  1.0000
  O   O7        1.0  0.30707306537859586  0.7969554728326356  0.5342899912053838  1.0000
  O   O8        1.0  0.3474506740798944  0.6717040384908657  0.5292143040007173  1.0000
  O   O9        1.0  0.34398303603447994  0.7303037272577482  0.6439575151213859  1.0000
  O   O10       1.0  0.5814833049046653  0.3791412195265521  0.4230226917282708  1.0000
  O   O11       1.0  0.672717843760232  0.28679819678725227  0.3661730386581964  1.0000
  O   O12       1.0  0.5230629755288873  0.5253945628964798  0.4165437740306714  1.0000
  O   O13       1.0  0.5109163078710351  0.29983979971114383  0.3460432969982961  1.0000
  O   O14       1.0  0.4448458675264603  0.6229304052889972  0.4060601611275345  1.0000
  O   O15       1.0  0.4401672522589664  0.46351183419916697  0.5833440465266689  1.0000
  O   O16       1.0  0.3828424757133745  0.4265903488382887  0.4400387273277104  1.0000
  O   O17       1.0  0.6199619497587746  0.46622018628406187  0.5287102362761543  1.0000
  O   O18       1.0  0.6452881540352209  0.5798864568429136  0.5248125280612328  1.0000
  O   O19       1.0  0.34328489882961577  0.3392572876074097  0.37274376709437007  1.0000
  O   O20       1.0  0.7775607338302422  0.6861761128630165  0.457558012100776  1.0000
  F   F1        1.0  0.7183347963884755  0.8367993708411987  0.48065422265760555  1.0000
  F   F2        1.0  0.43928899823782064  0.1407367578172085  0.6378626719751281  1.0000
  F   F3        1.0  0.43460613609156706  0.8619391602291773  0.6076950171723253  1.0000
  F   F4        1.0  0.6564676553233612  0.16542087969602187  0.4415773573313544  1.0000
