data_image0
_chemical_formula_structural       Tb2Ag2H30C50N12O16
_chemical_formula_sum              "Tb2 Ag2 H30 C50 N12 O16"
_cell_length_a       9.701960460334707
_cell_length_b       12.156702078648326
_cell_length_c       12.372250113384082
_cell_angle_alpha    60.88643036492083
_cell_angle_beta     76.88293760193307
_cell_angle_gamma    82.43619820616223

_space_group_name_H-M_alt    "P 1"
_space_group_IT_number       1

loop_
  _space_group_symop_operation_xyz
  'x, y, z'

loop_
  _atom_site_type_symbol
  _atom_site_label
  _atom_site_symmetry_multiplicity
  _atom_site_fract_x
  _atom_site_fract_y
  _atom_site_fract_z
  _atom_site_occupancy
  Tb  Tb1       1.0  0.8273265180074676  0.018852783953164493  0.9286876840971062  1.0000
  Tb  Tb2       1.0  0.17267324513572652  0.9811467876421671  0.07131245051476028  1.0000
  Ag  Ag1       1.0  0.5150696582895264  0.3423676779783236  0.36919325904096917  1.0000
  Ag  Ag2       1.0  0.48492902229380525  0.6576328374287428  0.6308066195945087  1.0000
  H   H1        1.0  0.887510328120392  0.46959635782537384  0.7891714573717293  1.0000
  H   H2        1.0  0.11249046999383691  0.5304041512529948  0.21082885464312537  1.0000
  H   H3        1.0  0.8344125295870201  0.6738334914876062  0.7971727990119675  1.0000
  H   H4        1.0  0.16558829194203642  0.3261660781333902  0.2028271476593986  1.0000
  H   H5        1.0  0.621533430931784  0.2664232207831673  0.1531501478531538  1.0000
  H   H6        1.0  0.3784673898381073  0.7335763512178629  0.8468489895578415  1.0000
  H   H7        1.0  0.5017704415774986  0.6697737032587837  0.17667981035576458  1.0000
  H   H8        1.0  0.49823037995155767  0.3302258663622126  0.8233201363156013  1.0000
  H   H9        1.0  0.9507843528986085  0.7913241502314106  0.35512019144574236  1.0000
  H   H10       1.0  0.0492164928044403  0.2086744775521794  0.6448801991425128  1.0000
  H   H11       1.0  0.8902876093636821  0.6154105267056024  0.57407108742197  1.0000
  H   H12       1.0  0.109713236339374  0.3845881010779875  0.42592930316627803  1.0000
  H   H13       1.0  0.7724530154795913  0.59943843201507  0.20575912801360363  1.0000
  H   H14       1.0  0.22754566510374027  0.40056208339200344  0.7942407506218743  1.0000
  H   H15       1.0  0.6382801004929917  0.2428041913997845  0.6451629522614581  1.0000
  H   H16       1.0  0.3617185800903401  0.7571963240072815  0.35483692637402003  1.0000
  H   H17       1.0  0.10300776549721752  0.8439623591986061  0.512301629026112  1.0000
  H   H18       1.0  0.8969919236056471  0.15604004266901939  0.48769555531435316  1.0000
  H   H19       1.0  0.1443802636805387  0.8286853529691598  0.712606512919777  1.0000
  H   H20       1.0  0.8556216147160427  0.17131421943757627  0.28739162729034007  1.0000
  H   H21       1.0  0.36170666658136963  0.17188356165293328  0.2862251092599664  1.0000
  H   H22       1.0  0.6382930247990116  0.8281188330745836  0.713774502861618  1.0000
  H   H23       1.0  0.4433298682063622  0.15345770238291576  0.6826986243486601  1.0000
  H   H24       1.0  0.5566709533226941  0.8465418672380878  0.31730132232270575  1.0000
  H   H25       1.0  0.664899411130513  0.7675150642465028  0.9573085434762232  1.0000
  H   H26       1.0  0.3351003769458459  0.23248356313138166  0.04269284431290288  1.0000
  H   H27       1.0  0.7713076627580621  0.3600702970365503  0.7053842436844137  1.0000
  H   H28       1.0  0.22869315877100152  0.6399292725844459  0.29461570298695255  1.0000
  H   H29       1.0  0.29238816765175096  0.9587420294044546  0.7932641188265565  1.0000
  H   H30       1.0  0.7076115954914356  0.041257542190876996  0.20673601578531023  1.0000
  C   C1        1.0  0.7785451203540958  0.24459232132323178  0.9525949890077996  1.0000
  C   C2        1.0  0.2214578428798575  0.7554063001316603  0.047405834959818115  1.0000
  C   C3        1.0  0.7544814260023216  0.3592190991597519  0.9680546925191893  1.0000
  C   C4        1.0  0.2455183363817  0.6407804748156137  0.03194463283230673  1.0000
  C   C5        1.0  0.8155635345879944  0.47314956539261727  0.8690265197994689  1.0000
  C   C6        1.0  0.18443834532692455  0.5268500022540508  0.13097323893139654  1.0000
  C   C7        1.0  0.7872957482483545  0.5861142604344564  0.8729497936067503  1.0000
  C   C8        1.0  0.2127040390688393  0.41388436932346206  0.12705078492199814  1.0000
  C   C9        1.0  0.6945129499432242  0.5817999951460848  0.9794669624614727  1.0000
  C   C10       1.0  0.30548683661479714  0.41819863699186743  0.020532806806905075  1.0000
  C   C11       1.0  0.6378588475468945  0.4673867149005914  0.08198230465774971  1.0000
  C   C12       1.0  0.362141973982162  0.5326128547204049  0.9180176420136165  1.0000
  C   C13       1.0  0.6675473518745108  0.3545423476153217  0.0769229867359512  1.0000
  C   C14       1.0  0.33245455221440784  0.6454562781939328  0.9230772159117963  1.0000
  C   C15       1.0  0.5563824006834466  0.6171457119886625  0.12877703580092972  1.0000
  C   C16       1.0  0.44361842084560993  0.3828538576323409  0.8712229108704291  1.0000
  C   C17       1.0  0.901984841891398  0.8086638483481396  0.1409287966832834  1.0000
  C   C18       1.0  0.0980159547044934  0.19133666549030443  0.8590698968108228  1.0000
  C   C19       1.0  0.863659062138851  0.7039922485308735  0.2701527330322546  1.0000
  C   C20       1.0  0.13634067683035056  0.2960082649018644  0.7298469576627228  1.0000
  C   C21       1.0  0.8959426484253399  0.709762058980523  0.3732189254021351  1.0000
  C   C22       1.0  0.1040560563319914  0.2902375145891369  0.6267813971502251  1.0000
  C   C23       1.0  0.8621226546709765  0.6123953009328175  0.4952040574273725  1.0000
  C   C24       1.0  0.13787713264621004  0.38760332882510085  0.5047965211013832  1.0000
  C   C25       1.0  0.7904568657121233  0.5109399225651146  0.512049972952603  1.0000
  C   C26       1.0  0.20954289667189843  0.4890596514102511  0.4879493523988927  1.0000
  C   C27       1.0  0.751760256571366  0.5065240029148369  0.40984683040708336  1.0000
  C   C28       1.0  0.24823842401197282  0.4934765124922292  0.5901530482283945  1.0000
  C   C29       1.0  0.792668625170144  0.6021659544176997  0.2872154922157862  1.0000
  C   C30       1.0  0.20732899702732513  0.3978345629636947  0.7127845743601996  1.0000
  C   C31       1.0  0.6805711371724711  0.3351048240162342  0.578308324830175  1.0000
  C   C32       1.0  0.3194286259707226  0.6648947475790904  0.42169180978169146  1.0000
  C   C33       1.0  0.20132553229935726  0.009723169289500799  0.2759865018328895  1.0000
  C   C34       1.0  0.7986752159485421  0.9902792282237554  0.7240113038274458  1.0000
  C   C35       1.0  0.22909170314635222  0.007856318963867197  0.39008382498653293  1.0000
  C   C36       1.0  0.7709058457699598  0.9921470263097942  0.6099141005784219  1.0000
  C   C37       1.0  0.16842925151620142  0.911679301051798  0.5097515835129441  1.0000
  C   C38       1.0  0.8315693799599658  0.0883231004101219  0.49024659802839204  1.0000
  C   C39       1.0  0.1912922509934987  0.9025423307938637  0.6205554731122332  1.0000
  C   C40       1.0  0.8087095798142557  0.09745912290765796  0.3794425885244834  1.0000
  C   C41       1.0  0.2766627036160756  0.9936251040178733  0.6082936567579011  1.0000
  C   C42       1.0  0.7233359520340912  0.006376355606633399  0.3917049687003243  1.0000
  C   C43       1.0  0.3375987612854133  0.09143357055178568  0.4891375129281315  1.0000
  C   C44       1.0  0.6623999185387461  0.9085669472353143  0.510861556446976  1.0000
  C   C45       1.0  0.31465051664196153  0.09863257715842617  0.37860189296824137  1.0000
  C   C46       1.0  0.6853470813815079  0.9013688820603818  0.6213977296908553  1.0000
  C   C47       1.0  0.4004937484308115  0.11680681239827347  0.633204883622497  1.0000
  C   C48       1.0  0.5995049563265127  0.8831927611713865  0.3667954389298629  1.0000
  C   C49       1.0  0.493002171737139  0.05891398449140438  0.9363256469521845  1.0000
  C   C50       1.0  0.5069975445764071  0.941087466018665  0.06367521834665255  1.0000
  N   N1        1.0  0.6390740464728566  0.6738968415703751  0.012306809704810401  1.0000
  N   N2        1.0  0.36092679847102715  0.32610178859324884  0.9876927716230668  1.0000
  N   N3        1.0  0.5533478556877114  0.4928748527169161  0.17484609369628862  1.0000
  N   N4        1.0  0.44665193087030997  0.5071237794210431  0.8251536755720893  1.0000
  N   N5        1.0  0.7435870800769495  0.4001553340820792  0.617138238852199  1.0000
  N   N6        1.0  0.25641270799941657  0.5998432932958052  0.38286314893692003  1.0000
  N   N7        1.0  0.6803534743043258  0.39534312850327075  0.4556190744922401  1.0000
  N   N8        1.0  0.31964520627901294  0.6046573869037956  0.5443808041432378  1.0000
  N   N9        1.0  0.41472134139446126  0.167183051675309  0.5087846682791195  1.0000
  N   N10       1.0  0.5852763049770004  0.8328165238686791  0.4912158422137479  1.0000
  N   N11       1.0  0.31998928069712923  0.012748364456598393  0.6962173712387312  1.0000
  N   N12       1.0  0.6800104816868923  0.9872512095187672  0.3037819541127646  1.0000
  O   O1        1.0  0.8250688170937508  0.25419186193960996  0.8430789809256112  1.0000
  O   O2        1.0  0.174932027850133  0.7458067682240139  0.15692060040226607  1.0000
  O   O3        1.0  0.7513584803684878  0.13505181746253203  0.046794598902415954  1.0000
  O   O4        1.0  0.2486444586914729  0.8649477458297666  0.9532057811483199  1.0000
  O   O5        1.0  0.9351770234241814  0.9166385619069785  0.12558718137072572  1.0000
  O   O6        1.0  0.06482382303804711  0.08336006349657767  0.8744140184778928  1.0000
  O   O7        1.0  0.8946066007988022  0.7989026494246757  0.04483725325597726  1.0000
  O   O8        1.0  0.1053952791161166  0.20109691822199244  0.9551625054748882  1.0000
  O   O9        1.0  0.25528732419122235  0.09365455845051678  0.1650734700682577  1.0000
  O   O10       1.0  0.7447145073757044  0.9063468928709709  0.8349254008288369  1.0000
  O   O11       1.0  0.1249397263025998  0.9246792954244609  0.28816606013073426  1.0000
  O   O12       1.0  0.8750589301067394  0.07532216182001858  0.7118333745878545  1.0000
  O   O13       1.0  0.6058715625874171  0.11370256986457859  0.8653488870918198  1.0000
  O   O14       1.0  0.39412813258881135  0.8862998129627543  0.13465477133161816  1.0000
  O   O15       1.0  0.3695503834369731  0.09247936087187718  0.9128221709798795  1.0000
  O   O16       1.0  0.6304493562913934  0.9075211501808267  0.08717832897547588  1.0000
