data_image0
_chemical_formula_structural       Ag4H10C18N4O8
_chemical_formula_sum              "Ag4 H10 C18 N4 O8"
_cell_length_a       6.695886833135156
_cell_length_b       9.009295848843005
_cell_length_c       9.418381418179267
_cell_angle_alpha    63.80101442043987
_cell_angle_beta     72.34126814160983
_cell_angle_gamma    78.99508659302013

_space_group_name_H-M_alt    "P 1"
_space_group_IT_number       1

loop_
  _space_group_symop_operation_xyz
  'x, y, z'

loop_
  _atom_site_type_symbol
  _atom_site_label
  _atom_site_symmetry_multiplicity
  _atom_site_fract_x
  _atom_site_fract_y
  _atom_site_fract_z
  _atom_site_occupancy
  Ag  Ag1       1.0  0.7934682845080159  0.9373180547733567  0.1957039921839083  1.0000
  Ag  Ag2       1.0  0.20652944815035568  0.06268303460551289  0.8042958246643362  1.0000
  Ag  Ag3       1.0  0.7488660225187617  0.6200999630983048  0.4846708297441041  1.0000
  Ag  Ag4       1.0  0.25113495081164666  0.37989986395001557  0.5153298641203036  1.0000
  H   H1        1.0  0.7086262690350864  0.7020686810138129  0.7981896746252345  1.0000
  H   H2        1.0  0.29137469254485643  0.2979311500822063  0.2018099583441142  1.0000
  H   H3        1.0  0.1514320286779451  0.5894198953295913  0.9363701569842461  1.0000
  H   H4        1.0  0.8485671908132915  0.41058242050879556  0.0636298786352612  1.0000
  H   H5        1.0  0.7631656096000582  0.22949812098537592  0.32848321862703506  1.0000
  H   H6        1.0  0.2368320995573825  0.7705029764888919  0.6715144764311063  1.0000
  H   H7        1.0  0.6964611164082868  0.9564710794629292  0.8485373653254198  1.0000
  H   H8        1.0  0.30354454917564766  0.0435287238574489  0.151461241641222  1.0000
  H   H9        1.0  0.7319160838061194  0.2334945264880517  0.5992673361199579  1.0000
  H   H10       1.0  0.2680848542729066  0.7665053127033659  0.40073017505928005  1.0000
  C   C1        1.0  0.19226534620717217  0.6988074471027731  0.14815672324412069  1.0000
  C   C2        1.0  0.8077338732840644  0.30119486873560664  0.8518433123753866  1.0000
  C   C3        1.0  0.7188192701364997  0.8251900694600564  0.6993437988075472  1.0000
  C   C4        1.0  0.2811816914434501  0.17480976163596298  0.30065583416180164  1.0000
  C   C5        1.0  0.6215486010675518  0.6225849573928528  0.19895032190338216  1.0000
  C   C6        1.0  0.37845082776246397  0.37741487081862596  0.8010528357520313  1.0000
  C   C7        1.0  0.3061408206542637  0.551722889457558  0.9620128116483712  1.0000
  C   C8        1.0  0.6938571213428801  0.4482757122944109  0.03799012723578696  1.0000
  C   C9        1.0  0.5539472936154651  0.5519802158676655  0.10373830547614916  1.0000
  C   C10       1.0  0.446051937626244  0.4480220959230222  0.8962627910384169  1.0000
  C   C11       1.0  0.3569235186460133  0.602825459730404  0.06653180681847456  1.0000
  C   C12       1.0  0.6430773617654778  0.3971756070836747  0.9334683869230318  1.0000
  C   C13       1.0  0.7511297446243859  0.1152486754406041  0.439048077515416  1.0000
  C   C14       1.0  0.24887128637355715  0.8847499239850549  0.5609499337867161  1.0000
  C   C15       1.0  0.7134059133417237  0.967144639775448  0.725587973172466  1.0000
  C   C16       1.0  0.2865966162395495  0.03285518206202911  0.2744113177959804  1.0000
  C   C17       1.0  0.7310653744945695  0.1175208125034217  0.5900553254017638  1.0000
  C   C18       1.0  0.26893713158577964  0.8824790174294465  0.409941843776572  1.0000
  N   N1        1.0  0.735685087235815  0.8296473002329563  0.5524680387707119  1.0000
  N   N2        1.0  0.26431587434413467  0.1703525308630631  0.4475315941986294  1.0000
  N   N3        1.0  0.7517213377774821  0.9760629809610324  0.42091082877999497  1.0000
  N   N4        1.0  0.248278055801137  0.0239368593935367  0.579089146190256  1.0000
  O   O1        1.0  0.14836835104127033  0.6413489982917182  0.3029849798260855  1.0000
  O   O2        1.0  0.8516310425373489  0.3586508420628504  0.6970149951441656  1.0000
  O   O3        1.0  0.6085497735403537  0.7793606751752125  0.14227654585114619  1.0000
  O   O4        1.0  0.39144653103746657  0.22063916750565943  0.8577283567011307  1.0000
  O   O5        1.0  0.6877476374038168  0.5193783846298531  0.3233575290921421  1.0000
  O   O6        1.0  0.3122534288455156  0.4806202026527161  0.6766436648951525  1.0000
  O   O7        1.0  0.09973833961983297  0.8270776609816367  0.05775025592834021  1.0000
  O   O8        1.0  0.9002623667042755  0.17292588131625308  0.9422499984624295  1.0000
