data_image0
_chemical_formula_structural       Zn4H24C54Br2N4O16F10
_chemical_formula_sum              "Zn4 H24 C54 Br2 N4 O16 F10"
_cell_length_a       9.977025600067858
_cell_length_b       11.139954173362579
_cell_length_c       24.364716790588755
_cell_angle_alpha    90.02433720714025
_cell_angle_beta     87.9752010478092
_cell_angle_gamma    90.14411993514581

_space_group_name_H-M_alt    "P 1"
_space_group_IT_number       1

loop_
  _space_group_symop_operation_xyz
  'x, y, z'

loop_
  _atom_site_type_symbol
  _atom_site_label
  _atom_site_symmetry_multiplicity
  _atom_site_fract_x
  _atom_site_fract_y
  _atom_site_fract_z
  _atom_site_occupancy
  Zn  Zn1       1.0  0.6337625167946895  0.5004632182485623  0.4992488289660457  1.0000
  Zn  Zn2       1.0  0.350795716623061  0.498579988920362  0.5013448158843161  1.0000
  Zn  Zn3       1.0  0.36557341103681296  0.5022277486171659  0.04245749374557311  1.0000
  Zn  Zn4       1.0  0.6479875229904194  0.5019928840792858  0.0466049801455739  1.0000
  H   H1        1.0  0.10577289491415337  0.6160023039116069  0.6191933627936095  1.0000
  H   H2        1.0  0.118353174766554  0.7346869207938271  0.5699781115094993  1.0000
  H   H3        1.0  0.8646018308960135  0.741912831402651  0.5668221166895009  1.0000
  H   H4        1.0  0.8528014497512757  0.6237386802914954  0.6166462068949912  1.0000
  H   H5        1.0  0.19686094771148524  0.8883493707965043  0.4612175496092945  1.0000
  H   H6        1.0  0.184886158555976  0.8948168021934532  0.5344181600426836  1.0000
  H   H7        1.0  0.18832098760641  0.11914199009853381  0.5312829966108552  1.0000
  H   H8        1.0  0.2028928963623429  0.11496880855663957  0.45815095668623224  1.0000
  H   H9        1.0  0.3310033249840671  0.5053254150299367  0.8653702702047  1.0000
  H   H10       1.0  0.7588023552197427  0.49222101156800596  0.8738281513827816  1.0000
  H   H11       1.0  0.6764764208046472  0.49774897946672797  0.679627819477581  1.0000
  H   H12       1.0  0.2483538345685901  0.501379843455183  0.6715561438896245  1.0000
  H   H13       1.0  0.8079627916350063  0.4242543828590259  0.2198323122442787  1.0000
  H   H14       1.0  0.8100534743859452  0.5843683677041014  0.2199135530327965  1.0000
  H   H15       1.0  0.8026499616708875  0.5838211584063232  0.3234216397147733  1.0000
  H   H16       1.0  0.8009638292394711  0.423733225715921  0.3231788585937352  1.0000
  H   H17       1.0  0.8866293583745841  0.6203982722405357  0.9270562852783684  1.0000
  H   H18       1.0  0.8804032059070367  0.738874923146284  0.9764709395131774  1.0000
  H   H19       1.0  0.13443093831946837  0.7432047687392893  0.9765972909863905  1.0000
  H   H20       1.0  0.14033676510754842  0.625672217604844  0.926304407641247  1.0000
  H   H21       1.0  0.8032336742471315  0.8916327498580896  0.08353940215393861  1.0000
  H   H22       1.0  0.81319058586881  0.8985575959159035  0.0103450682310324  1.0000
  H   H23       1.0  0.8105295108676884  0.12269443025574132  0.013789527792802401  1.0000
  H   H24       1.0  0.7973762082207614  0.1182007060424723  0.0869365581871975  1.0000
  C   C1        1.0  0.49828474862146505  0.7344870879735834  0.503104044128456  1.0000
  C   C2        1.0  0.4756585525887687  0.4997929591957373  0.6082171926390672  1.0000
  C   C3        1.0  0.5043556132577506  0.26659713696140835  0.5006058685694299  1.0000
  C   C4        1.0  0.4887974936886579  0.5050485896746084  0.3940031118419824  1.0000
  C   C5        1.0  0.49976249861023797  0.7368963537144567  0.0424011747887292  1.0000
  C   C6        1.0  0.5288143462264472  0.5015281874568202  0.9369920898959024  1.0000
  C   C7        1.0  0.49481489238344534  0.26912618450401743  0.04459302315939341  1.0000
  C   C8        1.0  0.5046429221662052  0.5065777031767026  0.1509360975540162  1.0000
  C   C9        1.0  0.05904726947473901  0.5608796544677473  0.5349688060941205  1.0000
  C   C10       1.0  0.9241160730300279  0.4293802918922367  0.4657738536369322  1.0000
  C   C11       1.0  0.9201881855883586  0.5642491672795344  0.5337421846326009  1.0000
  C   C12       1.0  0.06578408770683099  0.42628950966695806  0.4669092833588593  1.0000
  C   C13       1.0  0.0658494695759444  0.651058361228415  0.5810275656977737  1.0000
  C   C14       1.0  0.9065547325956231  0.6556469083840425  0.5793648670141139  1.0000
  C   C15       1.0  0.5028596090084037  0.8688859385525306  0.5025010835890811  1.0000
  C   C16       1.0  0.5067252154668438  0.13244784079400773  0.5006388081156459  1.0000
  C   C17       1.0  0.38726177816392476  0.9391216762952294  0.5000773972918466  1.0000
  C   C18       1.0  0.6242123971324957  0.0629159286139256  0.5029901454294574  1.0000
  C   C19       1.0  0.3893142005538976  0.0642199311569271  0.49896165228363293  1.0000
  C   C20       1.0  0.6221522965835007  0.9368542005969402  0.5038241314929196  1.0000
  C   C21       1.0  0.23579141442191795  0.9326913079564105  0.49764168284015403  1.0000
  C   C22       1.0  0.23840347836771514  0.0744531404402267  0.4960211520564854  1.0000
  C   C23       1.0  0.4289819709774036  0.5035156073018926  0.844385498341282  1.0000
  C   C24       1.0  0.6706122116699972  0.4964296815202688  0.848919564966522  1.0000
  C   C25       1.0  0.6816478213469495  0.49666994407689913  0.7925149621550603  1.0000
  C   C26       1.0  0.5686576569212889  0.4999627253463358  0.7586807492199128  1.0000
  C   C27       1.0  0.5785715567231691  0.49976071762074525  0.7006774245404587  1.0000
  C   C28       1.0  0.33666397024968825  0.5024361810742874  0.696463583394177  1.0000
  C   C29       1.0  0.32586804037522643  0.5048221167624476  0.7527872087508528  1.0000
  C   C30       1.0  0.43908399757526684  0.5030443846896019  0.7864577214628242  1.0000
  C   C31       1.0  0.5421484889933552  0.5005517936412928  0.8753570736141256  1.0000
  C   C32       1.0  0.4650377115082306  0.500705659243131  0.6698854934390964  1.0000
  C   C33       1.0  0.4968920033246177  0.5066287840449205  0.2122886817680154  1.0000
  C   C34       1.0  0.488923466776285  0.5056261359589486  0.3326939578771828  1.0000
  C   C35       1.0  0.6118728026382881  0.5058356889823798  0.24349649550100594  1.0000
  C   C36       1.0  0.37212874449335936  0.5065400967184104  0.30172306174366537  1.0000
  C   C37       1.0  0.6079993160245678  0.5051257989719105  0.3007208886114014  1.0000
  C   C38       1.0  0.37597015643635956  0.5068452826612956  0.24401714825132356  1.0000
  C   C39       1.0  0.7638496610349392  0.5046256362572662  0.2392331781420509  1.0000
  C   C40       1.0  0.7593428948030478  0.5041497365083173  0.30416043997312414  1.0000
  C   C41       1.0  0.9389162593784873  0.5642102121457526  0.0104364952290155  1.0000
  C   C42       1.0  0.0767833868512326  0.43109228038815683  0.0778335885540784  1.0000
  C   C43       1.0  0.07801362041076489  0.5659187018355212  0.0098736806510829  1.0000
  C   C44       1.0  0.9349040569720584  0.4298789489952242  0.0784612160376028  1.0000
  C   C45       1.0  0.9303385519597  0.6547242847678233  0.9646533529876679  1.0000
  C   C46       1.0  0.0899383223259491  0.6575770080850064  0.9643023030743053  1.0000
  C   C47       1.0  0.49600908525084725  0.8713162278833338  0.0433510823408128  1.0000
  C   C48       1.0  0.4926615621965097  0.1349611359016691  0.045287943782838604  1.0000
  C   C49       1.0  0.6117467320799219  0.9419570502204877  0.045618193441590904  1.0000
  C   C50       1.0  0.3749639212330109  0.06502512110385081  0.04336516342268481  1.0000
  C   C51       1.0  0.609923999093567  0.06705914105958752  0.0468202897092667  1.0000
  C   C52       1.0  0.3767456825038451  0.9389743707670418  0.042456664973173006  1.0000
  C   C53       1.0  0.7633139093020986  0.9360388917230227  0.0473894791125531  1.0000
  C   C54       1.0  0.7609279445524421  0.07777997122011729  0.04915363838288301  1.0000
  Br  Br1       1.0  0.15183897424955717  0.5101470285436704  0.7866780106811645  1.0000
  Br  Br2       1.0  0.8557552814901399  0.491897970958135  0.7586834424937621  1.0000
  N   N1        1.0  0.13604094691145724  0.4924497364902507  0.5014391786137011  1.0000
  N   N2        1.0  0.8485367531603102  0.4986771545325438  0.4990575609937196  1.0000
  N   N3        1.0  0.8630821340458892  0.4967347362434965  0.0449693862858425  1.0000
  N   N4        1.0  0.15111689244908177  0.49962787530376573  0.0435990405463542  1.0000
  O   O1        1.0  0.6103739225472609  0.6797457812439305  0.49954800797215887  1.0000
  O   O2        1.0  0.38255898134386257  0.686337291462408  0.5068632336116465  1.0000
  O   O3        1.0  0.3642321401717652  0.4936172946500078  0.5839930813587983  1.0000
  O   O4        1.0  0.5918218367194823  0.5052931873761467  0.58537956513198  1.0000
  O   O5        1.0  0.3893041443791105  0.3150146827860141  0.4982461108685712  1.0000
  O   O6        1.0  0.6161946882658568  0.3211546912031764  0.5031620385662947  1.0000
  O   O7        1.0  0.6029224389897223  0.49722783474591387  0.4154560283711747  1.0000
  O   O8        1.0  0.37577659433245697  0.5124293634563912  0.4197937080458516  1.0000
  O   O9        1.0  0.38737192773775314  0.6823444599799161  0.0433658826406784  1.0000
  O   O10       1.0  0.6153869744531376  0.6884004365597676  0.040855215858798  1.0000
  O   O11       1.0  0.6378315569356516  0.49522384992466334  0.9627978372173658  1.0000
  O   O12       1.0  0.41099428273729893  0.5088032251248152  0.9582044129730605  1.0000
  O   O13       1.0  0.6087759521077629  0.3187113210957476  0.050119995459724  1.0000
  O   O14       1.0  0.3840158294867706  0.3224504352375988  0.0380316291118135  1.0000
  O   O15       1.0  0.3965268756199122  0.4974643961539086  0.1253414922071983  1.0000
  O   O16       1.0  0.6227642975198293  0.515156312708804  0.1291650251253174  1.0000
  F   F1        1.0  0.8635474927201443  0.36016491394806854  0.42971845320264634  1.0000
  F   F2        1.0  0.13174631532777437  0.353829407078713  0.43211212230711027  1.0000
  F   F3        1.0  0.7472334478538015  0.11412876426002329  0.5047562218276482  1.0000
  F   F4        1.0  0.744123258784988  0.8836742297218694  0.5065187523508285  1.0000
  F   F5        1.0  0.2480041125984583  0.5068621325741063  0.326118664839278  1.0000
  F   F6        1.0  0.25522648048213625  0.5081350986128399  0.2203186524712066  1.0000
  F   F7        1.0  0.13846954984340698  0.3610573986844586  0.11294220361559582  1.0000
  F   F8        1.0  0.8699127561875102  0.35827551006701  0.1141973726340169  1.0000
  F   F9        1.0  0.25191151146047014  0.11579482865595742  0.0424091083702294  1.0000
  F   F10       1.0  0.25451591755587083  0.8856251811332568  0.0403284378444155  1.0000
