data_image0
_chemical_formula_structural       Cd2H52C52N8Cl4
_chemical_formula_sum              "Cd2 H52 C52 N8 Cl4"
_cell_length_a       10.09181346847686
_cell_length_b       10.623059009848001
_cell_length_c       13.909100127125479
_cell_angle_alpha    107.90149728700264
_cell_angle_beta     102.24900606460571
_cell_angle_gamma    108.64589731351121

_space_group_name_H-M_alt    "P 1"
_space_group_IT_number       1

loop_
  _space_group_symop_operation_xyz
  'x, y, z'

loop_
  _atom_site_type_symbol
  _atom_site_label
  _atom_site_symmetry_multiplicity
  _atom_site_fract_x
  _atom_site_fract_y
  _atom_site_fract_z
  _atom_site_occupancy
  Cd  Cd1       1.0  0.14826873823775338  0.9520777668323815  0.4444265266459268  1.0000
  Cd  Cd2       1.0  0.8517287726971006  0.047919893809329005  0.555570519108457  1.0000
  H   H1        1.0  0.8665498684761275  0.792456509922694  0.20567377947276105  1.0000
  H   H2        1.0  0.133448251611604  0.2075381512092278  0.7943257008199964  1.0000
  H   H3        1.0  0.4058705490219055  0.8846144674074029  0.3160031854431935  1.0000
  H   H4        1.0  0.5941256539561549  0.11537800866550901  0.6839955312666816  1.0000
  H   H5        1.0  0.33689377754436844  0.890707418345109  0.7306787745071189  1.0000
  H   H6        1.0  0.6631056708113333  0.10928640874065113  0.26930998639510045  1.0000
  H   H7        1.0  0.45469540496372945  0.8299641735766417  0.8012628969809229  1.0000
  H   H8        1.0  0.5453084710814835  0.17004067467566134  0.19873090639669752  1.0000
  H   H9        1.0  0.4391269050677806  0.8049888465986612  0.6678339764839477  1.0000
  H   H10       1.0  0.5608758461415208  0.19500849181824984  0.3321589351320924  1.0000
  H   H11       1.0  0.09190566864791092  0.6349182267550618  0.9220697197023923  1.0000
  H   H12       1.0  0.9080963935998695  0.3650901155232448  0.07792800416142137  1.0000
  H   H13       1.0  0.8043812449213946  0.5222551798826134  0.9529573856417315  1.0000
  H   H14       1.0  0.19561392316454368  0.4777469319699179  0.047042220315041995  1.0000
  H   H15       1.0  0.7265924863290963  0.6344747642465125  0.019881644978468775  1.0000
  H   H16       1.0  0.2734070862354799  0.36553064736256863  0.9801193936391996  1.0000
  H   H17       1.0  0.8385856164554755  0.9074932862433234  0.01290146015096384  1.0000
  H   H18       1.0  0.16141621914937326  0.0925156785065369  0.9871042650504549  1.0000
  H   H19       1.0  0.8170071370181234  0.0022001385869500835  0.8705441018040644  1.0000
  H   H20       1.0  0.1829919453885225  0.9978043010586218  0.1294581055730148  1.0000
  H   H21       1.0  0.7832852264001247  0.8486550304042809  0.6838993182051566  1.0000
  H   H22       1.0  0.2167113274297422  0.15134840772039138  0.3161036748825552  1.0000
  H   H23       1.0  0.7859964360192678  0.5013966458578241  0.7811154726204916  1.0000
  H   H24       1.0  0.21400150586877947  0.4986099345106753  0.21888692376629143  1.0000
  H   H25       1.0  0.0823553125200363  0.7520914141590752  0.6756116666277662  1.0000
  H   H26       1.0  0.9176507601252692  0.24791352505562267  0.3243969731803488  1.0000
  H   H27       1.0  0.6466696699680413  0.2648446278312805  0.5373799134444823  1.0000
  H   H28       1.0  0.35333363350363106  0.7351594748108071  0.4626179682698677  1.0000
  H   H29       1.0  0.1691822636636928  0.29611459805519763  0.6109623643056566  1.0000
  H   H30       1.0  0.8308206686449894  0.7038845611500761  0.38904028946588903  1.0000
  H   H31       1.0  0.2996097087278572  0.620635725787196  0.8764782508905851  1.0000
  H   H32       1.0  0.700394165003118  0.3793673064934283  0.12351953631890922  1.0000
  H   H33       1.0  0.43041452725199747  0.5995468471222695  0.9714614560584209  1.0000
  H   H34       1.0  0.5695847771691122  0.40045333810838474  0.028540717644808936  1.0000
  H   H35       1.0  0.47255095769515526  0.7690189839976825  0.9629968281791791  1.0000
  H   H36       1.0  0.5274532001547173  0.23098558612969106  0.037007064214186924  1.0000
  H   H37       1.0  0.5684272610209576  0.7021898178980027  0.15964464373766427  1.0000
  H   H38       1.0  0.43156563939622583  0.2978051088703852  0.8403582432991002  1.0000
  H   H39       1.0  0.6118884451639985  0.8594084041411992  0.2746487298765672  1.0000
  H   H40       1.0  0.38810066224165507  0.14058203933252142  0.7253511752058016  1.0000
  H   H41       1.0  0.6249410642309954  0.8739525509226669  0.15267698244507238  1.0000
  H   H42       1.0  0.37505315982568993  0.12603790985620833  0.8473231528649164  1.0000
  H   H43       1.0  0.4257968194576378  0.43160376295580966  0.6601205326841182  1.0000
  H   H44       1.0  0.5742022626562787  0.5683947146631285  0.3398733536522585  1.0000
  H   H45       1.0  0.48123349225255674  0.5975780078868528  0.6425382619198601  1.0000
  H   H46       1.0  0.5187613711105785  0.40242262270725604  0.35745596624737164  1.0000
  H   H47       1.0  0.4941034343789355  0.6026849927586896  0.7713196380831491  1.0000
  H   H48       1.0  0.5058960348734018  0.39731473976537773  0.2286767164654506  1.0000
  H   H49       1.0  0.7864486264301149  0.6365372701822951  0.5602579821315246  1.0000
  H   H50       1.0  0.213544725251424  0.3634605576979269  0.4397412071026068  1.0000
  H   H51       1.0  0.6339175385752897  0.5000805422799459  0.5646251053780277  1.0000
  H   H52       1.0  0.36608541202306105  0.4999167443653292  0.43538080483106967  1.0000
  C   C1        1.0  0.9624659582467956  0.783555844905827  0.18562975464058706  1.0000
  C   C2        1.0  0.03753599606027081  0.21644318634410817  0.8143712528179134  1.0000
  C   C3        1.0  0.1863273276404201  0.8029524641683781  0.1974862310114958  1.0000
  C   C4        1.0  0.8136699769626788  0.1970398003299323  0.8025097676454606  1.0000
  C   C5        1.0  0.09771048147015905  0.7280055352221454  0.0868123099207878  1.0000
  C   C6        1.0  0.9022893154231112  0.2719974379436962  0.9131847111911496  1.0000
  C   C7        1.0  0.3373761020104809  0.8302034083613637  0.23082691563376304  1.0000
  C   C8        1.0  0.662619143569863  0.1697888831678824  0.7691694273687445  1.0000
  C   C9        1.0  0.3989649217287337  0.78540311265796  0.15273023706685504  1.0000
  C   C10       1.0  0.601030752197829  0.21459032059976832  0.8472671193592161  1.0000
  C   C11       1.0  0.31066756376885973  0.7174728827302703  0.0410074793386386  1.0000
  C   C12       1.0  0.6893321713127066  0.28253026020054506  0.9589917239562736  1.0000
  C   C13       1.0  0.37504440818189283  0.80362448953467  0.7227529745991461  1.0000
  C   C14       1.0  0.6249586088566376  0.19637625928899644  0.2772427857632138  1.0000
  C   C15       1.0  0.15891196402710506  0.687623721638623  0.007442138172002915  1.0000
  C   C16       1.0  0.8410874228096149  0.31237623723873753  0.9925571259539081  1.0000
  C   C17       1.0  0.8183265466374295  0.635305778733624  0.9888227108842146  1.0000
  C   C18       1.0  0.1816691345245687  0.3646990644657678  0.011171015086937125  1.0000
  C   C19       1.0  0.813576197968331  0.6980510052499371  0.9054083754554795  1.0000
  C   C20       1.0  0.18642437320176705  0.301954477726163  0.0945935820809041  1.0000
  C   C21       1.0  0.8223550281783147  0.8392924593423676  0.9307792921559325  1.0000
  C   C22       1.0  0.1776499886782261  0.16071621021364282  0.06922264325269369  1.0000
  C   C23       1.0  0.8118441987918178  0.8929739261448549  0.8511814118928881  1.0000
  C   C24       1.0  0.18815698384538848  0.10703037329313501  0.1488189963499948  1.0000
  C   C25       1.0  0.7931718307310547  0.8069458165283622  0.746352477246539  1.0000
  C   C26       1.0  0.20683183927512525  0.19305959760717434  0.2536486000743565  1.0000
  C   C27       1.0  0.7838910043431896  0.6656699651251473  0.7202926824019399  1.0000
  C   C28       1.0  0.21611505001244782  0.3343368466495491  0.2797127009686236  1.0000
  C   C29       1.0  0.794706431762748  0.6122473878799467  0.8005272034764487  1.0000
  C   C30       1.0  0.2052976047779396  0.3877593377490457  0.19947706945100657  1.0000
  C   C31       1.0  0.9834280107946756  0.5177206818578952  0.6257220482587229  1.0000
  C   C32       1.0  0.016573922908484917  0.4822784059803667  0.3742796865941003  1.0000
  C   C33       1.0  0.10110280133515907  0.6536918499078581  0.6637824311128283  1.0000
  C   C34       1.0  0.8989029436692065  0.34630984866505804  0.33622554213194883  1.0000
  C   C35       1.0  0.24495160474787536  0.659494593702462  0.6831868201891992  1.0000
  C   C36       1.0  0.755050351873429  0.34050625351915204  0.31681020343742716  1.0000
  C   C37       1.0  0.7666604280982271  0.3267386054194433  0.5632353960490093  1.0000
  C   C38       1.0  0.2333444236343638  0.6732645548165196  0.4367640374735302  1.0000
  C   C39       1.0  0.005769469388866411  0.38899108092179097  0.6067076690011035  1.0000
  C   C40       1.0  0.9942340331791187  0.6110070079220196  0.39329489026559367  1.0000
  C   C41       1.0  0.14984213476865454  0.3948293524170056  0.6267330615956509  1.0000
  C   C42       1.0  0.8501596387317608  0.6051738200711939  0.37326652474804695  1.0000
  C   C43       1.0  0.2692049882021194  0.5300619782153076  0.6650338079430326  1.0000
  C   C44       1.0  0.7307999230279449  0.4699391962840098  0.33496742722840617  1.0000
  C   C45       1.0  0.3808652065702489  0.6742630685237216  0.958445041315258  1.0000
  C   C46       1.0  0.6191349568575364  0.32574121613557594  0.04155517540322514  1.0000
  C   C47       1.0  0.5591554690309621  0.8071039699882763  0.1869396520882489  1.0000
  C   C48       1.0  0.44083840678088393  0.1928833067371443  0.813060544052739  1.0000
  C   C49       1.0  0.4248838975552473  0.5397659539670415  0.6857162490137653  1.0000
  C   C50       1.0  0.5751167740274  0.4602314680691323  0.3142777343421486  1.0000
  C   C51       1.0  0.7537770714119746  0.5699486702829263  0.605100106595394  1.0000
  C   C52       1.0  0.2462234173425131  0.43005703904646714  0.3949047605183011  1.0000
  N   N1        1.0  0.09822539725222865  0.8381374168627858  0.25641372390887074  1.0000
  N   N2        1.0  0.9017709064311107  0.16185296029682664  0.7435853396612443  1.0000
  N   N3        1.0  0.9547586575237405  0.715415607468721  0.08267083126941795  1.0000
  N   N4        1.0  0.045240830018258335  0.28458225249534763  0.9173287797167333  1.0000
  N   N5        1.0  0.8677981908177018  0.2718035372562825  0.5674871235956616  1.0000
  N   N6        1.0  0.1322046224960403  0.7281995934222963  0.4325119268780995  1.0000
  N   N7        1.0  0.8302172531331208  0.4740397607274008  0.5966948332848787  1.0000
  N   N8        1.0  0.16978584429951843  0.5259649077979206  0.40331032237275366  1.0000
  Cl  Cl1       1.0  0.06751023965970396  0.9743347108858487  0.617041496008703  1.0000
  Cl  Cl2       1.0  0.9324791950941672  0.0256530112030191  0.3829507545962869  1.0000
  Cl  Cl3       1.0  0.38778754848563324  0.16438638510093992  0.5120009781809642  1.0000
  Cl  Cl4       1.0  0.6122239330841311  0.8355930867390388  0.4880082256815754  1.0000
