data_image0
_chemical_formula_structural       ZnH28C20N4O8
_chemical_formula_sum              "Zn1 H28 C20 N4 O8"
_cell_length_a       7.7538559235588105
_cell_length_b       7.8796583900030175
_cell_length_c       9.673796586827365
_cell_angle_alpha    69.30633715539217
_cell_angle_beta     83.86615321491335
_cell_angle_gamma    75.49276274214309

_space_group_name_H-M_alt    "P 1"
_space_group_IT_number       1

loop_
  _space_group_symop_operation_xyz
  'x, y, z'

loop_
  _atom_site_type_symbol
  _atom_site_label
  _atom_site_symmetry_multiplicity
  _atom_site_fract_x
  _atom_site_fract_y
  _atom_site_fract_z
  _atom_site_occupancy
  Zn  Zn1       1.0  0.5000023496934818  0.4999985908194373  0.4999920512484195  1.0000
  H   H1        1.0  0.3703748862367178  0.9504451684586923  0.9823296932362736  1.0000
  H   H2        1.0  0.6296466817801303  0.04957372592866699  0.017676522916509896  1.0000
  H   H3        1.0  0.539803674637092  0.2137758799611972  0.42733449256104455  1.0000
  H   H4        1.0  0.46018560887569737  0.7862154878729939  0.5726644840582651  1.0000
  H   H5        1.0  0.6224636958841999  0.35311111506009496  0.7663864266723408  1.0000
  H   H6        1.0  0.3775147338841693  0.6468884659477534  0.23360776528853222  1.0000
  H   H7        1.0  0.5792325447897755  0.9599759098388956  0.6660479911916397  1.0000
  H   H8        1.0  0.42074893159909277  0.04001547597490429  0.3339507188543251  1.0000
  H   H9        1.0  0.4661343194140953  0.1245733535766078  0.7483193089193919  1.0000
  H   H10       1.0  0.5338452692473512  0.8754206636772252  0.2516766343556682  1.0000
  H   H11       1.0  0.804565309652439  0.05763140236939527  0.764135649524853  1.0000
  H   H12       1.0  0.19541359273603115  0.9423606031718917  0.23587035840300533  1.0000
  H   H13       1.0  0.8142333220360315  0.15578771341182568  0.5681375847181016  1.0000
  H   H14       1.0  0.18575510646990523  0.8441955100636347  0.43186628034097657  1.0000
  H   H15       1.0  0.9192262814617536  0.40778175605003497  0.5533805105863436  1.0000
  H   H16       1.0  0.08076386348241732  0.5922052715865647  0.44661776495324546  1.0000
  H   H17       1.0  0.9387556735565211  0.3476644059130293  0.7469703955346674  1.0000
  H   H18       1.0  0.06122999031375544  0.6523254544358961  0.2530273747024979  1.0000
  H   H19       1.0  0.9284732255811079  0.668921984252499  0.6461185513003187  1.0000
  H   H20       1.0  0.0715234143368946  0.3310647912764821  0.3538770924161341  1.0000
  H   H21       1.0  0.7168758242501809  0.6562627923076076  0.7285690913332773  1.0000
  H   H22       1.0  0.2831208156678144  0.3437239832213733  0.2714265523831685  1.0000
  H   H23       1.0  0.26588949776959936  0.08909512971732877  0.5291166420196589  1.0000
  H   H24       1.0  0.7341003767973716  0.9108937073129721  0.4708862321048031  1.0000
  H   H25       1.0  0.20771061573204716  0.2705086540185206  0.6042022301530848  1.0000
  H   H26       1.0  0.7922801061033624  0.7294881599884275  0.3957937409662479  1.0000
  H   H27       1.0  0.003431336434005133  0.8308744418877506  0.8637055144526613  1.0000
  H   H28       1.0  0.9966005213575785  0.16913935596711835  0.13630863983220817  1.0000
  C   C1        1.0  0.5556825228800049  0.10714755183138179  0.6563134551124676  1.0000
  C   C2        1.0  0.4443044492711578  0.8928424589545185  0.34368620623850893  1.0000
  C   C3        1.0  0.7299220854013059  0.15823980088050854  0.6668546372462815  1.0000
  C   C4        1.0  0.27005968844925826  0.8417503613768671  0.33314652519359816  1.0000
  C   C5        1.0  0.8485444506547638  0.42695689627949907  0.6531396724049897  1.0000
  C   C6        1.0  0.15144411563132823  0.573031790313827  0.3468613106056608  1.0000
  C   C7        1.0  0.8031722801026647  0.6338390443368808  0.6353622576582437  1.0000
  C   C8        1.0  0.19682305927288005  0.36614774813720874  0.36463350950975854  1.0000
  C   C9        1.0  0.27932155142669757  0.23149447224235328  0.5116553153498485  1.0000
  C   C10       1.0  0.7206700434477257  0.7684982526401212  0.48834297653780834  1.0000
  C   C11       1.0  0.138896977604233  0.5483024970398913  0.8967231014888313  1.0000
  C   C12       1.0  0.8611196508815766  0.45171448835213096  0.1032769953199448  1.0000
  C   C13       1.0  0.1389427061001953  0.35995318861365877  0.9756899859010487  1.0000
  C   C14       1.0  0.8610836481906715  0.6400618168870266  0.024321202513441255  1.0000
  C   C15       1.0  0.0013262035911126091  0.6857355693454393  0.924925249453942  1.0000
  C   C16       1.0  0.9986907494408968  0.31428077832742213  0.07508435072752921  1.0000
  C   C17       1.0  0.2647589720681012  0.6067072856210912  0.7663407492529118  1.0000
  C   C18       1.0  0.7352495595705121  0.3933111086890477  0.2336586431539587  1.0000
  C   C19       1.0  0.29674710327531534  0.20821301401107914  0.97011362581528  1.0000
  C   C20       1.0  0.7032978822440868  0.7918057427464188  0.02989238277486819  1.0000
  N   N1        1.0  0.4668208045225414  0.23496370226563099  0.5188975535118843  1.0000
  N   N2        1.0  0.5331678956745023  0.7650303637545262  0.48109954016765505  1.0000
  N   N3        1.0  0.6905197409882148  0.3496027174138233  0.6701152352233707  1.0000
  N   N4        1.0  0.3094646223396112  0.6503871598802106  0.329882658465344  1.0000
  O   O1        1.0  0.2958327658431159  0.5022999993433713  0.6861953943143604  1.0000
  O   O2        1.0  0.7041659292947814  0.49771549757750205  0.313802839514004  1.0000
  O   O3        1.0  0.3171039035115868  0.7537191096541633  0.7425009540450489  1.0000
  O   O4        1.0  0.6829145894863513  0.24629474215158345  0.2574958658385214  1.0000
  O   O5        1.0  0.4516317450699106  0.22289634934868013  0.9762638524983133  1.0000
  O   O6        1.0  0.5483793644383181  0.7771215089250062  0.023729249309354893  1.0000
  O   O7        1.0  0.25734546811168  0.05384644289134848  0.9691010171909085  1.0000
  O   O8        1.0  0.7426745135086604  0.9461739430706613  0.030905891867569025  1.0000
