data_image0
_chemical_formula_structural       Ag4H20C28N16
_chemical_formula_sum              "Ag4 H20 C28 N16"
_cell_length_a       6.271277871453387
_cell_length_b       6.300666318839557
_cell_length_c       19.254509087300786
_cell_angle_alpha    89.99663967356257
_cell_angle_beta     89.99739604810688
_cell_angle_gamma    103.6780824997651

_space_group_name_H-M_alt    "P 1"
_space_group_IT_number       1

loop_
  _space_group_symop_operation_xyz
  'x, y, z'

loop_
  _atom_site_type_symbol
  _atom_site_label
  _atom_site_symmetry_multiplicity
  _atom_site_fract_x
  _atom_site_fract_y
  _atom_site_fract_z
  _atom_site_occupancy
  Ag  Ag1       1.0  0.16103870469618187  0.27319965927761564  0.9711207581407421  1.0000
  Ag  Ag2       1.0  0.3389608941392552  0.226787942693079  0.4711222072904847  1.0000
  Ag  Ag3       1.0  0.8389521563351393  0.7268203263533978  0.028877238848572503  1.0000
  Ag  Ag4       1.0  0.6610226171289926  0.7731993357679415  0.5288752711593291  1.0000
  H   H1        1.0  0.8454878124541948  0.8759751256994902  0.8736097264499066  1.0000
  H   H2        1.0  0.6545217623208472  0.6240581620371656  0.3736051812528345  1.0000
  H   H3        1.0  0.1544930586473754  0.12406668163986008  0.1264028120780409  1.0000
  H   H4        1.0  0.3454789125728581  0.3759218663473051  0.6264032038680512  1.0000
  H   H5        1.0  0.13556024623631663  0.1298519737793811  0.8071341736909688  1.0000
  H   H6        1.0  0.36452284130106705  0.3701723064560127  0.3071191246263184  1.0000
  H   H7        1.0  0.86445985931082  0.8701174193504003  0.1928716148477392  1.0000
  H   H8        1.0  0.6354633141983683  0.6298363130169234  0.692889259830416  1.0000
  H   H9        1.0  0.08304417074569409  0.49535160934475186  0.7707837350016151  1.0000
  H   H10       1.0  0.41710226160128633  0.0047331832310319975  0.2707873657968918  1.0000
  H   H11       1.0  0.9170168971596978  0.504650861168308  0.22919972019381166  1.0000
  H   H12       1.0  0.5828525501101325  0.9952716804722  0.7292142671645294  1.0000
  H   H13       1.0  0.7347809410448961  0.6000633521123931  0.8030499123835071  1.0000
  H   H14       1.0  0.7653176643371181  0.9000017614505822  0.3030572678268371  1.0000
  H   H15       1.0  0.2652624479933507  0.3999678298615237  0.1969428906122701  1.0000
  H   H16       1.0  0.2346487160648039  0.099981220565553  0.6969339784644292  1.0000
  H   H17       1.0  0.4469503228051792  0.3469271577102759  0.8677341459494698  1.0000
  H   H18       1.0  0.05311957461807282  0.15310656024460204  0.36774841805987535  1.0000
  H   H19       1.0  0.5530840373657  0.653106017075963  0.1322586570199462  1.0000
  H   H20       1.0  0.946873619131665  0.8468869471287946  0.6322438666246342  1.0000
  C   C1        1.0  0.45372844734450973  0.9345370574778473  0.9111319059276398  1.0000
  C   C2        1.0  0.04628610409753969  0.5655319509741047  0.4111338831264391  1.0000
  C   C3        1.0  0.5462843888018156  0.0655282737919265  0.08887388027937963  1.0000
  C   C4        1.0  0.95368268130305  0.43447732905831066  0.5888625561033934  1.0000
  C   C5        1.0  0.6244625299801498  0.09156639260184822  0.8740512077888952  1.0000
  C   C6        1.0  0.8755971333571679  0.4084615346831272  0.3740550024167533  1.0000
  C   C7        1.0  0.37555497016820283  0.9084459824577563  0.1259561377801575  1.0000
  C   C8        1.0  0.12440718073709428  0.5915084590517805  0.6259440344812648  1.0000
  C   C9        1.0  0.8214533280685999  0.0339108651534659  0.8570493593723117  1.0000
  C   C10       1.0  0.6785772035645438  0.4661010208254979  0.3570430004382459  1.0000
  C   C11       1.0  0.17853595236539388  0.9661091808467716  0.14296110223224193  1.0000
  C   C12       1.0  0.32141832112444035  0.5338660086685606  0.6429596720662971  1.0000
  C   C13       1.0  0.9846747291021317  0.17815846563397028  0.8199767006786729  1.0000
  C   C14       1.0  0.5153865517554337  0.3218524695967275  0.3199693905559613  1.0000
  C   C15       1.0  0.015343557820408213  0.8218159446131565  0.18002493287075083  1.0000
  C   C16       1.0  0.4845857309723058  0.6781170934214416  0.6800343206620739  1.0000
  C   C17       1.0  0.9549029488184858  0.38244949114650245  0.7995822613987758  1.0000
  C   C18       1.0  0.5451922977136475  0.11759235200267432  0.2995811740316725  1.0000
  C   C19       1.0  0.04512725319000307  0.6175393097101461  0.2004110620266815  1.0000
  C   C20       1.0  0.45476439957545967  0.8823844012352992  0.7004209789724243  1.0000
  C   C21       1.0  0.7605153933332925  0.4408372658387235  0.8172571744960424  1.0000
  C   C22       1.0  0.7395443615513172  0.05920660954485869  0.3172636932200277  1.0000
  C   C23       1.0  0.23949328602807188  0.5591836912086093  0.1827366675542308  1.0000
  C   C24       1.0  0.2604222910718264  0.9407598688966773  0.6827358632166352  1.0000
  C   C25       1.0  0.5962319601050083  0.2969186949229226  0.8540088639933077  1.0000
  C   C26       1.0  0.9038289738006924  0.2031084108785919  0.354018422530217  1.0000
  C   C27       1.0  0.40379724865589844  0.7031014812291473  0.14598913289595575  1.0000
  C   C28       1.0  0.09614852700314448  0.7968510574868471  0.6459790566156869  1.0000
  N   N1        1.0  0.27552978810805223  0.9749714172236209  0.9433227794314905  1.0000
  N   N2        1.0  0.22459489016808482  0.5251193839608844  0.4433310436019582  1.0000
  N   N3        1.0  0.7245583054622386  0.025124037675745108  0.0566726186732041  1.0000
  N   N4        1.0  0.7754469517206886  0.4749003117143998  0.5566726662151852  1.0000
  N   N5        1.0  0.16331855425279682  0.7811881173609407  0.968140174617986  1.0000
  N   N6        1.0  0.33673715030856505  0.7187825647888602  0.4681451428528121  1.0000
  N   N7        1.0  0.8367214697574782  0.21883659527306776  0.0318526285446055  1.0000
  N   N8        1.0  0.6632784908905761  0.28117050476360106  0.5318590880202053  1.0000
  N   N9        1.0  0.2716417052573092  0.6310131793496369  0.9520870846404962  1.0000
  N   N10       1.0  0.2283538256668223  0.8689162897075633  0.4520883527321756  1.0000
  N   N11       1.0  0.7283557788966065  0.3689785156113955  0.0479124711018599  1.0000
  N   N12       1.0  0.7716302980300398  0.13101488803670946  0.5479127626022234  1.0000
  N   N13       1.0  0.45340056090603303  0.7212226230810331  0.916684403406478  1.0000
  N   N14       1.0  0.0465166330122741  0.7787810306352083  0.4166645056936318  1.0000
  N   N15       1.0  0.5465494446429986  0.2788055145286846  0.08333488719830481  1.0000
  N   N16       1.0  0.9534082420237696  0.2212018808417966  0.5833194696784716  1.0000
