data_image0
_chemical_formula_structural       K2Zn2H14C12O16
_chemical_formula_sum              "K2 Zn2 H14 C12 O16"
_cell_length_a       7.3356202852618475
_cell_length_b       7.491327990186452
_cell_length_c       9.73499985460287
_cell_angle_alpha    77.46842099165826
_cell_angle_beta     68.69570588083593
_cell_angle_gamma    65.0647921552725

_space_group_name_H-M_alt    "P 1"
_space_group_IT_number       1

loop_
  _space_group_symop_operation_xyz
  'x, y, z'

loop_
  _atom_site_type_symbol
  _atom_site_label
  _atom_site_symmetry_multiplicity
  _atom_site_fract_x
  _atom_site_fract_y
  _atom_site_fract_z
  _atom_site_occupancy
  K   K1        1.0  0.7640965775607498  0.2560246871799521  0.9645791611669876  1.0000
  K   K2        1.0  0.23589874051494766  0.7439878860758428  0.03542308608703584  1.0000
  Zn  Zn1       1.0  0.6022702193420956  0.8667310255406235  0.2664282298254434  1.0000
  Zn  Zn2       1.0  0.3977304238062445  0.1332682469294539  0.7335727703245777  1.0000
  H   H1        1.0  0.6185649685031934  0.5038843026425894  0.40189542875958034  1.0000
  H   H2        1.0  0.38143098284681554  0.4961194251361647  0.5981091898063864  1.0000
  H   H3        1.0  0.45956133621571377  0.5508469101836582  0.3090475136743435  1.0000
  H   H4        1.0  0.5404393069326261  0.4491523622864193  0.690953486475685  1.0000
  H   H5        1.0  0.1709080924057815  0.947837329828076  0.3047408512183905  1.0000
  H   H6        1.0  0.8290919529444238  0.052163411873969806  0.6952590351563187  1.0000
  H   H7        1.0  0.9365403611400964  0.42431868152505825  0.45350848413004013  1.0000
  H   H8        1.0  0.06346321047250565  0.5756805857129735  0.5464917041409121  1.0000
  H   H9        1.0  0.8958247020228072  0.20513314814390077  0.46178609921784636  1.0000
  H   H10       1.0  0.1041747455292422  0.7948690627901133  0.5382126733815511  1.0000
  H   H11       1.0  0.9513887916687409  0.24494337970834582  0.2008135857478024  1.0000
  H   H12       1.0  0.04861125869151551  0.7550573690571554  0.7991873252707077  1.0000
  H   H13       1.0  0.9931535796739656  0.46596047193980183  0.1880316875690368  1.0000
  H   H14       1.0  0.006847058464316537  0.53403879346682  0.8119682879371833  1.0000
  C   C1        1.0  0.09834647019422961  0.18743526742743202  0.582144233394402  1.0000
  C   C2        1.0  0.9016532965000083  0.8125625242997927  0.41785623718286036  1.0000
  C   C3        1.0  0.016065888955282038  0.2630527234500093  0.4497554186062443  1.0000
  C   C4        1.0  0.983934749183  0.7369465419566128  0.5502445568999759  1.0000
  C   C5        1.0  0.18481272251236186  0.21436732553672758  0.2982782810251549  1.0000
  C   C6        1.0  0.8151893748479964  0.7856319301904194  0.7017202638977266  1.0000
  C   C7        1.0  0.36054318769078014  0.29197534201322384  0.2730253271867653  1.0000
  C   C8        1.0  0.6394600952457454  0.7080209611230757  0.7269733959991383  1.0000
  C   C9        1.0  0.07271524306319324  0.30584698748802447  0.17812589145705718  1.0000
  C   C10       1.0  0.9272848022870049  0.6941537542140213  0.8218739949176523  1.0000
  C   C11       1.0  0.22396577044306554  0.2706251561555818  0.02173259992761696  1.0000
  C   C12       1.0  0.776031346442878  0.7293755907785028  0.9782680983261611  1.0000
  O   O1        1.0  0.005873893182823093  0.09979884202871152  0.6942207714033086  1.0000
  O   O2        1.0  0.9941276163995028  0.9002018970573076  0.3057787090318627  1.0000
  O   O3        1.0  0.5253088395360666  0.6108397245114503  0.3529599789342156  1.0000
  O   O4        1.0  0.474691205814132  0.3891610171905954  0.6470399074404937  1.0000
  O   O5        1.0  0.2569546475823826  0.22367134205494923  0.574748023010798  1.0000
  O   O6        1.0  0.74304804757611  0.7763264444402297  0.4252516356874024  1.0000
  O   O7        1.0  0.28427500401539163  0.004641266430972701  0.29043961291380777  1.0000
  O   O8        1.0  0.715726495546818  0.9953594585281422  0.7095578182337546  1.0000
  O   O9        1.0  0.3047898459721167  0.47590565798505935  0.27382865026462605  1.0000
  O   O10       1.0  0.6952128391662596  0.5240921143832082  0.7261689591459654  1.0000
  O   O11       1.0  0.5501133807396953  0.1672052326323624  0.2502551441829297  1.0000
  O   O12       1.0  0.44988785519673496  0.8327925635422917  0.7497459450986098  1.0000
  O   O13       1.0  0.3697275367182584  0.33443617548060434  0.976824201394244  1.0000
  O   O14       1.0  0.6302731014200235  0.6655630899260176  0.023175774111976445  1.0000
  O   O15       1.0  0.18991587481190916  0.17685989459060641  0.9415191581884269  1.0000
  O   O16       1.0  0.8100824276502011  0.8231378997526375  0.05848171832837321  1.0000
