data_image0
_chemical_formula_structural       Cd2H28C28N8O8
_chemical_formula_sum              "Cd2 H28 C28 N8 O8"
_cell_length_a       6.914743369114425
_cell_length_b       11.205133767578818
_cell_length_c       11.205172194164621
_cell_angle_alpha    64.90017652003782
_cell_angle_beta     72.02149660280317
_cell_angle_gamma    72.02151304463338

_space_group_name_H-M_alt    "P 1"
_space_group_IT_number       1

loop_
  _space_group_symop_operation_xyz
  'x, y, z'

loop_
  _atom_site_type_symbol
  _atom_site_label
  _atom_site_symmetry_multiplicity
  _atom_site_fract_x
  _atom_site_fract_y
  _atom_site_fract_z
  _atom_site_occupancy
  Cd  Cd1       1.0  0.4172147392839633  0.9999582303113287  1.5143715330600278e-05  1.0000
  Cd  Cd2       1.0  0.9172150359204281  1.364274190527582e-05  0.9999602513623316  1.0000
  H   H1        1.0  0.1440454522763799  0.320947534482329  0.9387330081167491  1.0000
  H   H2        1.0  0.4037039520505914  0.6790445668877041  0.061269040430722996  1.0000
  H   H3        1.0  0.6440500618538534  0.9387320634537205  0.32094851103556726  1.0000
  H   H4        1.0  0.9037030415595525  0.061270949649646585  0.6790449350944954  1.0000
  H   H5        1.0  0.5965955780046881  0.7344636489450808  0.25155675979176817  1.0000
  H   H6        1.0  0.5826078763130974  0.2654216988974696  0.7485189002306143  1.0000
  H   H7        1.0  0.0965964423498988  0.25155506233825525  0.7344636666896848  1.0000
  H   H8        1.0  0.0826084737451679  0.748520440833005  0.2654214518786233  1.0000
  H   H9        1.0  0.4394433035557979  0.6299019878479089  0.37712992651513133  1.0000
  H   H10       1.0  0.4464493958144259  0.3700796964918781  0.6229713878276898  1.0000
  H   H11       1.0  0.9394472126655414  0.3771289483449111  0.6299014825249357  1.0000
  H   H12       1.0  0.9464479375063919  0.6229720722055989  0.37008005415946593  1.0000
  H   H13       1.0  0.6129841273540817  0.23234023203401938  0.2859948736144275  1.0000
  H   H14       1.0  0.13141586530479551  0.7675408762902125  0.7141792673582756  1.0000
  H   H15       1.0  0.11298706261587198  0.2859978699788854  0.2323369232508625  1.0000
  H   H16       1.0  0.6314151165620387  0.7141772751406209  0.7675410575889144  1.0000
  H   H17       1.0  0.47078878980396155  0.39836121125542706  0.39800674269591235  1.0000
  H   H18       1.0  0.2673217364485722  0.6016113818879135  0.6020645334548079  1.0000
  H   H19       1.0  0.9707946779819775  0.39800601745748326  0.39835978727941784  1.0000
  H   H20       1.0  0.767322221754014  0.6020659539684845  0.6016109210557802  1.0000
  H   H21       1.0  0.8118399494866464  0.6785530565130317  0.0608393936688003  1.0000
  H   H22       1.0  0.551332747682757  0.321331674714074  0.9392522927506944  1.0000
  H   H23       1.0  0.31184259491977423  0.060838583341478666  0.6785501213201003  1.0000
  H   H24       1.0  0.05133033571586705  0.9392544052024907  0.3213328293287887  1.0000
  H   H25       1.0  0.9468826335714051  0.5148249651812054  0.9487542116953165  1.0000
  H   H26       1.0  0.4103998367303774  0.48499016105110837  0.05144457302111501  1.0000
  H   H27       1.0  0.44687973380280943  0.9487552163540446  0.514822365255263  1.0000
  H   H28       1.0  0.9103963470923656  0.051445521250208605  0.48499129202979663  1.0000
  C   C1        1.0  0.8759652716715535  0.2528574462649475  0.053690952184538794  1.0000
  C   C2        1.0  0.18245140085425493  0.7470492431885347  0.946387925558831  1.0000
  C   C3        1.0  0.3759741801114984  0.05368551389889127  0.25286392628716925  1.0000
  C   C4        1.0  0.6824575473451937  0.946388945546076  0.7470481591266633  1.0000
  C   C5        1.0  0.7971767509397975  0.35810382470409513  0.1123641929581041  1.0000
  C   C6        1.0  0.26761623388193806  0.6417251810256988  0.8878104334278876  1.0000
  C   C7        1.0  0.2971706325384602  0.11236726041811822  0.3580988806472476  1.0000
  C   C8        1.0  0.7676147204026409  0.8878094508101884  0.6417260115416781  1.0000
  C   C9        1.0  0.6580459931264427  0.3296417840440854  0.238062769621024  1.0000
  C   C10       1.0  0.22582473857983107  0.6702241701840422  0.7620814692793233  1.0000
  C   C11       1.0  0.15805130091862915  0.2380577564300523  0.32963838112212335  1.0000
  C   C12       1.0  0.7258238028026794  0.7620843915912944  0.6702238700091031  1.0000
  C   C13       1.0  0.578953398529954  0.4227143126957813  0.30085943145062544  1.0000
  C   C14       1.0  0.30268345268677155  0.5772033303591969  0.6992333162707141  1.0000
  C   C15       1.0  0.07894543260248801  0.30086347810586034  0.4227142776055004  1.0000
  C   C16       1.0  0.8026830078069764  0.699233293461234  0.5772025682233561  1.0000
  C   C17       1.0  0.6383684046031207  0.5487869372942671  0.24111409291161576  1.0000
  C   C18       1.0  0.4284018976366609  0.4511284292929147  0.7589745560920775  1.0000
  C   C19       1.0  0.13837273318805632  0.24110882528503907  0.5487861808741954  1.0000
  C   C20       1.0  0.9283990059101724  0.7589766654671666  0.4511276219502419  1.0000
  C   C21       1.0  0.7711510929376855  0.5796536809043574  0.1119776769521295  1.0000
  C   C22       1.0  0.46293038214764676  0.42023569460751287  0.8881185561519019  1.0000
  C   C23       1.0  0.2711474464848109  0.11198180299851403  0.5796514100030948  1.0000
  C   C24       1.0  0.9629288848210958  0.888120379067587  0.42023455691889927  1.0000
  C   C25       1.0  0.8489109983176061  0.4857549863231443  0.049393778306878695  1.0000
  C   C26       1.0  0.38407091403374227  0.5140874266316546  0.9507731086046007  1.0000
  C   C27       1.0  0.3489109976237542  0.04939163808347052  0.4857551634730371  1.0000
  C   C28       1.0  0.8840688796913624  0.950775254978716  0.5140902635394794  1.0000
  N   N1        1.0  0.04709623042796114  0.26035785237640857  0.955361866880537  1.0000
  N   N2        1.0  0.26276001410386857  0.7396187416849145  0.044654885061213206  1.0000
  N   N3        1.0  0.5470904179517855  0.9553633085119134  0.26035730381371286  1.0000
  N   N4        1.0  0.7627564287335106  0.044652560422598346  0.7396215374785627  1.0000
  N   N5        1.0  0.5745195295321676  0.6373051636642305  0.3074780907826735  1.0000
  N   N6        1.0  0.5193674000163356  0.36260173907611215  0.6926058361281305  1.0000
  N   N7        1.0  0.07451472317340795  0.3074796700655826  0.637303417165164  1.0000
  N   N8        1.0  0.019365422959047755  0.6926089794196173  0.36260107229701083  1.0000
  O   O1        1.0  0.13627264923198382  0.1592899113969751  0.9038583468372534  1.0000
  O   O2        1.0  0.19940022596774304  0.8407484897071883  0.09607090245413022  1.0000
  O   O3        1.0  0.6362755301606381  0.9038567447769099  0.1592909516170806  1.0000
  O   O4        1.0  0.6993990772797075  0.09606918774827035  0.8407520113526842  1.0000
  O   O5        1.0  0.7807799290354466  0.15710933729909027  0.09566839525970042  1.0000
  O   O6        1.0  0.03352427244437449  0.8428073364918234  0.9043568658790023  1.0000
  O   O7        1.0  0.2807780017728802  0.09566666580495566  0.15710619761269842  1.0000
  O   O8        1.0  0.5335247029274083  0.9043508512886691  0.8428149669318615  1.0000
