data_image0
_chemical_formula_structural       Zn8H72C136N24O32
_chemical_formula_sum              "Zn8 H72 C136 N24 O32"
_cell_length_a       18.12710141357839
_cell_length_b       23.3216806149156
_cell_length_c       23.321692581031925
_cell_angle_alpha    63.12081866828797
_cell_angle_beta     67.1108183242145
_cell_angle_gamma    67.11087907367411

_space_group_name_H-M_alt    "P 1"
_space_group_IT_number       1

loop_
  _space_group_symop_operation_xyz
  'x, y, z'

loop_
  _atom_site_type_symbol
  _atom_site_label
  _atom_site_symmetry_multiplicity
  _atom_site_fract_x
  _atom_site_fract_y
  _atom_site_fract_z
  _atom_site_occupancy
  Zn  Zn1       1.0  0.44966164249950685  0.3609394830306699  0.7164197314001798  1.0000
  Zn  Zn2       1.0  0.027157623153250692  0.139018753480272  0.7835813607780722  1.0000
  Zn  Zn3       1.0  0.5503350277606103  0.2835828490805882  0.639060417155811  1.0000
  Zn  Zn4       1.0  0.9728482050827197  0.21641408015645425  0.8609796006216612  1.0000
  Zn  Zn5       1.0  0.5503354767839497  0.639061089129335  0.28358471834147986  1.0000
  Zn  Zn6       1.0  0.972846719997065  0.8609798110127616  0.2164153787292235  1.0000
  Zn  Zn7       1.0  0.4496625286409711  0.7164182171738176  0.3609419607548857  1.0000
  Zn  Zn8       1.0  0.02715617995249167  0.7835824929327019  0.1390176010318811  1.0000
  H   H1        1.0  0.39473527877797926  0.014131807330606701  0.8439786358400809  1.0000
  H   H2        1.0  0.7527856993669457  0.485879898660258  0.6559886585237251  1.0000
  H   H3        1.0  0.605268275357595  0.15601802386406402  0.9858701466348664  1.0000
  H   H4        1.0  0.24721353969329843  0.3440154258376681  0.5141190092644123  1.0000
  H   H5        1.0  0.6052657086931816  0.9858697493541513  0.15601990690694117  1.0000
  H   H6        1.0  0.24721305758389175  0.5141211724612589  0.34401635481262355  1.0000
  H   H7        1.0  0.39473459499453867  0.8439795536601056  0.014131346182331622  1.0000
  H   H8        1.0  0.7527863694517123  0.6559876277527295  0.485880896210503  1.0000
  H   H9        1.0  0.3450511645525862  0.9711181473512059  0.9711189458966061  1.0000
  H   H10       1.0  0.7872193196508807  0.5289050264990536  0.5289060150851553  1.0000
  H   H11       1.0  0.6549525019750034  0.028884413347853414  0.0288839035022051  1.0000
  H   H12       1.0  0.21277791728848422  0.4710970376910383  0.47109729318121657  1.0000
  H   H13       1.0  0.18159900548683078  0.16365458735220534  0.9007578727849294  1.0000
  H   H14       1.0  0.7458491131455743  0.3363069314900287  0.5994240458743292  1.0000
  H   H15       1.0  0.8184005168094829  0.0992436300923742  0.8363413214995602  1.0000
  H   H16       1.0  0.25414684482155536  0.40057702533032136  0.6636949710909689  1.0000
  H   H17       1.0  0.818400708328248  0.8363434867146962  0.09924263627480218  1.0000
  H   H18       1.0  0.25414448673132023  0.6636971233047078  0.40057817510967203  1.0000
  H   H19       1.0  0.18159959109703297  0.9007569270371362  0.16365536867574806  1.0000
  H   H20       1.0  0.7458482727832206  0.5994260315245086  0.3363063851486031  1.0000
  H   H21       1.0  0.0483899677653739  0.002717424835694301  0.0027189615540664023  1.0000
  H   H22       1.0  0.5537859790447471  0.49732252264978194  0.49732182830643973  1.0000
  H   H23       1.0  0.9516187709369461  0.9972711659794699  0.9972715381245649  1.0000
  H   H24       1.0  0.4462136947884403  0.5026775468804416  0.5026803601190508  1.0000
  H   H25       1.0  0.2570256812612898  0.25059823807745835  0.8231864766644322  1.0000
  H   H26       1.0  0.830743074855576  0.24939074938330208  0.6769152888845299  1.0000
  H   H27       1.0  0.7429686190222141  0.1768175331243  0.7494010347939408  1.0000
  H   H28       1.0  0.1692544124584785  0.3230835329846116  0.7506088346657477  1.0000
  H   H29       1.0  0.7429709974786433  0.7494018326811444  0.17681619018656386  1.0000
  H   H30       1.0  0.1692529603927396  0.7506113075040092  0.32308409904898394  1.0000
  H   H31       1.0  0.25702781336232755  0.823187013320741  0.2505979606743692  1.0000
  H   H32       1.0  0.8307399862642554  0.6769180273768499  0.24939127458027585  1.0000
  H   H33       1.0  0.4683984025500579  0.10237347774645404  0.7647585252203015  1.0000
  H   H34       1.0  0.8355841518002549  0.39766312868194836  0.7351318218302793  1.0000
  H   H35       1.0  0.5316004310964715  0.23523937979006604  0.8976322101523734  1.0000
  H   H36       1.0  0.16441700454956273  0.2648705861518437  0.6023338388167758  1.0000
  H   H37       1.0  0.5316021055374802  0.8976295754358861  0.23524119890902984  1.0000
  H   H38       1.0  0.16441736150661498  0.6023349498440143  0.26487114130951983  1.0000
  H   H39       1.0  0.46840016418624936  0.7647596978915274  0.10237229299108462  1.0000
  H   H40       1.0  0.8355829026924511  0.7351324633791165  0.39766392514611953  1.0000
  H   H41       1.0  0.4317643975130208  0.3599059471091409  0.8467524250732198  1.0000
  H   H42       1.0  0.138289319604084  0.14013486355503346  0.6532166358950349  1.0000
  H   H43       1.0  0.568233633205459  0.15324772943456114  0.6400945952486622  1.0000
  H   H44       1.0  0.861711006204153  0.34678146817052646  0.8598657100881583  1.0000
  H   H45       1.0  0.5682308796325587  0.6400966103718986  0.15324825183731153  1.0000
  H   H46       1.0  0.8617110696857467  0.8598666951615571  0.34678294480237065  1.0000
  H   H47       1.0  0.43176467939586877  0.846752832166672  0.3599043521730039  1.0000
  H   H48       1.0  0.13829022571940178  0.6532156087683562  0.14013436252954392  1.0000
  H   H49       1.0  0.30721721051605744  0.484314885973312  0.7008723189912233  1.0000
  H   H50       1.0  0.9923557542714934  0.015658206261470305  0.7991570023408271  1.0000
  H   H51       1.0  0.6927804184529761  0.2991284438330837  0.5156870657148573  1.0000
  H   H52       1.0  0.007645465626723073  0.20084270762129822  0.9843432198923736  1.0000
  H   H53       1.0  0.6927808998983662  0.515688164781807  0.2991259890084166  1.0000
  H   H54       1.0  0.007646432226522252  0.9843433520428423  0.2008424626222406  1.0000
  H   H55       1.0  0.30721953409932456  0.7008726216009933  0.4843150151159179  1.0000
  H   H56       1.0  0.9923557263149335  0.7991563647809057  0.0156585320910807  1.0000
  H   H57       1.0  0.33580216339362323  0.42260660847707493  0.9242222202430597  1.0000
  H   H58       1.0  0.18253743462474148  0.0774790600917399  0.5757260026466824  1.0000
  H   H59       1.0  0.6641970995802495  0.07577843658003762  0.5773943670906405  1.0000
  H   H60       1.0  0.8174609491754764  0.4242730168912914  0.9225205195987911  1.0000
  H   H61       1.0  0.6641930711058563  0.577397938784074  0.07577713791641125  1.0000
  H   H62       1.0  0.817463114586495  0.9225220000629476  0.42427332702408893  1.0000
  H   H63       1.0  0.33580328894838385  0.924223120512771  0.4226043570019653  1.0000
  H   H64       1.0  0.18253980070026182  0.5757255508619536  0.07747773628439351  1.0000
  H   H65       1.0  0.2053504093619125  0.5529802436723941  0.771609083125945  1.0000
  H   H66       1.0  0.029964522568263784  0.9470225956513832  0.7283906572121239  1.0000
  H   H67       1.0  0.7946494202723429  0.22839205876399396  0.4470222450111905  1.0000
  H   H68       1.0  0.9700354653262978  0.27161120746924894  0.052976968995757406  1.0000
  H   H69       1.0  0.7946484184121517  0.4470243003285361  0.2283887586576299  1.0000
  H   H70       1.0  0.9700369473313087  0.0529774710308999  0.2716101305718155  1.0000
  H   H71       1.0  0.20535140956100398  0.7716100013539987  0.5529791185768858  1.0000
  H   H72       1.0  0.029964485323006218  0.7283898539053837  0.9470229703230048  1.0000
  C   C1        1.0  0.3674144088908378  0.18202401942983223  0.7891859111316251  1.0000
  C   C2        1.0  0.8386704783601785  0.31798041840485075  0.710788277130689  1.0000
  C   C3        1.0  0.6325806548224479  0.21081511430254096  0.8179781704066401  1.0000
  C   C4        1.0  0.16133231794184869  0.28921117776960165  0.6820134190279248  1.0000
  C   C5        1.0  0.6325821087858969  0.8179765474550039  0.21081572183879876  1.0000
  C   C6        1.0  0.16133047598606245  0.6820156650658404  0.2892131879889348  1.0000
  C   C7        1.0  0.3674176181775762  0.7891874435738943  0.18202288468318537  1.0000
  C   C8        1.0  0.8386653507872524  0.7107913691484525  0.31798182117384505  1.0000
  C   C9        1.0  0.2401329422307086  0.03105263762427061  0.9300409085215122  1.0000
  C   C10       1.0  0.7011839986614986  0.468956381064416  0.5699719070547432  1.0000
  C   C11       1.0  0.7598724742184048  0.0699558406664167  0.9689443542132494  1.0000
  C   C12       1.0  0.2988146578424348  0.4300280870377833  0.5310457377441224  1.0000
  C   C13       1.0  0.7598712402370037  0.9689464238068838  0.06995522540760425  1.0000
  C   C14       1.0  0.2988125974504427  0.531047674937611  0.4300311204109589  1.0000
  C   C15       1.0  0.2401338679464047  0.9300402334485656  0.031052480679321  1.0000
  C   C16       1.0  0.7011842571268191  0.5699724814623934  0.4689568830535789  1.0000
  C   C17       1.0  0.15539999733144327  0.0395568164424844  0.9397741417692772  1.0000
  C   C18       1.0  0.6347133682434318  0.460445996891238  0.5602284161247012  1.0000
  C   C19       1.0  0.8446079787554056  0.06021777690880012  0.9604361424832677  1.0000
  C   C20       1.0  0.3652855980675155  0.4397708458422189  0.5395558758557043  1.0000
  C   C21       1.0  0.8446080605615479  0.960435761647929  0.060217756474443725  1.0000
  C   C22       1.0  0.3652817109018329  0.5395590586744633  0.4397763326902365  1.0000
  C   C23       1.0  0.1553996424000629  0.9397743078991001  0.03955825589381582  1.0000
  C   C24       1.0  0.6347142356870775  0.5602287251261019  0.4604460615431521  1.0000
  C   C25       1.0  0.2831630285209741  0.08255133630378712  0.8785483154729974  1.0000
  C   C26       1.0  0.7442104085838964  0.4174539469555754  0.6214757934460664  1.0000
  C   C27       1.0  0.7168390483312239  0.12145032217528502  0.9174487755779452  1.0000
  C   C28       1.0  0.25578813931380745  0.3785239281217656  0.5825483028374023  1.0000
  C   C29       1.0  0.7168387189559199  0.9174497238466799  0.12145107980902019  1.0000
  C   C30       1.0  0.2557859088089316  0.5825491131425906  0.37852734161435103  1.0000
  C   C31       1.0  0.2831630620151768  0.8785477518831756  0.08255186470426426  1.0000
  C   C32       1.0  0.7442092564051707  0.6214776350707609  0.4174534694951291  1.0000
  C   C33       1.0  0.36423627357219596  0.0660302928179988  0.8394714034802817  1.0000
  C   C34       1.0  0.7697244051144098  0.43397790707604855  0.6605060710997605  1.0000
  C   C35       1.0  0.6357649459819753  0.1605264906443153  0.9339705051750188  1.0000
  C   C36       1.0  0.23027611038522616  0.3394970385072186  0.5660196003904403  1.0000
  C   C37       1.0  0.6357638366179187  0.9339702691828506  0.16052785650943938  1.0000
  C   C38       1.0  0.23027423303872047  0.5660216695797118  0.33949879880467654  1.0000
  C   C39       1.0  0.36423700482362154  0.8394720827879353  0.06603081443622474  1.0000
  C   C40       1.0  0.7697228776908459  0.6605070077437034  0.43397841866890735  1.0000
  C   C41       1.0  0.2807891270469581  0.9759036204224075  0.9759029436164326  1.0000
  C   C42       1.0  0.7325393140660522  0.5241123778280895  0.5241126686599955  1.0000
  C   C43       1.0  0.7192162140851153  0.024097437279742506  0.024095363592096023  1.0000
  C   C44       1.0  0.2674577625713114  0.47589018411201073  0.4758904623306108  1.0000
  C   C45       1.0  0.24447538483203604  0.14990735636165914  0.8709328682163716  1.0000
  C   C46       1.0  0.7652299575299963  0.3500850096286073  0.6291591074410617  1.0000
  C   C47       1.0  0.7555232123405489  0.12906793558786228  0.8500915855674194  1.0000
  C   C48       1.0  0.2347679269576587  0.37084118559824475  0.6499167462765527  1.0000
  C   C49       1.0  0.7555237308017129  0.8500907197370751  0.1290686787937503  1.0000
  C   C50       1.0  0.23476532151858  0.6499175519118765  0.3708437109814824  1.0000
  C   C51       1.0  0.2444762996682356  0.8709326284448129  0.14990871237269213  1.0000
  C   C52       1.0  0.7652273509491181  0.6291613735065766  0.3500847872387781  1.0000
  C   C53       1.0  0.11435244847373839  0.9946874709853261  0.9946880250184122  1.0000
  C   C54       1.0  0.6036979463271734  0.5053348298119574  0.5053353820703846  1.0000
  C   C55       1.0  0.8856572870685396  0.005303610603284901  0.005302757454238467  1.0000
  C   C56       1.0  0.39630053038214896  0.49466524215814905  0.49466802565107326  1.0000
  C   C57       1.0  0.2862807690655488  0.19879262746082563  0.8274840205533421  1.0000
  C   C58       1.0  0.8125239428126037  0.3012065365224146  0.6725677996016941  1.0000
  C   C59       1.0  0.7137142456138862  0.17251794542825394  0.8012075617080114  1.0000
  C   C60       1.0  0.18747337306942302  0.32743061002190643  0.6987941917200615  1.0000
  C   C61       1.0  0.7137141128468018  0.8012074445219357  0.17251919033440538  1.0000
  C   C62       1.0  0.1874725322180382  0.6987960201425167  0.3274325146176693  1.0000
  C   C63       1.0  0.2862831489632993  0.8274836153286106  0.19879292571730636  1.0000
  C   C64       1.0  0.8125202667893773  0.6725714493095156  0.3012063498981731  1.0000
  C   C65       1.0  0.40545144387881743  0.11520347245065213  0.7949512378886325  1.0000
  C   C66       1.0  0.8156470235985367  0.38481024896871224  0.7049898907841338  1.0000
  C   C67       1.0  0.5945470535601202  0.20504723946291398  0.8847996620582705  1.0000
  C   C68       1.0  0.18435590330871315  0.29501252309745507  0.6151830671077718  1.0000
  C   C69       1.0  0.5945477479065459  0.8847980878939341  0.2050491338023476  1.0000
  C   C70       1.0  0.1843545315932289  0.6151858381533729  0.29501353450191903  1.0000
  C   C71       1.0  0.4054527801944656  0.7949523315054068  0.11520227534058587  1.0000
  C   C72       1.0  0.8156435203630894  0.7049920140003111  0.38481116691100686  1.0000
  C   C73       1.0  0.4138073804211473  0.2341976398836394  0.7447351546957249  1.0000
  C   C74       1.0  0.8927749870297673  0.2658139619366296  0.7552490090328873  1.0000
  C   C75       1.0  0.5861883633669436  0.25526448456863454  0.7658054104815052  1.0000
  C   C76       1.0  0.10722845730439451  0.24474867823284532  0.7341823668631875  1.0000
  C   C77       1.0  0.5861936085724082  0.7658039200486685  0.25526510126090324  1.0000
  C   C78       1.0  0.10722815899669047  0.734184604996287  0.2447489497703685  1.0000
  C   C79       1.0  0.4138092356807304  0.7447345919056688  0.23419828618025207  1.0000
  C   C80       1.0  0.8927684533219704  0.7552543692789374  0.2658141623156069  1.0000
  C   C81       1.0  0.1043240792303664  0.09377220636376651  0.8933186826411371  1.0000
  C   C82       1.0  0.5914463622147962  0.4061873698866378  0.6066476822818457  1.0000
  C   C83       1.0  0.8956862826928073  0.10667247716416743  0.9062173178195894  1.0000
  C   C84       1.0  0.40855310331534156  0.3933504223581041  0.5938136561518093  1.0000
  C   C85       1.0  0.895687055622666  0.9062163836310688  0.10667151995756548  1.0000
  C   C86       1.0  0.40855012042782596  0.5938152030160782  0.39336119798556973  1.0000
  C   C87       1.0  0.1043230549520401  0.8933161132429461  0.09377300051346545  1.0000
  C   C88       1.0  0.5914454571637792  0.6066456668042478  0.4061906758621562  1.0000
  C   C89       1.0  0.38050645706879743  0.40296673828567714  0.8329460475709709  1.0000
  C   C90       1.0  0.11631907374407291  0.09706250998454641  0.6670248240139998  1.0000
  C   C91       1.0  0.6194929868816885  0.1670552243387107  0.5970332152917877  1.0000
  C   C92       1.0  0.8836817776863908  0.332972111844363  0.9029380723972409  1.0000
  C   C93       1.0  0.6194903389464484  0.5970348236911321  0.1670550495023378  1.0000
  C   C94       1.0  0.8836832719141513  0.9029385481340884  0.3329735333176273  1.0000
  C   C95       1.0  0.38050680308500506  0.8329463339740503  0.40296611844880204  1.0000
  C   C96       1.0  0.11632005317969875  0.6670249646864619  0.09706181887487729  1.0000
  C   C97       1.0  0.31029389840922755  0.473079633546675  0.7508014608738804  1.0000
  C   C98       1.0  0.03413414467565451  0.0269192227627855  0.7492069655577609  1.0000
  C   C99       1.0  0.689704376974511  0.2491992435071922  0.5269221064661309  1.0000
  C   C100      1.0  0.9658646742403861  0.25079237612109756  0.9730824713457051  1.0000
  C   C101      1.0  0.6897036138238661  0.5269234192402763  0.24919788507614982  1.0000
  C   C102      1.0  0.9658670046199087  0.9730818394195141  0.2507934676746402  1.0000
  C   C103      1.0  0.31029497663526223  0.7508018223349424  0.4730801557102211  1.0000
  C   C104      1.0  0.03413547935701888  0.7492061977234246  0.026918963999882736  1.0000
  C   C105      1.0  0.3276217002772981  0.437714464415322  0.8751173716484432  1.0000
  C   C106      1.0  0.1403858580114559  0.062319357807425015  0.6248466406809356  1.0000
  C   C107      1.0  0.6723771280321954  0.12488341305456171  0.5622867476741861  1.0000
  C   C108      1.0  0.8596126337645131  0.37515227849370814  0.9376804311756571  1.0000
  C   C109      1.0  0.6723750534724573  0.5622890881534701  0.12488283497620485  1.0000
  C   C110      1.0  0.8596160501480483  0.9376812054049285  0.3751533601792542  1.0000
  C   C111      1.0  0.32762206375316805  0.8751181472900242  0.4377136240167944  1.0000
  C   C112      1.0  0.14038767785130088  0.6248457927294738  0.06231861163128366  1.0000
  C   C113      1.0  0.25470797219258395  0.5106822546224663  0.7899108700617461  1.0000
  C   C114      1.0  0.05529172650915382  0.9893314911756403  0.7100862523930404  1.0000
  C   C115      1.0  0.7452913276133232  0.2100893349693181  0.4893200375900618  1.0000
  C   C116      1.0  0.9447068938638239  0.28991445638978774  0.010669035175105443  1.0000
  C   C117      1.0  0.7452898179984261  0.48932179244455665  0.21008751168876216  1.0000
  C   C118      1.0  0.9447100217289374  0.0106695705986084  0.28991399949377705  1.0000
  C   C119      1.0  0.25470862455838267  0.7899117296528646  0.5106816149383135  1.0000
  C   C120      1.0  0.055292937987772454  0.7100851105190884  0.989330760711738  1.0000
  C   C121      1.0  0.26292120933157287  0.4924031524942124  0.8537088534007538  1.0000
  C   C122      1.0  0.10901763206617693  0.007615110469572502  0.6462710969599783  1.0000
  C   C123      1.0  0.7370793834441542  0.14629086561212293  0.5075980930444999  1.0000
  C   C124      1.0  0.8909800665763471  0.3537295665383766  0.9923857043610625  1.0000
  C   C125      1.0  0.737076901082844  0.5075998982609065  0.14628945459888604  1.0000
  C   C126      1.0  0.8909835176099818  0.9923859525246146  0.3537297645748295  1.0000
  C   C127      1.0  0.2629219265340127  0.8537096996320556  0.49240294576607363  1.0000
  C   C128      1.0  0.1090197648946471  0.6462699995586192  0.007613663223374097  1.0000
  C   C129      1.0  0.20653421779676512  0.5290556400857085  0.8983863552980437  1.0000
  C   C130      1.0  0.134002201256301  0.9709498535091541  0.6016137690470843  1.0000
  C   C131      1.0  0.7934671137831657  0.1016147576216753  0.47094467715102434  1.0000
  C   C132      1.0  0.8659944421741129  0.3983878388496296  0.029049951715329383  1.0000
  C   C133      1.0  0.7934631756386209  0.4709459182354792  0.10161284722006775  1.0000
  C   C134      1.0  0.866000146685515  0.0290512094808122  0.39838715809896286  1.0000
  C   C135      1.0  0.20653523415865746  0.8983863053682982  0.5290562499950155  1.0000
  C   C136      1.0  0.13400267292275447  0.6016127243795993  0.9709497866999043  1.0000
  N   N1        1.0  0.3714682410044574  0.4200882544906648  0.7722152360064528  1.0000
  N   N2        1.0  0.0637087821048681  0.0799128148016308  0.7277924116191343  1.0000
  N   N3        1.0  0.6285287761437955  0.22778620222740648  0.5799132462751403  1.0000
  N   N4        1.0  0.9362921692829145  0.272204192606857  0.9200879666808318  1.0000
  N   N5        1.0  0.6285268766003114  0.579914802364165  0.2277861202331124  1.0000
  N   N6        1.0  0.9362937238553638  0.9200877455669954  0.2722061229882656  1.0000
  N   N7        1.0  0.37146861957518235  0.7722153609651201  0.4200885260573913  1.0000
  N   N8        1.0  0.06370862438071605  0.727792387801955  0.07991289286061946  1.0000
  N   N9        1.0  0.15101191924190258  0.5869296427670961  0.8757448939617091  1.0000
  N   N10       1.0  0.11367155913582377  0.9131059750128049  0.6242914210443614  1.0000
  N   N11       1.0  0.8489905149293834  0.12425486309398083  0.4130733876168052  1.0000
  N   N12       1.0  0.8863250329940511  0.3757106520628071  0.08689346307176762  1.0000
  N   N13       1.0  0.8489842344235258  0.413073907774084  0.12425420910131627  1.0000
  N   N14       1.0  0.8863320293371473  0.08689309738095832  0.3757104621615781  1.0000
  N   N15       1.0  0.15101351256471668  0.8757447074536344  0.5869285652701849  1.0000
  N   N16       1.0  0.11367176111819792  0.6242909058545508  0.9131054924895281  1.0000
  N   N17       1.0  0.20769646153723892  0.49964191390653667  0.963206221719176  1.0000
  N   N18       1.0  0.17057913207150927  0.00035328865583039997  0.5367910092771311  1.0000
  N   N19       1.0  0.7923043774227451  0.03679368473332541  0.500358083769818  1.0000
  N   N20       1.0  0.8294178246365577  0.4632105310799303  0.99964570099678  1.0000
  N   N21       1.0  0.7923003314332107  0.5003596415751588  0.03679144893490622  1.0000
  N   N22       1.0  0.829420820100189  0.9996477759663592  0.46321064325123734  1.0000
  N   N23       1.0  0.20769813044047677  0.963206879694745  0.4996425923495877  1.0000
  N   N24       1.0  0.17057853045456978  0.5367905286835823  0.0003531848834582965  1.0000
  O   O1        1.0  0.11886036083396327  0.0909004685853816  0.8369320685393546  1.0000
  O   O2        1.0  0.5465903537362208  0.4090538626308843  0.6630175316145002  1.0000
  O   O3        1.0  0.8811489907445917  0.16305937930105333  0.9090872074608926  1.0000
  O   O4        1.0  0.45340555067996047  0.3369792033957921  0.5909490334340077  1.0000
  O   O5        1.0  0.8811499378617282  0.9090851336978861  0.16305845684350134  1.0000
  O   O6        1.0  0.4534031661768764  0.5909541830904956  0.33698804810102706  1.0000
  O   O7        1.0  0.11886122151710751  0.8369302001067499  0.09089939551263619  1.0000
  O   O8        1.0  0.5465920894914191  0.6630178800508588  0.4090542687691964  1.0000
  O   O9        1.0  0.48394904305975217  0.21653217970122549  0.7059043733176793  1.0000
  O   O10       1.0  0.9063128365347028  0.2834714937928169  0.7941093486510766  1.0000
  O   O11       1.0  0.5160483482523047  0.2940955978741897  0.783468836342621  1.0000
  O   O12       1.0  0.09369185523237178  0.20588870159664918  0.7165240666582305  1.0000
  O   O13       1.0  0.5160535481926729  0.7834644011072031  0.29409679879183415  1.0000
  O   O14       1.0  0.09368971131042499  0.7165270751719321  0.20588964810256982  1.0000
  O   O15       1.0  0.48395176384080674  0.7059049681861043  0.2165325651591132  1.0000
  O   O16       1.0  0.9063056543365205  0.7941143455070758  0.28347228117498724  1.0000
  O   O17       1.0  0.04611279666415408  0.13640198253843747  0.917117734266185  1.0000
  O   O18       1.0  0.5998639808355223  0.36353599655150504  0.5828247318358849  1.0000
  O   O19       1.0  0.9538982234321125  0.0828708720148228  0.8635918021362626  1.0000
  O   O20       1.0  0.40013526706504626  0.4171741260693054  0.6364648535467123  1.0000
  O   O21       1.0  0.9538966148487164  0.8635900872431893  0.08286883893330785  1.0000
  O   O22       1.0  0.4001290707375203  0.6364660859208515  0.41718798359521253  1.0000
  O   O23       1.0  0.046113074767724464  0.917117226725118  0.1364020041574321  1.0000
  O   O24       1.0  0.5998638489493046  0.5828239508413163  0.3635371217658091  1.0000
  O   O25       1.0  0.3818754446609844  0.291753270399056  0.749121450870227  1.0000
  O   O26       1.0  0.9228693726589086  0.2082624786116584  0.7508444785487498  1.0000
  O   O27       1.0  0.6181225771014455  0.25088000933271104  0.7082478731496878  1.0000
  O   O28       1.0  0.07713147652269474  0.24915037824785455  0.7917343868659188  1.0000
  O   O29       1.0  0.6181261863017937  0.7082463001569935  0.2508803707942846  1.0000
  O   O30       1.0  0.07713181433495463  0.7917365832359877  0.249151705503472  1.0000
  O   O31       1.0  0.38187677650832086  0.7491210565094237  0.29175438902666423  1.0000
  O   O32       1.0  0.9228665558371175  0.750849184201961  0.20826295494084957  1.0000
