data_image0
_chemical_formula_structural       Cu2H32C32N4O8
_chemical_formula_sum              "Cu2 H32 C32 N4 O8"
_cell_length_a       5.000116705085659
_cell_length_b       9.53174497717757
_cell_length_c       15.000682564318714
_cell_angle_alpha    102.5061070353069
_cell_angle_beta     90.00065335703536
_cell_angle_gamma    90.00002584462428

_space_group_name_H-M_alt    "P 1"
_space_group_IT_number       1

loop_
  _space_group_symop_operation_xyz
  'x, y, z'

loop_
  _atom_site_type_symbol
  _atom_site_label
  _atom_site_symmetry_multiplicity
  _atom_site_fract_x
  _atom_site_fract_y
  _atom_site_fract_z
  _atom_site_occupancy
  Cu  Cu1       1.0  0.17912277727666037  0.2649993722771882  0.5141162549698208  1.0000
  Cu  Cu2       1.0  0.6791167099536254  0.7349962322260951  0.485883688376056  1.0000
  H   H1        1.0  0.9715209580192267  0.33000671327618397  0.6678601541172142  1.0000
  H   H2        1.0  0.47152487919758806  0.6699850856095324  0.3321370354258661  1.0000
  H   H3        1.0  0.7436030601087752  0.24003706306275058  0.5985834497392447  1.0000
  H   H4        1.0  0.24357941740171904  0.7599328617564256  0.4014132365369037  1.0000
  H   H5        1.0  0.8482270263254533  0.029773811525807003  0.6245284877527412  1.0000
  H   H6        1.0  0.3481865677697655  0.97020923083911  0.3754823782439516  1.0000
  H   H7        1.0  0.3956497987475914  0.2653930128693247  0.7493674748976249  1.0000
  H   H8        1.0  0.8956015815264139  0.734605105123677  0.2506309573479585  1.0000
  H   H9        1.0  0.7079548360138261  0.003195180408035  0.7711974208043273  1.0000
  H   H10       1.0  0.20791330631761443  0.9968101823880104  0.22881462662287796  1.0000
  H   H11       1.0  0.5412690266999151  0.37192262850490476  0.43799504905904746  1.0000
  H   H12       1.0  0.0412568959219399  0.628074880485613  0.5620026362425747  1.0000
  H   H13       1.0  0.5301163583023722  0.20103999505327863  0.3863181853505893  1.0000
  H   H14       1.0  0.0301300843209447  0.7989574900955034  0.6136781215979142  1.0000
  H   H15       1.0  0.10366713248227911  0.23779673877549365  0.3178110913233212  1.0000
  H   H16       1.0  0.6036718769454765  0.7621987425045164  0.6821905518371452  1.0000
  H   H17       1.0  0.6733728522411155  0.1940974550206178  0.2615764662460194  1.0000
  H   H18       1.0  0.17337690315186194  0.8059088765334508  0.7384222506617065  1.0000
  H   H19       1.0  0.9076810058174088  0.2251072126392302  0.12398713593294272  1.0000
  H   H20       1.0  0.4076938113559336  0.7749038077404578  0.8760090998754393  1.0000
  H   H21       1.0  0.7608370370315072  0.4121929522648173  0.041270130064489804  1.0000
  H   H22       1.0  0.2608646347944941  0.5878146001914715  0.9587277483934076  1.0000
  H   H23       1.0  0.3614993616901216  0.5625991133553895  0.09750841597817582  1.0000
  H   H24       1.0  0.8615356108063921  0.437397868863954  0.9024890667941821  1.0000
  H   H25       1.0  0.1166494463953569  0.5267147298301609  0.23470415730470515  1.0000
  H   H26       1.0  0.6166669566548039  0.4732786176780408  0.7652952439623563  1.0000
  H   H27       1.0  0.4764588019848759  0.29733096021859495  0.915797874693034  1.0000
  H   H28       1.0  0.9763868065155422  0.702686628775581  0.08420018089778131  1.0000
  H   H29       1.0  0.17945602351926476  0.18168632528411882  0.010193829570369014  1.0000
  H   H30       1.0  0.6793874497189379  0.8183415229952686  0.9898118417727206  1.0000
  H   H31       1.0  0.7897058278228356  0.03508476019374741  0.9382378717625957  1.0000
  H   H32       1.0  0.2896424987171714  0.964945446023094  0.061773867967090675  1.0000
  C   C1        1.0  0.2691261249946066  0.04004798489339122  0.6002758167041622  1.0000
  C   C2        1.0  0.7690951613704656  0.9599263101803999  0.399729560547165  1.0000
  C   C3        1.0  0.010434987406746601  0.1071499149394199  0.6470997845126619  1.0000
  C   C4        1.0  0.5103983752312828  0.8928454031569687  0.3529008196188315  1.0000
  C   C5        1.0  0.0476538949776995  0.1307107245513208  0.7493706755780281  1.0000
  C   C6        1.0  0.5475957307761803  0.8692868185363878  0.2506337046366199  1.0000
  C   C7        1.0  0.2627376090956233  0.21464724408959066  0.790813771953367  1.0000
  C   C8        1.0  0.762677976107888  0.7853581762014841  0.2091878227723001  1.0000
  C   C9        1.0  0.8775494425171287  0.06684722670828339  0.8030927306191131  1.0000
  C   C10       1.0  0.3775027828753892  0.9331594917125801  0.19691680514019802  1.0000
  C   C11       1.0  0.0378040871142602  0.4431591805172561  0.39730308479161647  1.0000
  C   C12       1.0  0.5377939972270768  0.5568404740518956  0.6026955465011028  1.0000
  C   C13       1.0  0.23484451955287264  0.3314898408772891  0.34266291805604254  1.0000
  C   C14       1.0  0.7348543660898486  0.6685080043834474  0.6573362066029134  1.0000
  C   C15       1.0  0.38141967627998247  0.3621332678964749  0.26022712203900517  1.0000
  C   C16       1.0  0.8814363667168906  0.6378626671130192  0.7397682928874333  1.0000
  C   C17       1.0  0.6029099087752599  0.2762707395293588  0.22669605131198273  1.0000
  C   C18       1.0  0.1029251356899152  0.7237258012010415  0.7733017335599897  1.0000
  C   C19       1.0  0.7356394506800612  0.2927767488920736  0.14799959789510103  1.0000
  C   C20       1.0  0.2356573975914742  0.7072286015963202  0.8519952193350449  1.0000
  C   C21       1.0  0.6516646217453753  0.3965158453615842  0.10128105382032972  1.0000
  C   C22       1.0  0.1516901465235563  0.603484003348015  0.8987173648906932  1.0000
  C   C23       1.0  0.42928037968746224  0.48077943578654464  0.1330736480839505  1.0000
  C   C24       1.0  0.9293074288111782  0.519219798723256  0.8669203962557647  1.0000
  C   C25       1.0  0.29340490254314483  0.4632180250647833  0.21128163316846843  1.0000
  C   C26       1.0  0.7934272490476887  0.536774541188045  0.7887149921630795  1.0000
  C   C27       1.0  0.30830216554668505  0.2328622731140371  0.8841212765691608  1.0000
  C   C28       1.0  0.808231292770415  0.7671464265119922  0.11587426969452963  1.0000
  C   C29       1.0  0.13996700303579962  0.167360158867119  0.9372988574961739  1.0000
  C   C30       1.0  0.6399023135079743  0.8326568750824848  0.06270519199917153  1.0000
  C   C31       1.0  0.9235259963124988  0.08504753798364112  0.8968022130971036  1.0000
  C   C32       1.0  0.4234700829287235  0.9149635374178757  0.10320208923054965  1.0000
  N   N1        1.0  0.9417487463051445  0.24103286009413694  0.6165314079964618  1.0000
  N   N2        1.0  0.44173448119295944  0.7589535235593486  0.38346759838412947  1.0000
  N   N3        1.0  0.4121355640383939  0.28935777063080076  0.4114077186230602  1.0000
  N   N4        1.0  0.9121330455584982  0.7106403712169183  0.5885894455855265  1.0000
  O   O1        1.0  0.3943063230878252  0.11041912059704373  0.5486769090591892  1.0000
  O   O2        1.0  0.8943051186530653  0.8895692980951466  0.45131286357146644  1.0000
  O   O3        1.0  0.34907871435434873  0.923651958338425  0.6165743930120372  1.0000
  O   O4        1.0  0.8490648391071005  0.0763578863018211  0.3834214624921515  1.0000
  O   O5        1.0  0.958135909129034  0.4111503468733631  0.47290911845107797  1.0000
  O   O6        1.0  0.45810655382100407  0.5888554151518619  0.5270945898743662  1.0000
  O   O7        1.0  0.9527782816008427  0.549630846464666  0.3701739305087912  1.0000
  O   O8        1.0  0.45280442999252574  0.4503598362370982  0.6298203700545815  1.0000
