data_image0
_chemical_formula_structural       Ag4H28C24Br4N4
_chemical_formula_sum              "Ag4 H28 C24 Br4 N4"
_cell_length_a       4.316640443089574
_cell_length_b       9.271326027687266
_cell_length_c       18.527332771743243
_cell_angle_alpha    90.0000303784048
_cell_angle_beta     90.0010185751891
_cell_angle_gamma    94.94484289244409

_space_group_name_H-M_alt    "P 1"
_space_group_IT_number       1

loop_
  _space_group_symop_operation_xyz
  'x, y, z'

loop_
  _atom_site_type_symbol
  _atom_site_label
  _atom_site_symmetry_multiplicity
  _atom_site_fract_x
  _atom_site_fract_y
  _atom_site_fract_z
  _atom_site_occupancy
  Ag  Ag1       1.0  0.2644770093847413  0.6094604391659786  0.48741295321953987  1.0000
  Ag  Ag2       1.0  0.7355199454639134  0.8905388371643782  0.9874071515475651  1.0000
  Ag  Ag3       1.0  0.735519756187031  0.3905374705172875  0.5125891285085871  1.0000
  Ag  Ag4       1.0  0.2644794855131991  0.10945247085203391  0.012588993010908203  1.0000
  H   H1        1.0  0.12225665448892192  0.6950582703254754  0.6478432131621262  1.0000
  H   H2        1.0  0.8777219382827325  0.8049503753527533  0.14783974022990526  1.0000
  H   H3        1.0  0.8777391809329059  0.30492877088138937  0.3521604877915934  1.0000
  H   H4        1.0  0.12227373840528337  0.19506716664947993  0.8521612620129916  1.0000
  H   H5        1.0  0.3065690061797425  0.8712146317356754  0.7442892378969859  1.0000
  H   H6        1.0  0.693432177183773  0.6287907445859702  0.24428818363183785  1.0000
  H   H7        1.0  0.693428122318572  0.1287767338395014  0.2557123040877158  1.0000
  H   H8        1.0  0.306565195227165  0.37121695247950026  0.7557117391267596  1.0000
  H   H9        1.0  0.5837767406713539  0.1462561764979355  0.7576094723440789  1.0000
  H   H10       1.0  0.41624629503363053  0.35374331320175406  0.2576035674854822  1.0000
  H   H11       1.0  0.41620495531753227  0.8537301289041254  0.2423936888371899  1.0000
  H   H12       1.0  0.5837810122045752  0.6462636357314581  0.7423936566193774  1.0000
  H   H13       1.0  0.8806829810882705  0.032001237743422506  0.7741580510951139  1.0000
  H   H14       1.0  0.11933575624063757  0.46799518841935855  0.2741525752789046  1.0000
  H   H15       1.0  0.11930723949470944  0.967990300483834  0.225847269077029  1.0000
  H   H16       1.0  0.8806626257600243  0.5320081267285134  0.7258489667103518  1.0000
  H   H17       1.0  0.9394692773678699  0.17449001027269875  0.7087996246806301  1.0000
  H   H18       1.0  0.06055524423795331  0.32551133584680514  0.20879385909668005  1.0000
  H   H19       1.0  0.060521913064121774  0.8255047712328932  0.2912051557509514  1.0000
  H   H20       1.0  0.9394546510104577  0.674491691550429  0.791202825228446  1.0000
  H   H21       1.0  0.9345482685743249  0.07977292872267581  0.5882906175967832  1.0000
  H   H22       1.0  0.06545907685593019  0.4202248760050438  0.08828382388976051  1.0000
  H   H23       1.0  0.06545281886392479  0.9202161595771586  0.411714702597422  1.0000
  H   H24       1.0  0.9345531211003218  0.5797780938450218  0.9117134001832101  1.0000
  H   H25       1.0  0.7339080356067457  0.8905014543402673  0.49887541447950673  1.0000
  H   H26       1.0  0.2660953789709453  0.6095009949532724  0.9988713579038803  1.0000
  H   H27       1.0  0.26609434497044754  0.1094919583310485  0.5011293659749826  1.0000
  H   H28       1.0  0.7339072453106468  0.3905087491977923  0.0011264058935083001  1.0000
  C   C1        1.0  0.3029215242809897  0.781848452410003  0.6369186608310714  1.0000
  C   C2        1.0  0.6970868467154645  0.7181539394502822  0.13691441250094985  1.0000
  C   C3        1.0  0.6970841685313118  0.21814052079337637  0.363086659372641  1.0000
  C   C4        1.0  0.30291250509256434  0.2818526189738223  0.8630855102615486  1.0000
  C   C5        1.0  0.406008430498119  0.8801176962094533  0.6901111121764673  1.0000
  C   C6        1.0  0.5939833204452752  0.6198854213712508  0.19010478612702295  1.0000
  C   C7        1.0  0.5939969389617729  0.1198701958976258  0.3098925887970979  1.0000
  C   C8        1.0  0.40598940856235544  0.3801174457066382  0.8098929776074331  1.0000
  C   C9        1.0  0.6409751761963277  0.9894374109146895  0.6743133353630173  1.0000
  C   C10       1.0  0.35902654589069977  0.5105642761153959  0.17430492247822832  1.0000
  C   C11       1.0  0.3590137115486343  0.010557428139137001  0.3256914450638106  1.0000
  C   C12       1.0  0.6409724823775065  0.4894412012029291  0.825688523366239  1.0000
  C   C13       1.0  0.7693317958060035  0.09185553766533869  0.7313221991613048  1.0000
  C   C14       1.0  0.23068101052787435  0.4081396976241011  0.23131932309237876  1.0000
  C   C15       1.0  0.23065547538513442  0.9081338959175512  0.2686798825458041  1.0000
  C   C16       1.0  0.769335752999254  0.5918707823222747  0.7686741227895696  1.0000
  C   C17       1.0  0.7558537530164314  0.9949299428789334  0.6036547252270739  1.0000
  C   C18       1.0  0.24415500062207235  0.5050744236747777  0.10364907402029641  1.0000
  C   C19       1.0  0.2441364675457294  0.005061595347264401  0.3963500552019711  1.0000
  C   C20       1.0  0.7558522291585134  0.49493520538614894  0.8963519282451886  1.0000
  C   C21       1.0  0.643504932981365  0.8911958070318063  0.553768180317377  1.0000
  C   C22       1.0  0.3564956894165833  0.6088095608340965  0.053761948150899706  1.0000
  C   C23       1.0  0.35649845706062416  0.1087932237155798  0.4462349809091891  1.0000
  C   C24       1.0  0.6435026527392509  0.39120137950444445  0.9462347361516309  1.0000
  Br  Br1       1.0  0.21623607132090678  0.3880035492477986  0.6006989564238482  1.0000
  Br  Br2       1.0  0.7837754646231971  0.11200511489391832  0.10069773043809961  1.0000
  Br  Br3       1.0  0.7838063389396623  0.6119452960625651  0.39929233052863117  1.0000
  Br  Br4       1.0  0.21618575654255062  0.8880601225973875  0.8992886986777151  1.0000
  N   N1        1.0  0.4211262126259144  0.7853136954421986  0.5696183387990956  1.0000
  N   N2        1.0  0.5788821778852763  0.7146981058047926  0.0696130608438708  1.0000
  N   N3        1.0  0.5788682899370768  0.21467664659019192  0.4303842826662177  1.0000
  N   N4        1.0  0.421129577767111  0.28532665855050254  0.9303830837455679  1.0000
