data_image0
_chemical_formula_structural       Zn6H18C50S10O54F14
_chemical_formula_sum              "Zn6 H18 C50 S10 O54 F14"
_cell_length_a       18.39528827238863
_cell_length_b       18.880429064518307
_cell_length_c       18.688606929169367
_cell_angle_alpha    109.74090807923044
_cell_angle_beta     108.96586754774583
_cell_angle_gamma    109.4040713565452

_space_group_name_H-M_alt    "P 1"
_space_group_IT_number       1

loop_
  _space_group_symop_operation_xyz
  'x, y, z'

loop_
  _atom_site_type_symbol
  _atom_site_label
  _atom_site_symmetry_multiplicity
  _atom_site_fract_x
  _atom_site_fract_y
  _atom_site_fract_z
  _atom_site_occupancy
  Zn  Zn1       1.0  0.9325626834195121  0.997977661070145  0.4400692322417469  1.0000
  Zn  Zn2       1.0  0.06640047339246992  0.007058435258137799  0.567543746424704  1.0000
  Zn  Zn3       1.0  0.056884254622545434  0.5582113988756988  0.9990239948017176  1.0000
  Zn  Zn4       1.0  0.9271582001622393  0.43575499014932717  0.004201110985455577  1.0000
  Zn  Zn5       1.0  0.49731451135989607  0.4263483910471209  0.42547393014041285  1.0000
  Zn  Zn6       1.0  0.5008382052643725  0.556827564957409  0.5517269417558025  1.0000
  H   H1        1.0  0.2488963507627915  0.15280498425704536  0.5280961273743827  1.0000
  H   H2        1.0  0.9857554559928304  0.08612718147450239  0.881906348414631  1.0000
  H   H3        1.0  0.20035627716655574  0.2750037709721127  0.26290696360648974  1.0000
  H   H4        1.0  0.002037260260578872  0.18695801066699147  0.4833852796800925  1.0000
  H   H5        1.0  0.9547457482432197  0.5860310338522083  0.34046991074140476  1.0000
  H   H6        1.0  0.9481046213689909  0.9217882698144918  0.1786017466687965  1.0000
  H   H7        1.0  0.8171579673795507  0.8044087856021845  0.30933206499172883  1.0000
  H   H8        1.0  0.7488520190757131  0.3818657510858118  0.5265740791152638  1.0000
  H   H9        1.0  0.7959031244491116  0.09506273435408728  0.6661350684484404  1.0000
  H   H10       1.0  0.044000390122654665  0.32949072332847607  0.6015145905966575  1.0000
  H   H11       1.0  0.36608123661814324  0.2461457912983107  0.5099943868717814  1.0000
  H   H12       1.0  0.06099575002247783  0.8012908367318372  0.15953657388259043  1.0000
  H   H13       1.0  0.9498785764124168  0.22959525008676707  0.6233152770271815  1.0000
  H   H14       1.0  0.624956204552639  0.5856963772680288  0.325350059185581  1.0000
  H   H15       1.0  0.6959916744530473  0.4721953434001733  0.8719589152686139  1.0000
  H   H16       1.0  0.596978467417749  0.4931527313987658  0.762459670162606  1.0000
  H   H17       1.0  0.8653506704322993  0.49413361780371895  0.7572303978317192  1.0000
  H   H18       1.0  0.281488992596138  0.37815340945478215  0.8943521401482852  1.0000
  C   C1        1.0  0.09103874468206641  0.1263882383487243  0.48468928774207126  1.0000
  C   C2        1.0  0.15719193436819268  0.19266016868229488  0.4782828585029363  1.0000
  C   C3        1.0  0.024560789795657505  0.7513963921629099  0.33479111897732133  1.0000
  C   C4        1.0  0.007611548214086389  0.11370060935053058  0.6355432391173607  1.0000
  C   C5        1.0  0.025861900473785115  0.691866261241607  0.26655267044108644  1.0000
  C   C6        1.0  0.03685445241521275  0.7073072519911463  0.20171544227767407  1.0000
  C   C7        1.0  0.050268336302799775  0.7867467699289464  0.20808243124710657  1.0000
  C   C8        1.0  0.04961789165010807  0.8471034293981604  0.275546772512854  1.0000
  C   C9        1.0  0.03784832106802572  0.8313711828196375  0.34074574748039765  1.0000
  C   C10       1.0  0.8182861368812054  0.7901592480047697  0.5415639220942693  1.0000
  C   C11       1.0  0.7600728759506624  0.7213994848248576  0.5431076342973354  1.0000
  C   C12       1.0  0.01595963690841977  0.32336004203190066  0.8216465636517112  1.0000
  C   C13       1.0  0.689435369171875  0.647331864485196  0.465665661050643  1.0000
  C   C14       1.0  0.6780523936823217  0.6441838109016019  0.38656593997750116  1.0000
  C   C15       1.0  0.7315454273259193  0.7153460674622778  0.3849500013848297  1.0000
  C   C16       1.0  0.864475726126365  0.8712852366849475  0.4696699708241994  1.0000
  C   C17       1.0  0.80335730465616  0.7912467120009197  0.46337470177216017  1.0000
  C   C18       1.0  0.8526842165166073  0.4775856336973518  0.8891707865833212  1.0000
  C   C19       1.0  0.01400463372684863  0.39711734254054676  0.8894087492146239  1.0000
  C   C20       1.0  0.08467075212822547  0.4777916691308945  0.12150573057797226  1.0000
  C   C21       1.0  0.02741079583604728  0.6387944975506199  0.12391613989419162  1.0000
  C   C22       1.0  0.3915633980263565  0.5250304405945059  0.39831858171697826  1.0000
  C   C23       1.0  0.012542169253819683  0.2504406187201624  0.8510890233928732  1.0000
  C   C24       1.0  0.36470061986078417  0.35647589577934713  0.4534914352261055  1.0000
  C   C25       1.0  0.6042822425856684  0.5014475877719632  0.625276047636049  1.0000
  C   C26       1.0  0.622604570736712  0.5775036516445197  0.46776033949310386  1.0000
  C   C27       1.0  0.7100971329970563  0.47952288053522807  0.8217839601107214  1.0000
  C   C28       1.0  0.03535365239065401  0.8976294641818611  0.41195127473655185  1.0000
  C   C29       1.0  0.6544912893936189  0.49039557332914535  0.7601888314116749  1.0000
  C   C30       1.0  0.6705510173461279  0.49713234100084236  0.6937931218968812  1.0000
  C   C31       1.0  0.7459284475736467  0.4953213610929978  0.691856936431705  1.0000
  C   C32       1.0  0.8047232298323691  0.4903606968290075  0.7565266918652538  1.0000
  C   C33       1.0  0.7862735996469539  0.4810393366796219  0.8208328653095902  1.0000
  C   C34       1.0  0.09535795378394593  0.3550909082763595  0.8024310510496659  1.0000
  C   C35       1.0  0.19191617640053948  0.43007352324610787  0.17824951256010724  1.0000
  C   C36       1.0  0.2703627536583824  0.4461010648646137  0.24173398886158268  1.0000
  C   C37       1.0  0.3163536045905104  0.5170595476427238  0.3274325210156873  1.0000
  C   C38       1.0  0.2821637802040727  0.573694016188931  0.34362741194467356  1.0000
  C   C39       1.0  0.20603085940025057  0.5591694777143983  0.2780873351583465  1.0000
  C   C40       1.0  0.9327347629536649  0.20448445830195539  0.6638161208895924  1.0000
  C   C41       1.0  0.15912363342020083  0.48674577403389196  0.19493059875827598  1.0000
  C   C42       1.0  0.9288668006409396  0.27476064224105545  0.7333268915675929  1.0000
  C   C43       1.0  0.9969849167235125  0.164744764108427  0.7798755435894974  1.0000
  C   C44       1.0  0.09557401744144296  0.27088667284737505  0.7497330061267035  1.0000
  C   C45       1.0  0.2385537614513353  0.19428920581017914  0.502062814013712  1.0000
  C   C46       1.0  0.005187697363290088  0.1836477531539842  0.7070882909321907  1.0000
  C   C47       1.0  0.30289593386464025  0.24504831554268952  0.49058806166233637  1.0000
  C   C48       1.0  0.2868518347466917  0.29440588840152054  0.4526934775064717  1.0000
  C   C49       1.0  0.2049824701529488  0.29278276906175904  0.4271216843153879  1.0000
  C   C50       1.0  0.14150245613976153  0.24512970518991037  0.44337018143684753  1.0000
  S   S1        1.0  0.21197435984535665  0.44704473003034195  0.9104743238975527  1.0000
  S   S2        1.0  0.09574939273957742  0.4212108694003049  0.7373162702050349  1.0000
  S   S3        1.0  0.07596939322962729  0.12499048722843037  0.8390590482749117  1.0000
  S   S4        1.0  0.17961394729342564  0.3452369649321127  0.3646430317584119  1.0000
  S   S5        1.0  0.047290643479762154  0.26279970043736256  0.4290573932814252  1.0000
  S   S6        1.0  0.0038880054837944827  0.7222251016681226  0.41184395604118845  1.0000
  S   S7        1.0  0.06838947798482999  0.9460295217927663  0.2750419990039814  1.0000
  S   S8        1.0  0.6980119623973025  0.7002765844954837  0.2765022277090381  1.0000
  S   S9        1.0  0.7777814334369354  0.5066524089294049  0.613567051773586  1.0000
  S   S10       1.0  0.884956248899947  0.0603075997924591  0.7284149757429788  1.0000
  O   O1        1.0  0.007234483977626382  0.09437254964090869  0.4325584931016308  1.0000
  O   O2        1.0  0.41935982373283304  0.5792213024857986  0.47799667109534016  1.0000
  O   O3        1.0  0.3950273491585179  0.32639836650071885  0.40519877889408207  1.0000
  O   O4        1.0  0.11999816140315292  0.10282586821520569  0.5379272059594483  1.0000
  O   O5        1.0  0.396660230252742  0.43476991109203306  0.5087398415818284  1.0000
  O   O6        1.0  0.5747414527140153  0.4467529097845642  0.54675209172877  1.0000
  O   O7        1.0  0.5807440889090146  0.5575933169969999  0.6518931523759406  1.0000
  O   O8        1.0  0.5915456887904682  0.49813587918558977  0.4120854250681063  1.0000
  O   O9        1.0  0.5996778215413913  0.6042559474754154  0.5238496429264146  1.0000
  O   O10       1.0  0.9560504747263892  0.08875281144644016  0.5573304470066203  1.0000
  O   O11       1.0  0.06534842254763622  0.09258782857459379  0.662818476796943  1.0000
  O   O12       1.0  0.8251998190771842  0.43007066362980584  0.9206786454359557  1.0000
  O   O13       1.0  0.8327276501468076  0.8941028166008633  0.4139123425106772  1.0000
  O   O14       1.0  0.9441323165833422  0.9139533638867687  0.529696949390839  1.0000
  O   O15       1.0  0.9741121037968485  0.9143432039933329  0.38475293295503116  1.0000
  O   O16       1.0  0.0936201838321793  0.9312651447036161  0.4913170965473839  1.0000
  O   O17       1.0  0.933070523891594  0.5226481319396539  0.9108537890622442  1.0000
  O   O18       1.0  0.22987339451209718  0.5287566081934969  0.9161595045179708  1.0000
  O   O19       1.0  0.21424901628806484  0.43281135265843323  0.9814964807269249  1.0000
  O   O20       1.0  0.2797573762260869  0.42560249153139307  0.8845194779103379  1.0000
  O   O21       1.0  0.040192859365234306  0.036423222145330704  0.7759467830914628  1.0000
  O   O22       1.0  0.1680579011904229  0.18624610815359688  0.8835115577162538  1.0000
  O   O23       1.0  0.07003251646988665  0.47415807834289575  0.9154880487810357  1.0000
  O   O24       1.0  0.05025390867754708  0.13027572532832468  0.9129179050372898  1.0000
  O   O25       1.0  0.08758667080514468  0.29215317088325315  0.29925479786882647  1.0000
  O   O26       1.0  0.2213943997499968  0.43672117348860706  0.41966265705393363  1.0000
  O   O27       1.0  0.2355384776107741  0.3325906677691676  0.31518098636593084  1.0000
  O   O28       1.0  0.0796110226145004  0.3534192634966473  0.45989750408813274  1.0000
  O   O29       1.0  0.9702932453674935  0.19587284099274163  0.34695243493165145  1.0000
  O   O30       1.0  0.03094517824935385  0.25066015205433695  0.5055646209973189  1.0000
  O   O31       1.0  0.08297945507387532  0.7286437811380891  0.4688702056581134  1.0000
  O   O32       1.0  0.9608392874120426  0.7658380190109567  0.4425892971260052  1.0000
  O   O33       1.0  0.9276623932186255  0.6226201059574732  0.3504756148716339  1.0000
  O   O34       1.0  0.9556847599477224  0.37433932851001117  0.9107074889340367  1.0000
  O   O35       1.0  0.12129564155036829  0.015325728419931298  0.36393796231827474  1.0000
  O   O36       1.0  0.09446337264120049  0.9470560352886607  0.2105373322863712  1.0000
  O   O37       1.0  0.9715729042414766  0.9373958267944218  0.24016439569660963  1.0000
  O   O38       1.0  0.6550555716902197  0.6090070402787405  0.21733474356508958  1.0000
  O   O39       1.0  0.6544255611844036  0.7494016858274152  0.2649976892705793  1.0000
  O   O40       1.0  0.7893412075572998  0.7406874133300434  0.27582678612563427  1.0000
  O   O41       1.0  0.7534618959942067  0.5638426964257164  0.5911502014782286  1.0000
  O   O42       1.0  0.8667401323397784  0.5210120032476552  0.6434298154586953  1.0000
  O   O43       1.0  0.7131893583923699  0.41044638557966096  0.5283033395305735  1.0000
  O   O44       1.0  0.8724234753357437  0.005523425818459802  0.6455180174828782  1.0000
  O   O45       1.0  0.11000174970002517  0.52584155630651  0.091343992810117  1.0000
  O   O46       1.0  0.8866743509964367  0.032999803586605495  0.7920477537754136  1.0000
  O   O47       1.0  0.8080845724913531  0.08286854964689638  0.7148716398283382  1.0000
  O   O48       1.0  0.06810430184275866  0.4811627792676134  0.7696418262706857  1.0000
  O   O49       1.0  0.17906967599341064  0.44525925473069344  0.7390440778527462  1.0000
  O   O50       1.0  0.019564631200516668  0.3520430814879206  0.638649611736973  1.0000
  O   O51       1.0  0.004592900648901741  0.42448567649756797  0.09551560180864266  1.0000
  O   O52       1.0  0.07661939239304144  0.6631937288604205  0.09193049459083362  1.0000
  O   O53       1.0  0.9690932353818412  0.5621662304525046  0.09456275870693545  1.0000
  O   O54       1.0  0.4214638411935426  0.47503993479814  0.37500545454408746  1.0000
  F   F1        1.0  0.8472910901084418  0.1320313822387362  0.6078324345201194  1.0000
  F   F2        1.0  0.17781523679301603  0.6174942233675224  0.2955476917474654  1.0000
  F   F3        1.0  0.8563347781524656  0.23751266545927044  0.7415070565107198  1.0000
  F   F4        1.0  0.9487503106693611  0.22932848481963933  0.874475033966199  1.0000
  F   F5        1.0  0.16232288884481247  0.26403859774184457  0.8011372397443706  1.0000
  F   F6        1.0  0.11148147606607485  0.27128232232459476  0.6824059472121602  1.0000
  F   F7        1.0  0.09102011491734169  0.28780674751642715  0.9243828877986642  1.0000
  F   F8        1.0  0.017242550649186127  0.6171713797245957  0.26418835685716147  1.0000
  F   F9        1.0  0.8867979744311326  0.8562475893592489  0.6192337748185321  1.0000
  F   F10       1.0  0.776165487605276  0.7301387282786747  0.6217430634802525  1.0000
  F   F11       1.0  0.14865739210213746  0.3594818450053053  0.09823752697327849  1.0000
  F   F12       1.0  0.915399083502642  0.3306996200066549  0.7063676064508184  1.0000
  F   F13       1.0  0.2976103922844472  0.388838779741178  0.2165859653714292  1.0000
  F   F14       1.0  0.32198980001889044  0.6444282511556664  0.42221926420415196  1.0000
