data_image0
_chemical_formula_structural       Cu4H40C24N16O32
_chemical_formula_sum              "Cu4 H40 C24 N16 O32"
_cell_length_a       6.241346741778431
_cell_length_b       14.480852592881302
_cell_length_c       14.481298844758982
_cell_angle_alpha    90.00021858845885
_cell_angle_beta     90.00119845056614
_cell_angle_gamma    89.9987202382173

_space_group_name_H-M_alt    "P 1"
_space_group_IT_number       1

loop_
  _space_group_symop_operation_xyz
  'x, y, z'

loop_
  _atom_site_type_symbol
  _atom_site_label
  _atom_site_symmetry_multiplicity
  _atom_site_fract_x
  _atom_site_fract_y
  _atom_site_fract_z
  _atom_site_occupancy
  Cu  Cu1       1.0  0.9999906582269347  0.13378439559163977  0.1337822997159606  1.0000
  Cu  Cu2       1.0  0.500010655545438  0.8662092275355562  0.8662191107868651  1.0000
  Cu  Cu3       1.0  0.24998028138443126  0.633785349599371  0.3662126237208838  1.0000
  Cu  Cu4       1.0  0.7500087543994313  0.36621488869474217  0.6337843752543506  1.0000
  H   H1        1.0  0.36230871794384717  0.3251197238774922  0.2436779718523496  1.0000
  H   H2        1.0  0.8623545843815421  0.6748766414966668  0.7563235312505511  1.0000
  H   H3        1.0  0.8876541763578345  0.8251167162264039  0.2563287300820889  1.0000
  H   H4        1.0  0.387704915222308  0.17488975705142445  0.7436771535554669  1.0000
  H   H5        1.0  0.13769933517482974  0.7563186434178348  0.6748876827209571  1.0000
  H   H6        1.0  0.6376683076500456  0.2436813241548066  0.3251165516446335  1.0000
  H   H7        1.0  0.6122938864699209  0.7436772753679648  0.1748898396541563  1.0000
  H   H8        1.0  0.11234432015722012  0.2563319203559544  0.8251155384225441  1.0000
  H   H9        1.0  0.967002855744667  0.8285018227295923  0.0720327937880398  1.0000
  H   H10       1.0  0.4670287213596965  0.17149696048161903  0.9279676174608652  1.0000
  H   H11       1.0  0.2829806966141817  0.3285001028767029  0.42796494405054375  1.0000
  H   H12       1.0  0.7829796780211851  0.6714963564596276  0.5720330541887435  1.0000
  H   H13       1.0  0.5329601280508669  0.9279706771775197  0.1714937156597003  1.0000
  H   H14       1.0  0.0329783553776721  0.0720351596547175  0.8285067764702133  1.0000
  H   H15       1.0  0.2170281282358388  0.5720266097967439  0.6714853833585508  1.0000
  H   H16       1.0  0.7170168065831249  0.4279698110813825  0.3285099259198176  1.0000
  H   H17       1.0  0.9225660346933822  0.856820432805499  0.9565700102833786  1.0000
  H   H18       1.0  0.4225632552044233  0.1431780993129905  0.0434265322008756  1.0000
  H   H19       1.0  0.32743622422019314  0.35682233079262454  0.5434272249465906  1.0000
  H   H20       1.0  0.8274296419081042  0.6431771418822905  0.45657118934865076  1.0000
  H   H21       1.0  0.5774224972797413  0.0434292536737857  0.1431722632432226  1.0000
  H   H22       1.0  0.07743109121273051  0.9565692379434125  0.8568286449678765  1.0000
  H   H23       1.0  0.17255760486845872  0.4565639608755917  0.64316774369491  1.0000
  H   H24       1.0  0.6725562029085596  0.5434335901970684  0.3568292210528199  1.0000
  H   H25       1.0  0.18873391893175306  0.9508268070484789  0.2296271270883068  1.0000
  H   H26       1.0  0.6887302790763811  0.0491553916297747  0.7703713701115547  1.0000
  H   H27       1.0  0.0612381363010925  0.45082794981754404  0.270365707049443  1.0000
  H   H28       1.0  0.5612442328334808  0.5491852037049227  0.7296205482406607  1.0000
  H   H29       1.0  0.31125589048951247  0.7703634165040542  0.049151832080376295  1.0000
  H   H30       1.0  0.8112403587584681  0.22963276330848006  0.9508236427176016  1.0000
  H   H31       1.0  0.43872665543444367  0.72963133200318  0.5491544624728917  1.0000
  H   H32       1.0  0.9387450130303991  0.270364968515146  0.4508332542641185  1.0000
  H   H33       1.0  0.22395703379194742  0.27434621718760616  0.1144616081658185  1.0000
  H   H34       1.0  0.7239951560853085  0.7256494443859582  0.8855399811048912  1.0000
  H   H35       1.0  0.026015909516353  0.7743431346816151  0.3855395299136504  1.0000
  H   H36       1.0  0.5260345457875532  0.2256593179748165  0.6144636594013094  1.0000
  H   H37       1.0  0.27604721075319827  0.885538348348355  0.7256609560488059  1.0000
  H   H38       1.0  0.7760347488906734  0.11446301357216981  0.2743411205279003  1.0000
  H   H39       1.0  0.4739515852559251  0.6144619075490283  0.2256647780122307  1.0000
  H   H40       1.0  0.9739712243535693  0.38554440322854333  0.7743350077119119  1.0000
  C   C1        1.0  0.005839063145188602  0.9667898062900449  0.03946587268580971  1.0000
  C   C2        1.0  0.5058627285646438  0.0332100835530369  0.9605343656218182  1.0000
  C   C3        1.0  0.24413218750158452  0.46678227017138607  0.4605318561398235  1.0000
  C   C4        1.0  0.7441334170245498  0.5332145732411532  0.539465087966903  1.0000
  C   C5        1.0  0.4941311256963986  0.9605322239640584  0.0332090387359401  1.0000
  C   C6        1.0  0.9941403477186768  0.03946698168520162  0.9667923168855097  1.0000
  C   C7        1.0  0.2558474715929436  0.5394603920232441  0.5332085416003807  1.0000
  C   C8        1.0  0.7558649955557045  0.4605377166132243  0.4667871311412384  1.0000
  C   C9        1.0  0.22712270072738514  0.2001375183068532  0.295338212761294  1.0000
  C   C10       1.0  0.7271550469534915  0.799860183696758  0.704662715569171  1.0000
  C   C11       1.0  0.0228523816912087  0.7001448259728704  0.2046495219237841  1.0000
  C   C12       1.0  0.5229125709636904  0.2998624917157072  0.795348804165691  1.0000
  C   C13       1.0  0.27292597285472914  0.7046541283082847  0.7998618136096383  1.0000
  C   C14       1.0  0.7728640755673554  0.29534657415264576  0.20014230515899104  1.0000
  C   C15       1.0  0.4770939107640047  0.7953546974044415  0.2998601399352623  1.0000
  C   C16       1.0  0.977149650227581  0.20464951043503277  0.7001445091845825  1.0000
  C   C17       1.0  0.383190346236951  0.2511999117941102  0.2289244177193481  1.0000
  C   C18       1.0  0.8832315718440071  0.7487969377222046  0.771080042985055  1.0000
  C   C19       1.0  0.8667858886186153  0.7511964762495892  0.2710778590496972  1.0000
  C   C20       1.0  0.3668274049846474  0.24880951282534616  0.7289264481379192  1.0000
  C   C21       1.0  0.11683660174387711  0.7710687097065616  0.7488077782229681  1.0000
  C   C22       1.0  0.6167964587837816  0.2289273207776574  0.2511976419217632  1.0000
  C   C23       1.0  0.6331712858387775  0.7289281816266637  0.24880938368198002  1.0000
  C   C24       1.0  0.13321592320185974  0.2710814982842961  0.7511975708596522  1.0000
  N   N1        1.0  0.06568087701942461  0.0018616723044928996  0.11959248415033838  1.0000
  N   N2        1.0  0.5656841912106927  0.9981334825921666  0.8804090046811837  1.0000
  N   N3        1.0  0.18430099909085132  0.5018632204114298  0.3804000186385821  1.0000
  N   N4        1.0  0.684314146700146  0.4981349050448428  0.619593603360272  1.0000
  N   N5        1.0  0.4343048015013339  0.8804051007890551  0.9981351743862844  1.0000
  N   N6        1.0  0.9343017932138621  0.1195953869752202  0.0018628590598054999  1.0000
  N   N7        1.0  0.3156746685782821  0.6195920514529263  0.4981299386362039  1.0000
  N   N8        1.0  0.8156834506531611  0.3804033940267928  0.5018676750965767  1.0000
  N   N9        1.0  0.9573662589032281  0.879453194269985  0.0217486822782789  1.0000
  N   N10       1.0  0.4573665985729037  0.1205477560374462  0.978248185933758  1.0000
  N   N11       1.0  0.29262593964614336  0.37945364265818426  0.4782444161281063  1.0000
  N   N12       1.0  0.792613927647679  0.6205468647648189  0.5217488385204092  1.0000
  N   N13       1.0  0.5426158432169572  0.9782514114506781  0.12054469755392462  1.0000
  N   N14       1.0  0.042618155424499087  0.0217494960289315  0.8794572659552173  1.0000
  N   N15       1.0  0.20736843261456536  0.5217463717043884  0.6205353925320338  1.0000
  N   N16       1.0  0.7073681694326767  0.4782494540570993  0.3794605169339675  1.0000
  O   O1        1.0  0.0597916461878825  0.938127844833943  0.1923363360689905  1.0000
  O   O2        1.0  0.5598003218816103  0.061867368258091915  0.8076630260307879  1.0000
  O   O3        1.0  0.1901842538034373  0.4381313078794307  0.307658521290918  1.0000
  O   O4        1.0  0.6902007875935824  0.5618695216616559  0.6923351557925628  1.0000
  O   O5        1.0  0.4401809474450786  0.8076575688215683  0.0618695978669379  1.0000
  O   O6        1.0  0.9401891341705381  0.1923421702304182  0.9381319433561756  1.0000
  O   O7        1.0  0.30980219202759685  0.6923344659279848  0.5618653549808741  1.0000
  O   O8        1.0  0.8098036560636644  0.30765827538505874  0.43813496593292456  1.0000
  O   O9        1.0  0.09649944410900703  0.13898976976567926  0.2633541658988605  1.0000
  O   O10       1.0  0.5965285977859835  0.8610106048484596  0.7366510642352253  1.0000
  O   O11       1.0  0.15348993741636724  0.6389896928513253  0.236636788332234  1.0000
  O   O12       1.0  0.6535279255054931  0.36101702392001306  0.7633613792473284  1.0000
  O   O13       1.0  0.403534623476503  0.7366337605115661  0.8610158401814657  1.0000
  O   O14       1.0  0.903484302207467  0.2633601260564901  0.13899295377348858  1.0000
  O   O15       1.0  0.3464801038721035  0.7633663212016444  0.36101627479919074  1.0000
  O   O16       1.0  0.8465137513226608  0.2366377969734685  0.6389892233900341  1.0000
  O   O17       1.0  0.23249952839228882  0.2224975223267762  0.37884598336547975  1.0000
  O   O18       1.0  0.7325339107300977  0.7775077227566597  0.6211612102248196  1.0000
  O   O19       1.0  0.017464813773088405  0.722496968358577  0.1211563380037362  1.0000
  O   O20       1.0  0.5175572654994341  0.2774993533698904  0.8788453905204108  1.0000
  O   O21       1.0  0.2675777491767874  0.6211452169657081  0.7774879456107939  1.0000
  O   O22       1.0  0.7674870496859684  0.3788520856541808  0.2225030025904289  1.0000
  O   O23       1.0  0.48244910176141076  0.8788517837256792  0.2774990703547502  1.0000
  O   O24       1.0  0.9825261172881667  0.12115789559801729  0.7225049384505765  1.0000
  O   O25       1.0  0.3431218628236722  0.23409112738015375  0.1328796359042386  1.0000
  O   O26       1.0  0.843166709073998  0.7659005937346277  0.8671258308826991  1.0000
  O   O27       1.0  0.9068552347911311  0.7340869715912535  0.3671246472468397  1.0000
  O   O28       1.0  0.40687538301998677  0.2659165497279261  0.6328793443145813  1.0000
  O   O29       1.0  0.1568964459876838  0.8671181374718202  0.7659178019948527  1.0000
  O   O30       1.0  0.6568635520015534  0.1328795686155146  0.23408937421394427  1.0000
  O   O31       1.0  0.5931234557721723  0.6328760568130607  0.2659159040251993  1.0000
  O   O32       1.0  0.09314322472010161  0.3671278040553999  0.7340865322912862  1.0000
