data_image0
_chemical_formula_structural       Ba2H24C16S4N8O14
_chemical_formula_sum              "Ba2 H24 C16 S4 N8 O14"
_cell_length_a       9.08903923744275
_cell_length_b       9.24405255843237
_cell_length_c       10.185940451857
_cell_angle_alpha    105.47561077432584
_cell_angle_beta     97.88059160767708
_cell_angle_gamma    104.25766151590578

_space_group_name_H-M_alt    "P 1"
_space_group_IT_number       1

loop_
  _space_group_symop_operation_xyz
  'x, y, z'

loop_
  _atom_site_type_symbol
  _atom_site_label
  _atom_site_symmetry_multiplicity
  _atom_site_fract_x
  _atom_site_fract_y
  _atom_site_fract_z
  _atom_site_occupancy
  Ba  Ba1       1.0  0.19347440110457367  0.4878820055040762  0.6362025188360005  1.0000
  Ba  Ba2       1.0  0.8065300060807347  0.5121179620904216  0.3637990126135902  1.0000
  H   H1        1.0  0.4038859682344338  0.563656696448284  0.9837816521093711  1.0000
  H   H2        1.0  0.5961163845949854  0.4363397280432509  0.01621581249391109  1.0000
  H   H3        1.0  0.0705452317699269  0.6838386229984935  0.1908296803619364  1.0000
  H   H4        1.0  0.9294650762407245  0.3161660997690774  0.809166910964869  1.0000
  H   H5        1.0  0.37974013162489945  0.4805254837916454  0.3699768719841997  1.0000
  H   H6        1.0  0.6202571488364726  0.5194767274540769  0.6300232399165394  1.0000
  H   H7        1.0  0.05551763908044189  0.2356198449366929  0.9960243706917069  1.0000
  H   H8        1.0  0.9444801648184509  0.7643847233585319  0.003984227214075935  1.0000
  H   H9        1.0  0.4003260298766094  0.030892865754609002  0.05724701639720558  1.0000
  H   H10       1.0  0.5996772583258263  0.9691105911650484  0.9427483183094123  1.0000
  H   H11       1.0  0.3091039075708649  0.1424144717213878  0.681756843556087  1.0000
  H   H12       1.0  0.6908742165578801  0.8575745970075773  0.3182326289162488  1.0000
  H   H13       1.0  0.9096922411753142  0.17130645106082198  0.37733667009727156  1.0000
  H   H14       1.0  0.09031626111877968  0.8286924035305249  0.6226671184363326  1.0000
  H   H15       1.0  0.0257761712568936  0.2313440671623397  0.2919858632428145  1.0000
  H   H16       1.0  0.9742302423969847  0.768651246012084  0.7080158179078848  1.0000
  H   H17       1.0  0.44541440898434104  0.2779700902830982  0.4835749059268294  1.0000
  H   H18       1.0  0.5545885913404831  0.7220251809157787  0.5164302278784516  1.0000
  H   H19       1.0  0.2820736215208157  0.22887126325997545  0.39415203180165287  1.0000
  H   H20       1.0  0.7179298638944545  0.7711298711154698  0.6058575061531853  1.0000
  H   H21       1.0  0.43213992267882867  0.864373139071084  0.6841625593129235  1.0000
  H   H22       1.0  0.5678600933946002  0.1356267646878493  0.31583443151352947  1.0000
  H   H23       1.0  0.31550492510488937  0.7641497091602218  0.5355526358464997  1.0000
  H   H24       1.0  0.6844951464577703  0.23584668762862293  0.4644474571037306  1.0000
  C   C1        1.0  0.2319380086608831  0.6345879947112395  0.07347910492513418  1.0000
  C   C2        1.0  0.7680727365529094  0.3654143937098696  0.9265179734060424  1.0000
  C   C3        1.0  0.21418458475524466  0.5877825976657861  0.29513941952717454  1.0000
  C   C4        1.0  0.7858229362168601  0.41222443511762924  0.70486323206903  1.0000
  C   C5        1.0  0.3413066929311626  0.5284741327207458  0.2898088174012868  1.0000
  C   C6        1.0  0.6586900646162518  0.471530417086534  0.7101957061535983  1.0000
  C   C7        1.0  0.4174975977554992  0.5251841051270318  0.17889311104842415  1.0000
  C   C8        1.0  0.5825186570294676  0.47481016219341393  0.8211018069896666  1.0000
  C   C9        1.0  0.22039649782029613  0.12910562679311977  0.04212042677151119  1.0000
  C   C10       1.0  0.7795917563642828  0.8708999730247696  0.957878278807932  1.0000
  C   C11       1.0  0.36964419876763804  0.0731684088229798  0.8641407760169955  1.0000
  C   C12       1.0  0.6303307408812698  0.9268405106734009  0.135846104227788  1.0000
  C   C13       1.0  0.28314579533010686  0.1364399522120507  0.7816995040123798  1.0000
  C   C14       1.0  0.7168475388244316  0.8635481563585189  0.21829573924817675  1.0000
  C   C15       1.0  0.17363819453990453  0.20657923134286454  0.8334438083110738  1.0000
  C   C16       1.0  0.8263414226837043  0.7934192251776865  0.16655006080624438  1.0000
  S   S1        1.0  0.15975140534306584  0.6933619690059204  0.9414547804275413  1.0000
  S   S2        1.0  0.8402553002511651  0.306638025448244  0.05854314294339249  1.0000
  S   S3        1.0  0.16233912998349348  0.09485960185975982  0.18441238392125564  1.0000
  S   S4        1.0  0.8376711094585049  0.9051451242798835  0.8155881263323648  1.0000
  N   N1        1.0  0.3558351027608424  0.5774300433652186  0.07285445716617993  1.0000
  N   N2        1.0  0.6441682928808774  0.4225745996663478  0.9271539381282918  1.0000
  N   N3        1.0  0.1682276133541905  0.6435101038041751  0.18682428550331306  1.0000
  N   N4        1.0  0.8317735791296812  0.35650621180273123  0.8131826545010197  1.0000
  N   N5        1.0  0.1485379630049835  0.2005555500909679  0.9645627712143462  1.0000
  N   N6        1.0  0.8514653847494175  0.7994408954175612  0.03544170693493226  1.0000
  N   N7        1.0  0.33554466278430073  0.07689879969138501  0.9944606555337355  1.0000
  N   N8        1.0  0.6644564510671032  0.9231011200264376  0.005537470448501736  1.0000
  O   O1        1.0  0.1372775898923635  0.5971982377201073  0.39227990564479837  1.0000
  O   O2        1.0  0.8627247381929803  0.4028098921075697  0.6077193537116016  1.0000
  O   O3        1.0  0.5364650827938391  0.47684161177837603  0.1672151909789292  1.0000
  O   O4        1.0  0.46352805873415537  0.5231500105064343  0.8327847880114871  1.0000
  O   O5        1.0  0.47544831694699496  0.011905742386105101  0.8293556931419344  1.0000
  O   O6        1.0  0.5245525866121384  0.9880929962779136  0.1706352506426753  1.0000
  O   O7        1.0  0.09524624392076932  0.27484652215819955  0.7709567508505513  1.0000
  O   O8        1.0  0.9047395646537665  0.7251426582829978  0.22904066771226872  1.0000
  O   O9        1.0  0.9746414292941665  0.2687314993227404  0.36987148199795417  1.0000
  O   O10       1.0  0.025365696361035445  0.7312661616279854  0.6301279081090525  1.0000
  O   O11       1.0  0.34023164216500124  0.2867005821479438  0.49141807135769955  1.0000
  O   O12       1.0  0.6597702089553581  0.7132946756210926  0.50858886648691  1.0000
  O   O13       1.0  0.39884606616609375  0.7616386977090743  0.6060358455535562  1.0000
  O   O14       1.0  0.6011572089569199  0.23836125561256696  0.39396651020365414  1.0000
