data_image0
_chemical_formula_structural       Cu2H18C10N6Cl4
_chemical_formula_sum              "Cu2 H18 C10 N6 Cl4"
_cell_length_a       5.836168470872489
_cell_length_b       8.510327942199421
_cell_length_c       8.890724022065513
_cell_angle_alpha    79.12383357806306
_cell_angle_beta     89.39032135663892
_cell_angle_gamma    80.74386404495304

_space_group_name_H-M_alt    "P 1"
_space_group_IT_number       1

loop_
  _space_group_symop_operation_xyz
  'x, y, z'

loop_
  _atom_site_type_symbol
  _atom_site_label
  _atom_site_symmetry_multiplicity
  _atom_site_fract_x
  _atom_site_fract_y
  _atom_site_fract_z
  _atom_site_occupancy
  Cu  Cu1       1.0  0.7542181119932752  0.4703948919583071  0.11792649851954448  1.0000
  Cu  Cu2       1.0  0.24578583017998318  0.529607190894943  0.8820760706608438  1.0000
  H   H1        1.0  0.670212723981578  0.23780900779470224  0.0030367452996386953  1.0000
  H   H2        1.0  0.32978890179840903  0.7621955394386932  0.996962052413835  1.0000
  H   H3        1.0  0.9496554925511945  0.258473585543662  0.9817934453964482  1.0000
  H   H4        1.0  0.05035357631658134  0.7415285095289478  0.018207939381532912  1.0000
  H   H5        1.0  0.061152180595478015  0.11300178744551201  0.2240651027660832  1.0000
  H   H6        1.0  0.9388460426441085  0.8869954337425411  0.775939489553636  1.0000
  H   H7        1.0  0.9024252886813218  0.9924116173454751  0.13329385355886808  1.0000
  H   H8        1.0  0.0975749038534204  0.007591717740687895  0.8667051682037441  1.0000
  H   H9        1.0  0.5392359024287002  0.11191602124804943  0.2596622165821501  1.0000
  H   H10       1.0  0.4607655934516686  0.8880813432076168  0.7403299410607858  1.0000
  H   H11       1.0  0.7472231729713031  0.9747905105060966  0.38335290482688583  1.0000
  H   H12       1.0  0.2527698427637048  0.02521407738424839  0.6166426078243816  1.0000
  H   H13       1.0  0.7062844587857315  0.10807065661443001  0.6537662790462804  1.0000
  H   H14       1.0  0.2937233975090976  0.8919217657190402  0.34623452932004983  1.0000
  H   H15       1.0  0.7444379538408298  0.3952936916458896  0.6948613725388668  1.0000
  H   H16       1.0  0.25557283918106327  0.6047010896007378  0.30514462244296686  1.0000
  H   H17       1.0  0.7725215253089249  0.5871015521972892  0.4417705513651883  1.0000
  H   H18       1.0  0.2274846033579863  0.41289088349807196  0.5582291492115914  1.0000
  C   C1        1.0  0.8890156797635594  0.10378587938811992  0.18107484710133553  1.0000
  C   C2        1.0  0.11098764207591222  0.8962113801718202  0.8189263069304645  1.0000
  C   C3        1.0  0.7150387582263065  0.09588793441380261  0.310627863373071  1.0000
  C   C4        1.0  0.28495651771272185  0.9041142414014374  0.68936691297408  1.0000
  C   C5        1.0  0.7287255326683065  0.22104777007044876  0.4054956130562317  1.0000
  C   C6        1.0  0.27126661049218376  0.7789531808069369  0.5945005334360332  1.0000
  C   C7        1.0  0.7266816415690441  0.20816861339439902  0.562345553260549  1.0000
  C   C8        1.0  0.2733182390619007  0.7918286598130636  0.4376545121349196  1.0000
  C   C9        1.0  0.7611884919006044  0.45954241171897087  0.45532045391969683  1.0000
  C   C10       1.0  0.23880321701497556  0.5404608463377869  0.5446854252655484  1.0000
  N   N1        1.0  0.8190597175252562  0.24707860405462156  0.06015266113274719  1.0000
  N   N2        1.0  0.18094338364191737  0.7529271160972258  0.9398492933598562  1.0000
  N   N3        1.0  0.7482363807360033  0.3588929466591467  0.5905497935277708  1.0000
  N   N4        1.0  0.2517643162802158  0.6411080158663298  0.4094451302556621  1.0000
  N   N5        1.0  0.7505063329367303  0.37967526143232533  0.3407858015307141  1.0000
  N   N6        1.0  0.24948220105837043  0.6203268109153582  0.6592180669713701  1.0000
  Cl  Cl1       1.0  0.7450653828110985  0.5657475019617024  0.8552710342154982  1.0000
  Cl  Cl2       1.0  0.2549370839749798  0.4342534079730953  0.1447283781857536  1.0000
  Cl  Cl3       1.0  0.6859384428876467  0.736579490637375  0.1502167992150447  1.0000
  Cl  Cl4       1.0  0.31406805387231174  0.2634189546316392  0.8497863654999166  1.0000
