data_image0
_chemical_formula_structural       Cu2H32C22S8N4Cl2
_chemical_formula_sum              "Cu2 H32 C22 S8 N4 Cl2"
_cell_length_a       8.825149276465085
_cell_length_b       9.362287318559817
_cell_length_c       10.105771541738049
_cell_angle_alpha    68.61702025809105
_cell_angle_beta     73.17824025580255
_cell_angle_gamma    89.11518842820252

_space_group_name_H-M_alt    "P 1"
_space_group_IT_number       1

loop_
  _space_group_symop_operation_xyz
  'x, y, z'

loop_
  _atom_site_type_symbol
  _atom_site_label
  _atom_site_symmetry_multiplicity
  _atom_site_fract_x
  _atom_site_fract_y
  _atom_site_fract_z
  _atom_site_occupancy
  Cu  Cu1       1.0  0.8367418420159324  0.495102944593988  0.5366262828439191  1.0000
  Cu  Cu2       1.0  0.163267282830823  0.5049031861832205  0.46337009539254836  1.0000
  H   H1        1.0  0.7677601153784934  0.1089813568998537  0.595258855612535  1.0000
  H   H2        1.0  0.23223152279943804  0.8910177697799287  0.40473569610716004  1.0000
  H   H3        1.0  0.866378312074609  0.8457386898981343  0.6783404723462921  1.0000
  H   H4        1.0  0.13360544854126738  0.15425123152552797  0.3216662537824462  1.0000
  H   H5        1.0  0.9350321416881898  0.5356137227524869  0.20232577011525876  1.0000
  H   H6        1.0  0.0649690597615091  0.46438431998828383  0.7976754870223531  1.0000
  H   H7        1.0  0.9517516255525607  0.7392401280641965  0.1530035311595981  1.0000
  H   H8        1.0  0.0482487435755985  0.2607613706794467  0.8469967749989208  1.0000
  H   H9        1.0  0.6460685583668707  0.5182671535824712  0.2657101003819307  1.0000
  H   H10       1.0  0.3539334280886806  0.48172629551147134  0.7342954763187565  1.0000
  H   H11       1.0  0.6457070604634012  0.7207346820104874  0.17973624313815156  1.0000
  H   H12       1.0  0.3542911873773846  0.27925759015240464  0.8202677693425926  1.0000
  H   H13       1.0  0.774636421131376  0.8543167599300647  0.4596265190196148  1.0000
  H   H14       1.0  0.22536680845500712  0.14569048896719042  0.540367104871855  1.0000
  H   H15       1.0  0.852571501740144  0.8758396888350293  0.2696915764939191  1.0000
  H   H16       1.0  0.1474287276619748  0.1241617792722138  0.7303028392787212  1.0000
  H   H17       1.0  0.579394988913606  0.9364400124748398  0.23752789899270244  1.0000
  H   H18       1.0  0.42060779598595843  0.06356375711170159  0.7624630681479374  1.0000
  H   H19       1.0  0.5120649488034063  0.9290039285612157  0.422891285144395  1.0000
  H   H20       1.0  0.48793632399001297  0.07099638436137923  0.577102253094303  1.0000
  H   H21       1.0  0.7854727624696168  0.1537665860263857  0.16764265256848182  1.0000
  H   H22       1.0  0.2145300922929536  0.8462371988783632  0.8323512597650906  1.0000
  H   H23       1.0  0.7241327304984894  0.14837159537415098  0.35207691836459537  1.0000
  H   H24       1.0  0.27587192937355814  0.8516264355930474  0.6479194542671323  1.0000
  H   H25       1.0  0.5212296598240654  0.1425236259972351  0.05938980846935489  1.0000
  H   H26       1.0  0.47877198705280927  0.8574790234860572  0.9406087733731638  1.0000
  H   H27       1.0  0.4184631536113557  0.30950547585757704  0.0371646507085046  1.0000
  H   H28       1.0  0.5815372861201666  0.6904971656360815  0.9628332685970235  1.0000
  H   H29       1.0  0.7844609727428419  0.3357300744220879  0.9442510615448683  1.0000
  H   H30       1.0  0.21553867002537433  0.6642645014426023  0.0557508032288538  1.0000
  H   H31       1.0  0.6602007983491518  0.48174587140805886  0.8850890472439302  1.0000
  H   H32       1.0  0.339804445935755  0.5182556695062601  0.11491587252450594  1.0000
  C   C1        1.0  0.7646846440130234  0.13658523547390902  0.8011468718619809  1.0000
  C   C2        1.0  0.23531231474883188  0.8634185401190707  0.19884961817253807  1.0000
  C   C3        1.0  0.7901740738854741  0.05776566050047191  0.7023647854917742  1.0000
  C   C4        1.0  0.20983182774981662  0.9422197293926974  0.2976424781701538  1.0000
  C   C5        1.0  0.8434825372425224  0.9145237875568383  0.7477868267502501  1.0000
  C   C6        1.0  0.15650949597238653  0.08549848450798692  0.2522175666944761  1.0000
  C   C7        1.0  0.8633848771763583  0.8560348490159839  0.8913512662490248  1.0000
  C   C8        1.0  0.13661258565857537  0.14396201679372922  0.10864842666865832  1.0000
  C   C9        1.0  0.8822483725348179  0.6419653848121671  0.15517012484201576  1.0000
  C   C10       1.0  0.1177504379118588  0.35803264705539556  0.8448307889526064  1.0000
  C   C11       1.0  0.7073711716465213  0.6302770276843076  0.24169992821265404  1.0000
  C   C12       1.0  0.2926253176601392  0.36972100862826107  0.7583035874319107  1.0000
  C   C13       1.0  0.7432467646720369  0.8477493958645256  0.3642954726549806  1.0000
  C   C14       1.0  0.25675337083904287  0.15225092438664234  0.6357003482396735  1.0000
  C   C15       1.0  0.6176647835112306  0.9557596789495194  0.3245669561623076  1.0000
  C   C16       1.0  0.3823340742511334  0.04423949056199211  0.6754305890483465  1.0000
  C   C17       1.0  0.6828410792400987  0.1246324783414252  0.26855184615708083  1.0000
  C   C18       1.0  0.31716038059504836  0.8753690028615183  0.7314442138835274  1.0000
  C   C19       1.0  0.5300172490610251  0.26235679354162045  0.05136321511895405  1.0000
  C   C20       1.0  0.4699831666424786  0.737644715414156  0.9486390545015267  1.0000
  C   C21       1.0  0.6713688725139378  0.3576381042689363  0.9198010159896699  1.0000
  C   C22       1.0  0.328632703759574  0.6423634024643478  0.08019995270583995  1.0000
  S   S1        1.0  0.6833260726472901  0.31503548519617663  0.7550637185858519  1.0000
  S   S2        1.0  0.3166743197685448  0.6849660186535402  0.2449375693036444  1.0000
  S   S3        1.0  0.9093227979637248  0.6653041287853368  0.9635504973861801  1.0000
  S   S4        1.0  0.09067627012804282  0.3346962141125971  0.03645055135735482  1.0000
  S   S5        1.0  0.6735138112881742  0.6452232874948862  0.4222023460741582  1.0000
  S   S6        1.0  0.3264924065250128  0.35477708291657717  0.5777987509673963  1.0000
  S   S7        1.0  0.537499877364141  0.26163971471557085  0.22923590692526827  1.0000
  S   S8        1.0  0.46250160501833193  0.7383606441616238  0.7707664668922546  1.0000
  N   N1        1.0  0.7949095926560192  0.07978712940493443  0.9316606431130907  1.0000
  N   N2        1.0  0.20508663900554322  0.9202085958772701  0.06834273758254732  1.0000
  N   N3        1.0  0.8423368724918775  0.9384344551666643  0.9781104443263403  1.0000
  N   N4        1.0  0.1576590887136788  0.0615693583912815  0.0218942187500062  1.0000
  Cl  Cl1       1.0  0.002723221300037403  0.6512175562251131  0.584147806142937  1.0000
  Cl  Cl2       1.0  0.9972843914405803  0.3487851178881486  0.4158511431915881  1.0000
