data_image0
_chemical_formula_structural       Cu2H32C40S4N8O12
_chemical_formula_sum              "Cu2 H32 C40 S4 N8 O12"
_cell_length_a       10.696193623917981
_cell_length_b       10.838966060564317
_cell_length_c       11.129047838020822
_cell_angle_alpha    89.99977895285922
_cell_angle_beta     90.00004568988612
_cell_angle_gamma    102.6798121171056

_space_group_name_H-M_alt    "P 1"
_space_group_IT_number       1

loop_
  _space_group_symop_operation_xyz
  'x, y, z'

loop_
  _atom_site_type_symbol
  _atom_site_label
  _atom_site_symmetry_multiplicity
  _atom_site_fract_x
  _atom_site_fract_y
  _atom_site_fract_z
  _atom_site_occupancy
  Cu  Cu1       1.0  0.7499996420736608  0.750000295603982  0.6519450451968041  1.0000
  Cu  Cu2       1.0  0.2500022683458383  0.25000078269641074  0.3480509673089499  1.0000
  H   H1        1.0  0.8810477550476393  0.32838762647042324  0.6990092113592892  1.0000
  H   H2        1.0  0.6189518882668068  0.17161279143302008  0.6990138962748487  1.0000
  H   H3        1.0  0.11895343128384893  0.6716143978974145  0.3009805112981425  1.0000
  H   H4        1.0  0.3810472176804894  0.8283882880558407  0.300980319130879  1.0000
  H   H5        1.0  0.11487634758042024  0.41655824089234994  0.665688737907395  1.0000
  H   H6        1.0  0.38512328317793276  0.08344111459169307  0.6657002493803645  1.0000
  H   H7        1.0  0.8851242065434448  0.5834409464938516  0.33430188330457605  1.0000
  H   H8        1.0  0.6148767575933362  0.9165599644950433  0.33429756022359663  1.0000
  H   H9        1.0  0.18940591266331103  0.6464431646255518  0.612931801225926  1.0000
  H   H10       1.0  0.31059263521743935  0.853557332910995  0.6129386485263237  1.0000
  H   H11       1.0  0.8105948521961822  0.3535569684062665  0.3870660083800884  1.0000
  H   H12       1.0  0.6894081296418121  0.1464428001064988  0.3870663494754183  1.0000
  H   H13       1.0  0.02769623899541076  0.78296888415764  0.610604239635286  1.0000
  H   H14       1.0  0.47230604833625733  0.7170316210850983  0.6106072311334286  1.0000
  H   H15       1.0  0.9723086866320969  0.21703313861063825  0.38939536706773487  1.0000
  H   H16       1.0  0.5276942950512052  0.28296662060891  0.3893995639706346  1.0000
  H   H17       1.0  0.8926615303758183  0.9142898209036686  0.46210734827806016  1.0000
  H   H18       1.0  0.6073282073914327  0.5857105853508953  0.4621042591451072  1.0000
  H   H19       1.0  0.10733332292278422  0.08571315187991498  0.5378868671224736  1.0000
  H   H20       1.0  0.39267068781991554  0.41428954847264526  0.5378926519107167  1.0000
  H   H21       1.0  0.8987001224228663  0.9218376275046011  0.23947193800672295  1.0000
  H   H22       1.0  0.6012927641805419  0.5781693394103157  0.23946977101569894  1.0000
  H   H23       1.0  0.10129575758047342  0.0781615618510401  0.7605213788518269  1.0000
  H   H24       1.0  0.398708514031334  0.4218289019084336  0.7605271400445871  1.0000
  H   H25       1.0  0.9553054480450386  0.8258659266112003  0.0683649590109781  1.0000
  H   H26       1.0  0.5446933614731506  0.6741388826479235  0.06836059141742369  1.0000
  H   H27       1.0  0.044691037191043406  0.17412758798047887  0.9316355462541779  1.0000
  H   H28       1.0  0.45530375597088824  0.32585746894510237  0.9316291312490604  1.0000
  H   H29       1.0  0.9447002848294659  0.8271881820902393  0.8435345918731726  1.0000
  H   H30       1.0  0.5553058329903067  0.6728088052526714  0.8435302374719528  1.0000
  H   H31       1.0  0.0553022308228677  0.17280722145156344  0.15646591339077529  1.0000
  H   H32       1.0  0.44469752560573284  0.32719038094325725  0.15646307938950338  1.0000
  C   C1        1.0  0.8334105930560797  0.5100559243464174  0.6714970649417893  1.0000
  C   C2        1.0  0.6665866094096985  0.9899436440424053  0.6715014924427009  1.0000
  C   C3        1.0  0.16658757806704472  0.489945155532034  0.3284998461119812  1.0000
  C   C4        1.0  0.3334143661856004  0.010057434645787598  0.3284981142605544  1.0000
  C   C5        1.0  0.9172717052089397  0.4285129902333224  0.6804629768040371  1.0000
  C   C6        1.0  0.5827292956319354  0.07148939252529368  0.6804680088405064  1.0000
  C   C7        1.0  0.08272875703411843  0.5714899801768921  0.31953303569760994  1.0000
  C   C8        1.0  0.41727397108332553  0.9285135766964456  0.3195298007611598  1.0000
  C   C9        1.0  0.047215924504342935  0.4782260257918978  0.6615948047714041  1.0000
  C   C10       1.0  0.4527829824375544  0.021774292073317294  0.6616030055755998  1.0000
  C   C11       1.0  0.9527859859151918  0.5217750525102784  0.338400309184884  1.0000
  C   C12       1.0  0.5472159127737086  0.9782258417448444  0.33839660112861475  1.0000
  C   C13       1.0  0.08945747557574892  0.6063827555486652  0.6345311696320194  1.0000
  C   C14       1.0  0.41054429681575033  0.8936195460195931  0.634538842829869  1.0000
  C   C15       1.0  0.9105455804036495  0.3936192680131256  0.3654666399713377  1.0000
  C   C16       1.0  0.5894566787793636  0.10638153265784916  0.3654661551701891  1.0000
  C   C17       1.0  0.0003980776260235055  0.6824415841482432  0.6315460112810597  1.0000
  C   C18       1.0  0.49960067975550976  0.8175597848493721  0.6315513428760866  1.0000
  C   C19       1.0  0.999604978353375  0.31756043941354756  0.36845179832229746  1.0000
  C   C20       1.0  0.5003972806314535  0.1824403493512179  0.3684545536740344  1.0000
  C   C21       1.0  0.8300162639325707  0.8420772499432801  0.40881269333127074  1.0000
  C   C22       1.0  0.6699731747544675  0.6579262061316484  0.4088111792441253  1.0000
  C   C23       1.0  0.169978589365968  0.15792572283671544  0.5911833191681949  1.0000
  C   C24       1.0  0.3300264445451617  0.3420729816405553  0.5911839347148131  1.0000
  C   C25       1.0  0.8323843133493581  0.8451019489876825  0.2841173848863576  1.0000
  C   C26       1.0  0.6676069113793018  0.6549057864054643  0.28411588029091916  1.0000
  C   C27       1.0  0.1676110533016271  0.15489913208281783  0.7158759319684548  1.0000
  C   C28       1.0  0.3323917730961838  0.3450934017581204  0.7158810307665887  1.0000
  C   C29       1.0  0.7499972734344453  0.7500030508789237  0.2190778250902738  1.0000
  C   C30       1.0  0.24999975212870143  0.24999708373275095  0.7809199845142912  1.0000
  C   C31       1.0  0.7499982126475047  0.7500033141559326  0.08678887985144709  1.0000
  C   C32       1.0  0.24999932626802493  0.24999492874266588  0.9132080312073895  1.0000
  C   C33       1.0  0.8638688069133663  0.7934427624046377  0.022210092417225297  1.0000
  C   C34       1.0  0.6361300056673685  0.7065622308401273  0.022206572744636298  1.0000
  C   C35       1.0  0.13612809979454  0.20655264351231745  0.9777877171961503  1.0000
  C   C36       1.0  0.3638680466005795  0.2934341203471931  0.9777885412190129  1.0000
  C   C37       1.0  0.8594336646727285  0.7923297450059651  0.8975464325861535  1.0000
  C   C38       1.0  0.6405704880342357  0.7076708108487891  0.8975447092896901  1.0000
  C   C39       1.0  0.1405681268913881  0.20766660459075575  0.10245407267574788  1.0000
  C   C40       1.0  0.35943057944174234  0.2923264848082212  0.1024531003217533  1.0000
  S   S1        1.0  0.6625636516933328  0.44420088397159657  0.6750922185370312  1.0000
  S   S2        1.0  0.8374367172965551  0.05579868323045639  0.6750903183915681  1.0000
  S   S3        1.0  0.33743919354974855  0.5558001939033799  0.32491906931001313  1.0000
  S   S4        1.0  0.16256311273831875  0.9442014501640869  0.3249236651044782  1.0000
  N   N1        1.0  0.8745264789668424  0.6343024453450565  0.6506010802321568  1.0000
  N   N2        1.0  0.6254756097418197  0.8656981500293596  0.6506041443559524  1.0000
  N   N3        1.0  0.1254770903649671  0.36569768650545587  0.3493949322760129  1.0000
  N   N4        1.0  0.37452464176522676  0.13430387471194646  0.34939636089471543  1.0000
  N   N5        1.0  0.749994039171419  0.750000660969789  0.4698234450801094  1.0000
  N   N6        1.0  0.2500011167437322  0.24999947444256063  0.530168973226921  1.0000
  N   N7        1.0  0.7500022296956032  0.7499989814272325  0.8362420335730503  1.0000
  N   N8        1.0  0.2499995618685062  0.24999736816948104  0.1637584716888512  1.0000
  O   O1        1.0  0.6010354580292585  0.5536500540413555  0.6667336824826222  1.0000
  O   O2        1.0  0.8989634036650999  0.9463485868977269  0.6667321636117548  1.0000
  O   O3        1.0  0.39896768983106073  0.4463481865035774  0.3332551416331953  1.0000
  O   O4        1.0  0.10103612375411333  0.053654383921781304  0.3332566604937952  1.0000
  O   O5        1.0  0.6372873388808956  0.37544309121537367  0.7884578310391959  1.0000
  O   O6        1.0  0.8627162485307521  0.12455791421596264  0.788453895727926  1.0000
  O   O7        1.0  0.36272192031836437  0.6245825733982783  0.21156603645680144  1.0000
  O   O8        1.0  0.13727653533948111  0.8754147954081188  0.21157356605877448  1.0000
  O   O9        1.0  0.6422931617631279  0.3648348421812385  0.5672969740607101  1.0000
  O   O10       1.0  0.8577060688195246  0.13516420946279337  0.5672938936685127  1.0000
  O   O11       1.0  0.35770598211455257  0.6351454307529991  0.43272779206589  1.0000
  O   O12       1.0  0.14229996443559395  0.8648595650068952  0.43273446657710923  1.0000
