data_image0
_chemical_formula_structural       Cu6H68C40S4I6N4O4
_chemical_formula_sum              "Cu6 H68 C40 S4 I6 N4 O4"
_cell_length_a       11.029598933828554
_cell_length_b       11.278669153836558
_cell_length_c       12.4099
_cell_angle_alpha    117.40538951323627
_cell_angle_beta     104.75578880133763
_cell_angle_gamma    89.6846194502917

_space_group_name_H-M_alt    "P 1"
_space_group_IT_number       1

loop_
  _space_group_symop_operation_xyz
  'x, y, z'

loop_
  _atom_site_type_symbol
  _atom_site_label
  _atom_site_symmetry_multiplicity
  _atom_site_fract_x
  _atom_site_fract_y
  _atom_site_fract_z
  _atom_site_occupancy
  Cu  Cu1       1.0  0.5817117861903826  0.9570187216995193  0.08192377313202567  1.0000
  Cu  Cu2       1.0  0.9187638057682577  0.8760485206644546  0.9181304311275652  1.0000
  Cu  Cu3       1.0  0.41828395264766977  0.0429745929832706  0.9180642463808297  1.0000
  Cu  Cu4       1.0  0.0812345466227598  0.1239508376981959  0.081866348902409  1.0000
  Cu  Cu5       1.0  0.7496970977741952  0.0169384201107903  0.0004052532796947993  1.0000
  Cu  Cu6       1.0  0.2503079406904121  0.9830619455318441  0.9995902384182287  1.0000
  H   H1        1.0  0.3775047962567371  0.8318208713885012  0.14549113345665174  1.0000
  H   H2        1.0  0.12283408492570662  0.6866264989533519  0.8529271746413939  1.0000
  H   H3        1.0  0.6224953082106169  0.1681774796941724  0.8545023985872788  1.0000
  H   H4        1.0  0.8771640213291292  0.3133708448493451  0.14707112435274178  1.0000
  H   H5        1.0  0.5609163415694952  0.7051030355906177  0.10806499093646953  1.0000
  H   H6        1.0  0.9392077448402533  0.5995098754922664  0.890049125701175  1.0000
  H   H7        1.0  0.4390828253256487  0.294895315492063  0.8919275230605239  1.0000
  H   H8        1.0  0.060792359627100716  0.4004884755904072  0.10995004700061627  1.0000
  H   H9        1.0  0.6001786575501312  0.7249595457977946  0.2637664729599151  1.0000
  H   H10       1.0  0.9003688836233084  0.4619809036900334  0.7344174884992327  1.0000
  H   H11       1.0  0.3998205093450054  0.2750388052848791  0.736226041037078  1.0000
  H   H12       1.0  0.09963097470787124  0.5380154328326867  0.26558078574192484  1.0000
  H   H13       1.0  0.47975460681991683  0.4984645844947906  0.1095435098540705  1.0000
  H   H14       1.0  0.020693747000599703  0.3907077870035991  0.8888167802942277  1.0000
  H   H15       1.0  0.5202418704266663  0.501534773867867  0.890450428273759  1.0000
  H   H16       1.0  0.9793074181070552  0.6092915713590514  0.11118305387655163  1.0000
  H   H17       1.0  0.35504962434738735  0.5722065444074076  0.05226159425772185  1.0000
  H   H18       1.0  0.14502523027367434  0.5216995117483307  0.9467313942228728  1.0000
  H   H19       1.0  0.6449477904714059  0.4277928139552428  0.9477317503005125  1.0000
  H   H20       1.0  0.8549764271063369  0.478303875734241  0.053270236869188504  1.0000
  H   H21       1.0  0.30130394676236705  0.5117808258045287  0.20509704926635658  1.0000
  H   H22       1.0  0.20005861568490252  0.306432700360574  0.7942804677337918  1.0000
  H   H23       1.0  0.6986928996884815  0.4882215543980593  0.7948990423606972  1.0000
  H   H24       1.0  0.7999446707033613  0.6935686725620371  0.20572230099150354  1.0000
  H   H25       1.0  0.44356998994229  0.6054528273627255  0.3211935515973822  1.0000
  H   H26       1.0  0.0579983089219596  0.2835009643804298  0.6777615425049818  1.0000
  H   H27       1.0  0.5564301145250568  0.3945455237199482  0.6787999804465485  1.0000
  H   H28       1.0  0.9420029792537862  0.7164994012622046  0.3222387408961254  1.0000
  H   H29       1.0  0.2671839662893802  0.7392175938870054  0.3640508142486922  1.0000
  H   H30       1.0  0.23458382795275412  0.3728497202728605  0.63569463084297  1.0000
  H   H31       1.0  0.7328194431669673  0.2607847863155826  0.6359467630490557  1.0000
  H   H32       1.0  0.7654185208632925  0.6271516526497507  0.3643079256436578  1.0000
  H   H33       1.0  0.22420224965344465  0.7204580115759143  0.20887600063773695  1.0000
  H   H34       1.0  0.2763278881952261  0.5111049409392621  0.7907002857881338  1.0000
  H   H35       1.0  0.7757957805057957  0.2795463831866272  0.7911236191134279  1.0000
  H   H36       1.0  0.7236725854763932  0.48889643198334903  0.20930104041288194  1.0000
  H   H37       1.0  0.4730422284629014  0.8706636019018319  0.41599972653348516  1.0000
  H   H38       1.0  0.02780901493355971  0.4523361979002658  0.5825899085513129  1.0000
  H   H39       1.0  0.5269621185656705  0.129338778300756  0.5839956455781348  1.0000
  H   H40       1.0  0.9721939022504387  0.547662153182408  0.41741151248302083  1.0000
  H   H41       1.0  0.3455128566692238  0.9439109873452337  0.36075071218321136  1.0000
  H   H42       1.0  0.15483004061758274  0.5807543223010896  0.637739392350035  1.0000
  H   H43       1.0  0.6544886776427035  0.056091392857354094  0.6392448290206687  1.0000
  H   H44       1.0  0.8451681887053439  0.4192440287815842  0.36226016168267705  1.0000
  H   H45       1.0  0.41936360865602057  0.128027299769343  0.24938554498596233  1.0000
  H   H46       1.0  0.08016011294511574  0.8804785380078926  0.751287271369506  1.0000
  H   H47       1.0  0.5806384940238516  0.8719720585933145  0.7506056375325657  1.0000
  H   H48       1.0  0.9198419427622613  0.1195127621149368  0.24870858762780304  1.0000
  H   H49       1.0  0.43706556398858254  0.12048881641366188  0.392055816152542  1.0000
  H   H50       1.0  0.06409271832100671  0.7293492719421124  0.6083701656721772  1.0000
  H   H51       1.0  0.5629261784244336  0.8795024837091674  0.6079312617532578  1.0000
  H   H52       1.0  0.9358991471601003  0.2706430354606937  0.3916205846970016  1.0000
  H   H53       1.0  0.6167851862491318  0.5210538452824025  0.4072663443844248  1.0000
  H   H54       1.0  0.882532351903315  0.11495582749426349  0.5927284265146184  1.0000
  H   H55       1.0  0.3832132422374812  0.47893846212040353  0.5927275032719878  1.0000
  H   H56       1.0  0.11746673889623341  0.8850495745482547  0.40727830117165803  1.0000
  H   H57       1.0  0.721996994652841  0.4765864633716745  0.5138205860846057  1.0000
  H   H58       1.0  0.77789442528141  0.963651660354941  0.4850243026369157  1.0000
  H   H59       1.0  0.2779999278936032  0.5234088658710689  0.4861733789771492  1.0000
  H   H60       1.0  0.22210654066255842  0.0363537416875843  0.5149836553349729  1.0000
  H   H61       1.0  0.3470857509769801  0.2960567093067468  0.3832076976749832  1.0000
  H   H62       1.0  0.1529930465576257  0.9119600664416793  0.6159233681778674  1.0000
  H   H63       1.0  0.6529131697819821  0.7039396272159735  0.6167847236696389  1.0000
  H   H64       1.0  0.847006735677958  0.0880433210408853  0.38408347909471263  1.0000
  H   H65       1.0  0.3796007705295282  0.4014715808489768  0.3199719990008845  1.0000
  H   H66       1.0  0.1199040666221123  0.0815785981418031  0.6802612791524822  1.0000
  H   H67       1.0  0.6203989647335534  0.5985237483937595  0.6800217969686244  1.0000
  H   H68       1.0  0.8800973446217172  0.918422774780808  0.319745094136806  1.0000
  C   C1        1.0  0.45303425162936867  0.8396293057782954  0.22688313203130409  1.0000
  C   C2        1.0  0.04734411238661101  0.612870437121046  0.7714829213799561  1.0000
  C   C3        1.0  0.5469652844700407  0.16037206714431557  0.7731115354649135  1.0000
  C   C4        1.0  0.952654931440435  0.3871269066816581  0.22851558985284737  1.0000
  C   C5        1.0  0.5206685486562536  0.7138613349997058  0.18356295450882956  1.0000
  C   C6        1.0  0.9797119651620605  0.5315214988142358  0.814698169649297  1.0000
  C   C7        1.0  0.4793304951707924  0.2861360088029912  0.8164291102578431  1.0000
  C   C8        1.0  0.020288016237202607  0.4684758449884612  0.18530055382218086  1.0000
  C   C9        1.0  0.42946495827483494  0.5876864231099859  0.13779347926439564  1.0000
  C   C10       1.0  0.07106494341705631  0.45108616344751334  0.8608900286687914  1.0000
  C   C11       1.0  0.5705325796120492  0.4123139425326415  0.8621995087158967  1.0000
  C   C12       1.0  0.9289372823308997  0.548914202195121  0.1391120785875087  1.0000
  C   C13       1.0  0.3693959492474121  0.601309884813034  0.24042014385566549  1.0000
  C   C14       1.0  0.1318298317385427  0.3606344359791223  0.7586864082321867  1.0000
  C   C15       1.0  0.6306034637839063  0.3986904808296003  0.7595740744102386  1.0000
  C   C16       1.0  0.8681733315816302  0.6393659296635121  0.24131591126278806  1.0000
  C   C17       1.0  0.3050630732031365  0.7286451832374609  0.28673801398404913  1.0000
  C   C18       1.0  0.1959879052919575  0.4406950631940134  0.7125337788678509  1.0000
  C   C19       1.0  0.6949384611087909  0.2713571969651269  0.7132583330280937  1.0000
  C   C20       1.0  0.8040135059518719  0.5593063097285977  0.2874685653801023  1.0000
  C   C21       1.0  0.3963369335853955  0.8552340871981555  0.33210672825097737  1.0000
  C   C22       1.0  0.10425609560990523  0.5215020848726297  0.6664378383889513  1.0000
  C   C23       1.0  0.6036646007265247  0.1447682930044323  0.6678888129529028  1.0000
  C   C24       1.0  0.895744946429659  0.47849626621004393  0.3335631581680474  1.0000
  C   C25       1.0  0.4891294591602673  0.1265476054815977  0.3297235823005806  1.0000
  C   C26       1.0  0.011155297422661211  0.7981122469232602  0.6703103330989251  1.0000
  C   C27       1.0  0.5108684009583939  0.8734477237611457  0.6702689833833163  1.0000
  C   C28       1.0  0.9888451292764702  0.2018810677595226  0.32968841730647813  1.0000
  C   C29       1.0  0.5867806669645717  0.2525301268955076  0.4010455680314422  1.0000
  C   C30       1.0  0.9133585386668203  0.8529797946072931  0.5990123675001017  1.0000
  C   C31       1.0  0.4132231408191487  0.747460165947345  0.598952683637684  1.0000
  C   C32       1.0  0.08664617756600991  0.14702560743523208  0.4009972452347412  1.0000
  C   C33       1.0  0.6248787222290204  0.4956109603169878  0.4844742899817334  1.0000
  C   C34       1.0  0.8750003644513882  0.0117549573437756  0.5151255154795606  1.0000
  C   C35       1.0  0.3751205207617191  0.5043803398058415  0.5155201264912961  1.0000
  C   C36       1.0  0.1250003553564127  0.9882484301387962  0.48488154403169403  1.0000
  C   C37       1.0  0.4052994860214127  0.3865295896546783  0.40428566244237624  1.0000
  C   C38       1.0  0.09453769281204673  0.9818945080372927  0.5954366314220892  1.0000
  C   C39       1.0  0.5947000031055012  0.6134637250281116  0.5957072350664916  1.0000
  C   C40       1.0  0.9054630269957471  0.018108879445272  0.4045704280891584  1.0000
  S   S1        1.0  0.5717583202096962  0.9801458699954111  0.27244104236848454  1.0000
  S   S2        1.0  0.928559591655656  0.7087373017513983  0.7261653102960395  1.0000
  S   S3        1.0  0.4282392176771879  0.0198544956472233  0.7275527514200704  1.0000
  S   S4        1.0  0.0714393291032991  0.2912590347713219  0.2738303342816408  1.0000
  I   I1        1.0  0.6178353560919732  0.2007508996241611  0.10668172298846913  1.0000
  I   I2        1.0  0.88019785455041  0.0952423510439715  0.8952547677271881  1.0000
  I   I3        1.0  0.3821640569393381  0.7992494660184732  0.8933141068939606  1.0000
  I   I4        1.0  0.11980343362533571  0.9047580145986628  0.1047447098656492  1.0000
  I   I5        1.0  0.7514082107391432  0.7907399647639579  0.00020195613114987334  1.0000
  I   I6        1.0  0.24859764222958355  0.2092593935986997  0.9997981334247187  1.0000
  N   N1        1.0  0.5397645027155279  0.37224333772607565  0.4356524281517551  1.0000
  N   N2        1.0  0.9601408512566394  0.936664615183183  0.5636843201188954  1.0000
  N   N3        1.0  0.4602341719072528  0.627750984236684  0.5643423179652914  1.0000
  N   N4        1.0  0.03985999161924521  0.0633397795793584  0.43632238281441  1.0000
  O   O1        1.0  0.7023845179944744  0.24461290626808108  0.42555157209880434  1.0000
  O   O2        1.0  0.7977839603025603  0.821908229124574  0.5752200285222243  1.0000
  O   O3        1.0  0.29761534033670506  0.7553834302546321  0.5744499253754185  1.0000
  O   O4        1.0  0.20221525356507192  0.178098180197928  0.42478473096957714  1.0000
