data_image0
_chemical_formula_structural       Cd4H48C52N24O12
_chemical_formula_sum              "Cd4 H48 C52 N24 O12"
_cell_length_a       7.306716215
_cell_length_b       13.152073763173036
_cell_length_c       14.608
_cell_angle_alpha    90.0
_cell_angle_beta     90.0
_cell_angle_gamma    91.26553584794213

_space_group_name_H-M_alt    "P 1"
_space_group_IT_number       1

loop_
  _space_group_symop_operation_xyz
  'x, y, z'

loop_
  _atom_site_type_symbol
  _atom_site_label
  _atom_site_symmetry_multiplicity
  _atom_site_fract_x
  _atom_site_fract_y
  _atom_site_fract_z
  _atom_site_occupancy
  Cd  Cd1       1.0  0.24578024291687234  0.6913006980769651  0.4495742059145655  1.0000
  Cd  Cd2       1.0  0.2542193267460462  0.8087009394026906  0.9495762595837933  1.0000
  Cd  Cd3       1.0  0.754215588787261  0.3086973514886253  0.5504237404162069  1.0000
  Cd  Cd4       1.0  0.7457793933374006  0.1913009127722916  0.05042579408543452  1.0000
  H   H1        1.0  0.031158512720992303  0.801120057318748  0.6374945235487388  1.0000
  H   H2        1.0  0.4688467127632876  0.6988861432921849  0.1374924698795184  1.0000
  H   H3        1.0  0.9688457724808544  0.19888407642186925  0.3625061610076656  1.0000
  H   H4        1.0  0.531153285221059  0.3011134273171692  0.8625041073384454  1.0000
  H   H5        1.0  0.9316811109728392  0.7441896710669268  0.7959063526834598  1.0000
  H   H6        1.0  0.5683272790327436  0.7558142479783639  0.2959049835706438  1.0000
  H   H7        1.0  0.0683245428328547  0.2558144626736905  0.20409433187294476  1.0000
  H   H8        1.0  0.4316766735915678  0.2441815200215913  0.7040929627601289  1.0000
  H   H9        1.0  0.9665616528727128  0.5580892068991758  0.8342168674698771  1.0000
  H   H10       1.0  0.5334342987608736  0.9419116700586014  0.3342202902519135  1.0000
  H   H11       1.0  0.0334426323291339  0.4419149268414415  0.1657838170865276  1.0000
  H   H12       1.0  0.4665654573489064  0.058081816375718597  0.6657817634173073  1.0000
  H   H13       1.0  0.4691416555522636  0.3078562142911139  0.3660028751369141  1.0000
  H   H14       1.0  0.030858615548787303  0.19215041571047203  0.866002875136914  1.0000
  H   H15       1.0  0.5308541761518626  0.6921418352744766  0.6339971248630861  1.0000
  H   H16       1.0  0.9691250196579021  0.8078506759426389  0.13399986308871806  1.0000
  H   H17       1.0  0.6076741927918973  0.1911442452653347  0.24855353231106395  1.0000
  H   H18       1.0  0.8923251067845828  0.3088593426487307  0.7485514786418435  1.0000
  H   H19       1.0  0.3923258051924493  0.8088553253440125  0.7514450985761203  1.0000
  H   H20       1.0  0.1076639121345764  0.691139467438738  0.2514492059145681  1.0000
  H   H21       1.0  0.5677232607048026  0.4099912604734826  0.04626779846659451  1.0000
  H   H22       1.0  0.9322951086227249  0.0900100458749478  0.5462671139101829  1.0000
  H   H23       1.0  0.43228242333521655  0.5900136337890132  0.9537335706462217  1.0000
  H   H24       1.0  0.06773502888081849  0.9099902852562776  0.4537322015334056  1.0000
  H   H25       1.0  0.4229561026199348  0.5336414705959527  0.15527519167579135  1.0000
  H   H26       1.0  0.07706271819995439  0.9663624484493453  0.6552765607886075  1.0000
  H   H27       1.0  0.5770454151398712  0.4663619026227934  0.8447282311062452  1.0000
  H   H28       1.0  0.9229592681490786  0.033639403725644  0.34472686199342933  1.0000
  H   H29       1.0  0.6588039017349416  0.976716953823832  0.5297145399780945  1.0000
  H   H30       1.0  0.8412028777922275  0.523280881046432  0.029715224534498905  1.0000
  H   H31       1.0  0.3412055857734515  0.02328033521988  0.47027656078861213  1.0000
  H   H32       1.0  0.1587956306509781  0.4767156474754016  0.9702751916757963  1.0000
  H   H33       1.0  0.7886301999274112  0.8640190192722912  0.540643483023004  1.0000
  H   H34       1.0  0.711372322616576  0.6359750129885811  0.0406469058050405  1.0000
  H   H35       1.0  0.21137363175962073  0.1359737066401507  0.45934487951807074  1.0000
  H   H36       1.0  0.2886247869884501  0.3640207550113743  0.9593428258488503  1.0000
  H   H37       1.0  0.6509648975158201  0.9073915819977642  0.6339765881708672  1.0000
  H   H38       1.0  0.8490432203808851  0.5926054923506214  0.1339759036144557  1.0000
  H   H39       1.0  0.34905146324617686  0.09260646756782617  0.3660172508214644  1.0000
  H   H40       1.0  0.15094418805985302  0.4073872335618204  0.8660158817086556  1.0000
  H   H41       1.0  0.2880974530313054  0.3389478697240946  0.5484604326396507  1.0000
  H   H42       1.0  0.21190005062771894  0.1610579997556059  0.0484645399780916  1.0000
  H   H43       1.0  0.7119013275207849  0.6610555034946444  0.4515395673603494  1.0000
  H   H44       1.0  0.7880917659677991  0.8389423313756197  0.9515409364731655  1.0000
  H   H45       1.0  0.1816246857833619  0.3747638870657326  0.6514040251916742  1.0000
  H   H46       1.0  0.3183686818297673  0.1252412218920895  0.151408132530122  1.0000
  H   H47       1.0  0.818376831976444  0.6252394861530064  0.348595974808326  1.0000
  H   H48       1.0  0.6816217661618964  0.874759109239136  0.8485987130339512  1.0000
  C   C1        1.0  0.03728828081607109  0.7219345193391431  0.6588430996714154  1.0000
  C   C2        1.0  0.4627155458300224  0.7780709207499042  0.1588430996714152  1.0000
  C   C3        1.0  0.9627173427553046  0.2780688538795957  0.34115621577218047  1.0000
  C   C4        1.0  0.5372830533161449  0.22192788933756447  0.8411562157721806  1.0000
  C   C5        1.0  0.9827723036521192  0.6906185099520314  0.7459303121577252  1.0000
  C   C6        1.0  0.5172292735685033  0.8093861696151377  0.24593031215772507  1.0000
  C   C7        1.0  0.0172292745763301  0.3093863843104642  0.2540703723986866  1.0000
  C   C8        1.0  0.4827719720824177  0.1906103589066959  0.7540690032858708  1.0000
  C   C9        1.0  0.005149530019764396  0.5884340298475692  0.7671707283680151  1.0000
  C   C10       1.0  0.4948432268581868  0.9115683681539721  0.2671741511500514  1.0000
  C   C11       1.0  0.9948533563438956  0.4115693433711698  0.2328299561883895  1.0000
  C   C12       1.0  0.5051511153048054  0.0884266393241049  0.7328292716319851  1.0000
  C   C13       1.0  0.1214431512163401  0.5592216239761285  0.6247542442497294  1.0000
  C   C14       1.0  0.37855240333797013  0.9407822950691694  0.1247576670317656  1.0000
  C   C15       1.0  0.8785583363091477  0.44078098872073906  0.37524712486308703  1.0000
  C   C16       1.0  0.6214420597623018  0.0592157544964209  0.8752464403066824  1.0000
  C   C17       1.0  0.1992294946032871  0.4867294390483749  0.5586397864184038  1.0000
  C   C18       1.0  0.300765332316658  0.0132779514750823  0.058645947426065  1.0000
  C   C19       1.0  0.8007707452556263  0.5132762157359991  0.4413588444687875  1.0000
  C   C20       1.0  0.6992223784672831  0.9867223796561431  0.9413595290251922  1.0000
  C   C21       1.0  0.3641843157021897  0.5023178559900572  0.3379422234392138  1.0000
  C   C22       1.0  0.1358222179173012  0.9976868235771119  0.8379449616648387  1.0000
  C   C23       1.0  0.6358045822796896  0.4976779120098982  0.6620577765607862  1.0000
  C   C24       1.0  0.8641834056540816  0.0023165496416269  0.16205914567360225  1.0000
  C   C25       1.0  0.4393048485823741  0.4301412876418382  0.2697569824753572  1.0000
  C   C26       1.0  0.0607022353036513  0.0698645818378623  0.7697569824753572  1.0000
  C   C27       1.0  0.5606938110324294  0.5698590434893873  0.7302457557502751  1.0000
  C   C28       1.0  0.9392964545454775  0.9301365098152417  0.23024644030667935  1.0000
  C   C29       1.0  0.4882397766964743  0.3315571181097425  0.29531626506024383  1.0000
  C   C30       1.0  0.0117659385856967  0.168448751369958  0.7953169496166481  1.0000
  C   C31       1.0  0.5117560550076591  0.6684409314558479  0.7046823658269477  1.0000
  C   C32       1.0  0.9882286756861802  0.8315531008050242  0.20468510405257234  1.0000
  C   C33       1.0  0.5628088435490142  0.2673006246032514  0.2309385268346134  1.0000
  C   C34       1.0  0.9371959606772221  0.2327037238326923  0.7309357886089816  1.0000
  C   C35       1.0  0.4371926439764735  0.7327019880936091  0.7690621577217984  1.0000
  C   C36       1.0  0.0627999012612293  0.7672950862547764  0.2690642113910187  1.0000
  C   C37       1.0  0.5400703801491247  0.3900868818718449  0.11742880613362423  1.0000
  C   C38       1.0  0.9599412066277537  0.109915945520342  0.6174274370208084  1.0000
  C   C39       1.0  0.45993250621453535  0.6099164913468939  0.8825732475355965  1.0000
  C   C40       1.0  0.0400738762333503  0.8900843856108835  0.3825725629791918  1.0000
  C   C41       1.0  0.4642508592448849  0.4587612469700061  0.1781756571741511  1.0000
  C   C42       1.0  0.03576717347201  0.04124462250969429  0.6781770262869673  1.0000
  C   C43       1.0  0.5357492294424233  0.5412406052049761  0.821825711938665  1.0000
  C   C44       1.0  0.964249368695917  0.9587579901871663  0.3218257119386649  1.0000
  C   C45       1.0  0.4974328486625055  0.8385559862613903  0.5236719605695512  1.0000
  C   C46       1.0  0.002562645423161295  0.6614464117401511  0.0236719605695512  1.0000
  C   C47       1.0  0.5025617051407281  0.1614443448698353  0.4763246166484123  1.0000
  C   C48       1.0  0.9974386909307214  0.3385523983473178  0.9763266703176328  1.0000
  C   C49       1.0  0.6599990791253987  0.8997840816480718  0.559231243154436  1.0000
  C   C50       1.0  0.8400049329597294  0.6002129927003139  0.05923192771084022  1.0000
  C   C51       1.0  0.3400076711752718  0.1002132073956403  0.4407612267250799  1.0000
  C   C52       1.0  0.1599921464109784  0.3997820147777631  0.9407605421686753  1.0000
  N   N1        1.0  0.10488702395073803  0.6567479075753582  0.5980866648411833  1.0000
  N   N2        1.0  0.39510719223403606  0.8432567719918109  0.0980887185104038  1.0000
  N   N3        1.0  0.8951130949708955  0.3432547051215025  0.4019133351588167  1.0000
  N   N4        1.0  0.6048859324966998  0.1567420380956577  0.9019133351588169  1.0000
  N   N5        1.0  0.07567400547053181  0.522378141576759  0.7075835158817085  1.0000
  N   N6        1.0  0.42431741303787623  0.9776250169466536  0.2075876232201566  1.0000
  N   N7        1.0  0.9243234367120223  0.4776259921638584  0.2924164841182916  1.0000
  N   N8        1.0  0.5756783581976066  0.0223715115751801  0.7924164841182917  1.0000
  N   N9        1.0  0.2094041304332066  0.3887977972879496  0.5844804216867487  1.0000
  N   N10       1.0  0.290593282522849  0.1112057906261157  0.0844824753559692  1.0000
  N   N11       1.0  0.7905945594159219  0.6112032943651542  0.41552231653888333  1.0000
  N   N12       1.0  0.709399872442205  0.8887937799832313  0.9155230010952877  1.0000
  N   N13       1.0  0.249586694292546  0.523413211853274  0.4786274644030685  1.0000
  N   N14       1.0  0.2504103195685801  0.9765929887576518  0.9786288335158844  1.0000
  N   N15       1.0  0.7504106269527285  0.4765878797998298  0.5213766429353798  1.0000
  N   N16       1.0  0.7495828656307921  0.0234073423735737  0.0213759583789681  1.0000
  N   N17       1.0  0.3199301371067733  0.45727898982899257  0.4177039978094186  1.0000
  N   N18       1.0  0.18007284096768222  0.0427268796507079  0.917707420591455  1.0000
  N   N19       1.0  0.680072598085289  0.5427205807803546  0.582298055859802  1.0000
  N   N20       1.0  0.8199176372582998  0.957274212002396  0.08229942497261793  1.0000
  N   N21       1.0  0.589539924856382  0.2962407636422171  0.14296070646221185  1.0000
  N   N22       1.0  0.9104702933166423  0.20376206374997  0.6429593373493958  1.0000
  N   N23       1.0  0.4104615022004624  0.7037603280108867  0.8570379244249723  1.0000
  N   N24       1.0  0.0895393151290307  0.7962382673812554  0.3570392935377882  1.0000
  O   O1        1.0  0.34783604656273326  0.5959152835654393  0.3159487951807237  1.0000
  O   O2        1.0  0.1521677498490419  0.9040893960017298  0.8159522179627603  1.0000
  O   O3        1.0  0.6521433014264632  0.4040812449563944  0.6840470974808357  1.0000
  O   O4        1.0  0.8478419492995926  0.0959132166951306  0.18405052026287194  1.0000
  O   O5        1.0  0.5309954447730618  0.7612428531464204  0.4720201259583804  1.0000
  O   O6        1.0  0.9690085975463845  0.7387549817238437  0.9720208105147847  1.0000
  O   O7        1.0  0.46900437180535437  0.23875215433165656  0.5279764512595835  1.0000
  O   O8        1.0  0.030992769041816404  0.2612445888855035  0.0279805585980313  1.0000
  O   O9        1.0  0.3369316535476372  0.8634919776105505  0.544680996714128  1.0000
  O   O10       1.0  0.16307068355731497  0.6365104203909837  0.04467894304490731  1.0000
  O   O11       1.0  0.6630725409512408  0.1365098745644318  0.4553203723986883  1.0000
  O   O12       1.0  0.8369278248858906  0.36348610813085  0.955322426067909  1.0000
