data_image0
_chemical_formula_structural       Cu2H12C12N4O12
_chemical_formula_sum              "Cu2 H12 C12 N4 O12"
_cell_length_a       6.979410828492452
_cell_length_b       6.957276185454559
_cell_length_c       10.642530450867527
_cell_angle_alpha    86.98310564929464
_cell_angle_beta     83.98821055060264
_cell_angle_gamma    59.900525852335086

_space_group_name_H-M_alt    "P 1"
_space_group_IT_number       1

loop_
  _space_group_symop_operation_xyz
  'x, y, z'

loop_
  _atom_site_type_symbol
  _atom_site_label
  _atom_site_symmetry_multiplicity
  _atom_site_fract_x
  _atom_site_fract_y
  _atom_site_fract_z
  _atom_site_occupancy
  Cu  Cu1       1.0  0.5000015319156362  5.840988286800017e-06  0.4999990521554237  1.0000
  Cu  Cu2       1.0  9.02686501490506e-07  0.9999987408293479  0.9999970470584497  1.0000
  H   H1        1.0  0.07622574231824329  0.34760966947466443  0.2500064774683181  1.0000
  H   H2        1.0  0.9237774886742259  0.6523918893653476  0.7499961134812876  1.0000
  H   H3        1.0  0.6692039897523046  0.1615127294574847  0.2500422499419698  1.0000
  H   H4        1.0  0.3308052711498065  0.8384855073086755  0.749956305674935  1.0000
  H   H5        1.0  0.09853504510696352  0.09182764384551943  0.4105993439052113  1.0000
  H   H6        1.0  0.30963594287464963  0.0917977662339382  0.08947227267995567  1.0000
  H   H7        1.0  0.9014549997689941  0.9081772369770679  0.5894039771607636  1.0000
  H   H8        1.0  0.690363175154083  0.9082004693923695  0.9105316239036437  1.0000
  H   H9        1.0  0.2228006976973943  0.8353704873409032  0.43774913156722295  1.0000
  H   H10       1.0  0.44181882108623677  0.8352767830769355  0.062218065143468886  1.0000
  H   H11       1.0  0.7771897951733138  0.16463937825787417  0.5622493047538625  1.0000
  H   H12       1.0  0.5581873663329234  0.16471314617587757  0.9377828279621948  1.0000
  C   C1        1.0  0.8246234599134257  0.6495490827726587  0.34666663263909203  1.0000
  C   C2        1.0  0.02580796548139111  0.6495394631535806  0.15339575298866484  1.0000
  C   C3        1.0  0.17538001510285275  0.3504491534239948  0.6533341688992491  1.0000
  C   C4        1.0  0.9741899159045462  0.35046707979763175  0.8466051395402725  1.0000
  C   C5        1.0  0.985798049546219  0.5282648496138267  0.2500401416250709  1.0000
  C   C6        1.0  0.014193715113641764  0.4717367089464732  0.749958477542307  1.0000
  C   C7        1.0  0.7597485501077442  0.9804315738924108  0.25001337042687766  1.0000
  C   C8        1.0  0.24025203196561765  0.019566662019485606  0.7499885540721749  1.0000
  C   C9        1.0  0.76285009375831  0.5450522886607843  0.46044670927526  1.0000
  C   C10       1.0  0.19212349771780177  0.5450292888603201  0.03962264955340089  1.0000
  C   C11       1.0  0.23715112175636927  0.4549476089065509  0.5395532430815775  1.0000
  C   C12       1.0  0.8078779149588868  0.4549672856817326  0.960379275003326  1.0000
  N   N1        1.0  0.7147968643571408  0.8736115625738988  0.34621353919498415  1.0000
  N   N2        1.0  0.9115453604489476  0.8736176996116001  0.15383602087599965  1.0000
  N   N3        1.0  0.28519160622685297  0.12638501130737012  0.6537873260668474  1.0000
  N   N4        1.0  0.08845723710220449  0.12638219757297262  0.8461685422158208  1.0000
  O   O1        1.0  0.6275026349259674  0.679578918845657  0.5469875122716343  1.0000
  O   O2        1.0  0.19293907822615364  0.6795554192375591  0.9530177181723541  1.0000
  O   O3        1.0  0.37249840685760205  0.32042430193791205  0.45300858707974345  1.0000
  O   O4        1.0  0.807063397362221  0.32043617119581574  0.04698335743356807  1.0000
  O   O5        1.0  0.8496507478170302  0.3377385496703983  0.46408370112660424  1.0000
  O   O6        1.0  0.31269764417884727  0.337691705140827  0.03596745845288748  1.0000
  O   O7        1.0  0.1503390130804901  0.6622613477127006  0.5359113390452206  1.0000
  O   O8        1.0  0.6873190052384927  0.6623032089777683  0.9640335533718694  1.0000
  O   O9        1.0  0.24338447972359495  0.9552787890319083  0.39680963433522  1.0000
  O   O10       1.0  0.30138571099804073  0.9551589732240872  0.10318184248563968  1.0000
  O   O11       1.0  0.7566068086040902  0.044729414910591514  0.6031916232519021  1.0000
  O   O12       1.0  0.69862029097456  0.04483427914947671  0.8968161380173495  1.0000
