data_image0
_chemical_formula_structural       Cu2H60C56N8O20
_chemical_formula_sum              "Cu2 H60 C56 N8 O20"
_cell_length_a       8.824798348580055
_cell_length_b       12.534527197
_cell_length_c       13.2309
_cell_angle_alpha    90.0
_cell_angle_beta     106.05081802652207
_cell_angle_gamma    90.0

_space_group_name_H-M_alt    "P 1"
_space_group_IT_number       1

loop_
  _space_group_symop_operation_xyz
  'x, y, z'

loop_
  _atom_site_type_symbol
  _atom_site_label
  _atom_site_symmetry_multiplicity
  _atom_site_fract_x
  _atom_site_fract_y
  _atom_site_fract_z
  _atom_site_occupancy
  Cu  Cu1       1.0  0.5000000086076994  0.5000005107093344  0.5000002661196491  1.0000
  Cu  Cu2       1.0  0.0  0.0  0.5  1.0000
  H   H1        1.0  0.4959390613135922  0.9513139037947835  0.2867790508292032  1.0000
  H   H2        1.0  0.0040597681572621  0.4513133930854564  0.7132225094537291  1.0000
  H   H3        1.0  0.5040609559018067  0.0486855220311853  0.7132214814100951  1.0000
  H   H4        1.0  0.9959390699212918  0.5486860327405125  0.2867785611423771  1.0000
  H   H5        1.0  0.3295262992449821  0.11793504268384679  0.2612319113431312  1.0000
  H   H6        1.0  0.1704737093627173  0.6179347555968278  0.7387691105830001  1.0000
  H   H7        1.0  0.6704748971072618  0.8820643831421222  0.7387688383458484  1.0000
  H   H8        1.0  0.8295263078526818  0.3820646702291413  0.2612321774627874  1.0000
  H   H9        1.0  0.12068819349405402  0.1334106962088057  0.35747947678654424  1.0000
  H   H10       1.0  0.3793129942504905  0.6334104091217938  0.6425210067827865  1.0000
  H   H11       1.0  0.8793130028581899  0.8665887296171632  0.6425205170959601  1.0000
  H   H12       1.0  0.6206870229649013  0.3665898145005215  0.3574795254565189  1.0000
  H   H13       1.0  0.24174191941004614  0.8414405931900077  0.5016183559604529  1.0000
  H   H14       1.0  0.2582569100608083  0.3414408802770268  0.4983809369030326  1.0000
  H   H15       1.0  0.7582569186685078  0.1585588326359613  0.4983812030226886  1.0000
  H   H16       1.0  0.7417419280177455  0.6585593433452884  0.5016186220801089  1.0000
  H   H17       1.0  0.5245095470674173  0.7636761921336017  0.3509198910149324  1.0000
  H   H18       1.0  0.975490478755681  0.26367727701696  0.6490801515375395  1.0000
  H   H19       1.0  0.4754904701479816  0.23632323369236727  0.6490798854178905  1.0000
  H   H20       1.0  0.0245083593228728  0.7363221488090089  0.3509194074455949  1.0000
  H   H21       1.0  0.5866913285873423  0.7991837141170777  0.4852517576989682  1.0000
  H   H22       1.0  0.9133110555094461  0.2991832034077504  0.5147479639463839  1.0000
  H   H23       1.0  0.4133122260385917  0.20081730730158398  0.5147479152764164  1.0000
  H   H24       1.0  0.0866901408427978  0.700814626825526  0.48525127412963104  1.0000
  H   H25       1.0  0.3468124453923593  0.6544036221775684  0.3818130982734829  1.0000
  H   H26       1.0  0.15318874235218521  0.1544047070609267  0.6181881411023298  1.0000
  H   H27       1.0  0.6531899300967297  0.3455958036484077  0.6181886246716675  1.0000
  H   H28       1.0  0.8468124540000588  0.845593920968696  0.3818148760061036  1.0000
  H   H29       1.0  0.1288690449245067  0.3044957292775692  0.30718289889102834  1.0000
  H   H30       1.0  0.3711309636831929  0.8044946443942038  0.6928158556156561  1.0000
  H   H31       1.0  0.8711309722908851  0.6955044943447533  0.692818389154759  1.0000
  H   H32       1.0  0.6288678743953611  0.1955055792281115  0.3071844591739676  1.0000
  H   H33       1.0  0.9727937927912151  0.1837867486977345  0.16273229729008426  1.0000
  H   H34       1.0  0.5272074121687282  0.6837856638143762  0.8372672069055868  1.0000
  H   H35       1.0  0.0272050452873387  0.8162134749245809  0.8372672616930502  1.0000
  H   H36       1.0  0.47279260504667064  0.3162153576042854  0.16273256952723614  1.0000
  H   H37       1.0  0.1351833227293682  0.5345395079284359  0.9110425478546418  1.0000
  H   H38       1.0  0.3648143276046412  0.0345397950154549  0.0889565275591622  1.0000
  H   H39       1.0  0.8648166944860307  0.4654599178975332  0.08895647277169161  1.0000
  H   H40       1.0  0.6351845104739127  0.9654596308105141  0.911044543036944  1.0000
  H   H41       1.0  0.3305757310370083  0.5909189779230601  0.9535665657461865  1.0000
  H   H42       1.0  0.1694230984338461  0.0909192650100721  0.046432727117306206  1.0000
  H   H43       1.0  0.6694242861783906  0.4090820434956086  0.04643169907367201  1.0000
  H   H44       1.0  0.8305769187815528  0.9090801608158969  0.9535678051219991  1.0000
  H   H45       1.0  0.3039484628037101  0.4497720505444605  0.9303346120779212  1.0000
  H   H46       1.0  0.1960491875302992  0.9497717634574485  0.0696659749488475  1.0000
  H   H47       1.0  0.6960503752748366  0.5502289708742012  0.06966494690521333  1.0000
  H   H48       1.0  0.8039496505482546  0.0502276623685276  0.9303343398407762  1.0000
  H   H49       1.0  0.0884812497103198  0.2367325032180077  0.8587096364882145  1.0000
  H   H50       1.0  0.4115175797605346  0.7367314183346422  0.1412904121817533  1.0000
  H   H51       1.0  0.911517588368234  0.7632677204043077  0.14128992249491998  1.0000
  H   H52       1.0  0.5884812583180192  0.2632672096949804  0.8587083909948989  1.0000
  H   H53       1.0  0.9057657588384345  0.3107895446532964  0.8313658603190819  1.0000
  H   H54       1.0  0.5942330878478188  0.8107876619735919  0.16863245317074424  1.0000
  H   H55       1.0  0.0942342583769644  0.6892114767653652  0.1686324045007694  1.0000
  H   H56       1.0  0.40576457109389  0.18921176385237706  0.8313668883627161  1.0000
  H   H57       1.0  0.9035407276119614  0.1682855656896933  0.8128607697533143  1.0000
  H   H58       1.0  0.596460477347982  0.6682844808063351  0.18713949024883902  1.0000
  H   H59       1.0  0.0964581104665925  0.8317138601362757  0.18713727761685567  1.0000
  H   H60       1.0  0.4035383607305718  0.3317157428159803  0.8128593129278202  1.0000
  C   C1        1.0  0.4064543661482034  0.9624280046946865  0.32862505501572065  1.0000
  C   C2        1.0  0.093545642459496  0.46242829178170547  0.6713759669104108  1.0000
  C   C3        1.0  0.5935456510671955  0.0375714211312825  0.6713754772235775  1.0000
  C   C4        1.0  0.9064531956190578  0.5375711340442706  0.328624347879213  1.0000
  C   C5        1.0  0.31398999217555  0.054533369249348596  0.3138324089244549  1.0000
  C   C6        1.0  0.1860111955689945  0.5545330821623367  0.6861688304513579  1.0000
  C   C7        1.0  0.6860112041766939  0.9454660565766203  0.6861683407645318  1.0000
  C   C8        1.0  0.8139888216464044  0.4454655458672931  0.31383245759442974  1.0000
  C   C9        1.0  0.1983084137252717  0.0645935811758278  0.36644037709543664  1.0000
  C   C10       1.0  0.3016927740192727  0.5645932940888088  0.6335608622803832  1.0000
  C   C11       1.0  0.8016916034901271  0.9354050468538019  0.6335601551438687  1.0000
  C   C12       1.0  0.6983072431961261  0.4354069295335066  0.36644042576540414  1.0000
  C   C13       1.0  0.38267117598498873  0.8832092208990261  0.397113200255049  1.0000
  C   C14       1.0  0.1173300117595559  0.3832103057823844  0.6028872833142813  1.0000
  C   C15       1.0  0.6173288412304103  0.11678940713059657  0.602887331984249  1.0000
  C   C16       1.0  0.882670005455843  0.6167883222472383  0.3971132489250238  1.0000
  C   C17       1.0  0.2652869239305673  0.9002206323905568  0.44749724810270664  1.0000
  C   C18       1.0  0.2347130846771321  0.4002217172739222  0.5525022622104601  1.0000
  C   C19       1.0  0.7347119141479865  0.0997787934354122  0.5525030666869171  1.0000
  C   C20       1.0  0.7652869325382667  0.5997785063483931  0.44749751422235573  1.0000
  C   C21       1.0  0.4813354514885404  0.78278660581217  0.41947959833134263  1.0000
  C   C22       1.0  0.0186657362560041  0.2827884884918817  0.5805216410444771  1.0000
  C   C23       1.0  0.5186669240005486  0.217212820013799  0.5805213688073254  1.0000
  C   C24       1.0  0.9813342809593949  0.717210139537741  0.4194781353883458  1.0000
  C   C25       1.0  0.1203356315774045  0.3209287384180541  0.22487321119296416  1.0000
  C   C26       1.0  0.3796596604829148  0.8209276535346959  0.7751276967409239  1.0000
  C   C27       1.0  0.8796643856379944  0.6790706874079149  0.7751273210463339  1.0000
  C   C28       1.0  0.6203368193219491  0.1790717722912802  0.22487218314932997  1.0000
  C   C29       1.0  0.0348022239795327  0.2538819334774445  0.1463397257961816  1.0000
  C   C30       1.0  0.4652001429018569  0.7538800507977399  0.8536602194163552  1.0000
  C   C31       1.0  0.9651977932358662  0.7461190879412172  0.8536600506366413  1.0000
  C   C32       1.0  0.5348022325872321  0.24612176841726804  0.14633923610934835  1.0000
  C   C33       1.0  0.1968050142479285  0.411927783062751  0.20153487217041294  1.0000
  C   C34       1.0  0.30319499435977093  0.9119259003830463  0.7984661497557256  1.0000
  C   C35       1.0  0.8031950029674706  0.588074036152257  0.79846490426241  1.0000
  C   C36       1.0  0.696805022855628  0.0880735254429226  0.20153362667709734  1.0000
  C   C37       1.0  0.0328519316379356  0.279949929091849  0.04258498130005251  1.0000
  C   C38       1.0  0.4671468978329187  0.7799464508194518  0.9574150673699223  1.0000
  C   C39       1.0  0.9671469064406182  0.7200526879195053  0.957414577683089  1.0000
  C   C40       1.0  0.5328531193824801  0.2200537728028706  0.04258470906290063  1.0000
  C   C41       1.0  0.1858755948318276  0.4292319858133666  0.0940556060052629  1.0000
  C   C42       1.0  0.3141220555021818  0.9292301031336619  0.9059442252150308  1.0000
  C   C43       1.0  0.8141256015204164  0.570769035605295  0.9059428762642769  1.0000
  C   C44       1.0  0.685876782576365  0.070769322692307  0.0940538221551463  1.0000
  C   C45       1.0  0.2859737007388645  0.48221922574364834  0.28891884850393273  1.0000
  C   C46       1.0  0.21402630786883495  0.9822197364529754  0.7110806618092341  1.0000
  C   C47       1.0  0.7140298538870695  0.5177825934713667  0.7110838476973812  1.0000
  C   C48       1.0  0.785973709346564  0.0177804871693397  0.2889183588171065  1.0000
  C   C49       1.0  0.2573536912375545  0.521803487056566  0.9578611064967504  1.0000
  C   C50       1.0  0.2426439590964549  0.0218029763472387  0.042138724723543006  1.0000
  C   C51       1.0  0.7426463259778444  0.4781975343620957  0.042137158323107826  1.0000
  C   C52       1.0  0.757354878982099  0.978195651682384  0.9578615900660811  1.0000
  C   C53       1.0  0.96476269174007  0.2352206791418254  0.8601780023034706  1.0000
  C   C54       1.0  0.5352373340830283  0.7352203920548063  0.13982128444251882  1.0000
  C   C55       1.0  0.0352361463384838  0.7647787466841435  0.13982004506670623  1.0000
  C   C56       1.0  0.4647626831323706  0.2647806293638553  0.8601769803773324  1.0000
  N   N1        1.0  0.1745924343622249  0.9880883263761432  0.4318005410284656  1.0000
  N   N2        1.0  0.3254087533823196  0.4880894112595087  0.568199942540872  1.0000
  N   N3        1.0  0.8254064037163218  0.0119103016534794  0.5681990179546759  1.0000
  N   N4        1.0  0.6745912638330793  0.5119108123628067  0.4318013455049155  1.0000
  N   N5        1.0  0.1062708872905063  0.3645594227992675  0.017579110873001003  1.0000
  N   N6        1.0  0.393725583906658  0.864555944526863  0.9824205028976111  1.0000
  N   N7        1.0  0.8937279507880476  0.6354423964157476  0.9824189364971758  1.0000
  N   N8        1.0  0.6062732541718887  0.1354434812991059  0.01757754447256589  1.0000
  O   O1        1.0  0.399938455942852  0.6952188832527852  0.4482201992707645  1.0000
  O   O2        1.0  0.1000650900753826  0.19522076593248977  0.5517829866173828  1.0000
  O   O3        1.0  0.6000662778199272  0.3047789469804911  0.5517812027672662  1.0000
  O   O4        1.0  0.8999349271400163  0.8047786598934792  0.44821905723488703  1.0000
  O   O5        1.0  0.3646374570778974  0.43065365890242185  0.37125693355962147  1.0000
  O   O6        1.0  0.13536255152980203  0.9306541696117562  0.6287425767535453  1.0000
  O   O7        1.0  0.6353637392743465  0.5693473625162397  0.6287438161293651  1.0000
  O   O8        1.0  0.8646351074119067  0.0693452562142127  0.37125600897342553  1.0000
  O   O9        1.0  0.2767599254322093  0.5823330936444862  0.2797840725103384  1.0000
  O   O10       1.0  0.2232400831754902  0.08233258293515888  0.7202146819963462  1.0000
  O   O11       1.0  0.7232436291937248  0.4176687255705218  0.720217867884493  1.0000
  O   O12       1.0  0.7767599340399087  0.9176668428908101  0.2797866060494415  1.0000
  O   O13       1.0  0.265256266372603  0.5118741137308831  0.06794145042985632  1.0000
  O   O14       1.0  0.2347366674140261  0.0118720074288561  0.932058266798194  1.0000
  O   O15       1.0  0.7347425717059508  0.4881277054841249  0.9320581085532853  1.0000
  O   O16       1.0  0.7652609915276758  0.9881282161934593  0.06794107473526623  1.0000
  O   O17       1.0  0.9548390760527355  0.213335529770923  0.9655492699573857  1.0000
  O   O18       1.0  0.5451597706335181  0.7133320514985186  0.03445055514540481  1.0000
  O   O19       1.0  0.0451609411626634  0.786666289444085  0.0344505064754372  1.0000
  O   O20       1.0  0.4548414257187261  0.2866673743274504  0.9655494387370994  1.0000
