data_image0
_chemical_formula_structural       AlH36C39N7O6
_chemical_formula_sum              "Al1 H36 C39 N7 O6"
_cell_length_a       3.99439329711121
_cell_length_b       18.03362986047731
_cell_length_c       18.056514379025913
_cell_angle_alpha    119.76605675358135
_cell_angle_beta     84.2180660022475
_cell_angle_gamma    93.6390863630258

_space_group_name_H-M_alt    "P 1"
_space_group_IT_number       1

loop_
  _space_group_symop_operation_xyz
  'x, y, z'

loop_
  _atom_site_type_symbol
  _atom_site_label
  _atom_site_symmetry_multiplicity
  _atom_site_fract_x
  _atom_site_fract_y
  _atom_site_fract_z
  _atom_site_occupancy
  Al  Al1       1.0  0.004170106882092711  1.4041755733299877e-05  0.49937452314607356  1.0000
  H   H1        1.0  0.7367602158470559  0.9445008537197594  0.20071459544018208  1.0000
  H   H2        1.0  0.7869678123663205  0.9579900153731201  0.303159471311545  1.0000
  H   H3        1.0  0.12133678836289619  0.9843986321404044  0.24855273542681264  1.0000
  H   H4        1.0  0.11581742510210805  0.03286726528142478  0.1628447934351911  1.0000
  H   H5        1.0  0.04514908710581271  0.11958204673145188  0.1474279636092817  1.0000
  H   H6        1.0  0.7417140954894348  0.0365208287042194  0.119371346437525  1.0000
  H   H7        1.0  0.41506187325464333  0.3063908931582588  0.5578068531905558  1.0000
  H   H8        1.0  0.33619660599914875  0.20447122915624052  0.5490328889919596  1.0000
  H   H9        1.0  0.03214909137982149  0.2508318408177033  0.5210124623533972  1.0000
  H   H10       1.0  0.10327834266843887  0.33459195447751716  0.4683613214022841  1.0000
  H   H11       1.0  0.20809434424055687  0.3444056642904202  0.3763657088606678  1.0000
  H   H12       1.0  0.4913771217005942  0.38318895396626823  0.4570619307346887  1.0000
  H   H13       1.0  0.4658769864559884  0.5722778946490619  0.4548633782462658  1.0000
  H   H14       1.0  0.13357473358892943  0.5320236193610908  0.38645595269720445  1.0000
  H   H15       1.0  0.08727019288141946  0.6304201338480695  0.48260867946351027  1.0000
  H   H16       1.0  0.09477328319292158  0.7878756133658342  0.5470833627053935  1.0000
  H   H17       1.0  0.4989666985665977  0.8353587978236308  0.5542486880341002  1.0000
  H   H18       1.0  0.4478986302625715  0.735680726676307  0.5514800092293227  1.0000
  H   H19       1.0  0.5528692865563869  0.5758937245120136  0.1131438606371588  1.0000
  H   H20       1.0  0.8890638034325846  0.5397649554920038  0.1430813822693011  1.0000
  H   H21       1.0  0.9237108646825548  0.6398491270376994  0.14694585373713648  1.0000
  H   H22       1.0  0.8891615294018109  0.7956168238429058  0.2384485188046383  1.0000
  H   H23       1.0  0.48253027067842424  0.8377823927769015  0.2787335548769077  1.0000
  H   H24       1.0  0.5356309832962155  0.7396072785896166  0.18173441025427178  1.0000
  H   H25       1.0  0.9089531139597042  0.029447853912813605  0.8691057509648985  1.0000
  H   H26       1.0  0.9881986348434991  0.1169359619811701  0.969983995283009  1.0000
  H   H27       1.0  0.28394230907555607  0.0342951888115977  0.9165860745580118  1.0000
  H   H28       1.0  0.27294463728186  0.9414172476301985  0.7435962956099971  1.0000
  H   H29       1.0  0.22409198495694943  0.954636781567821  0.6543223047059497  1.0000
  H   H30       1.0  0.8932142984191954  0.9813331917603705  0.7352235562954305  1.0000
  H   H31       1.0  0.942470670410557  0.3336686348728506  0.8607479643453075  1.0000
  H   H32       1.0  0.8546854069401632  0.3405416986083623  0.9615857222265448  1.0000
  H   H33       1.0  0.5631237395382912  0.38051380334154317  0.9233305449707528  1.0000
  H   H34       1.0  0.6326539562747017  0.3037749699006439  0.7440211978821906  1.0000
  H   H35       1.0  0.6964407871640715  0.20196160783305575  0.6517326213813135  1.0000
  H   H36       1.0  0.00911124353269337  0.24796875457836615  0.7248156344343357  1.0000
  C   C1        1.0  0.5502359089005182  0.0690664417316924  0.43524969039702904  1.0000
  C   C2        1.0  0.46752750559813444  0.06625834754233752  0.6317628342021067  1.0000
  C   C3        1.0  0.49698315538081766  0.8681598620088663  0.432175243245318  1.0000
  C   C4        1.0  0.47438163133623573  0.24499519384713153  0.3806777579652517  1.0000
  C   C5        1.0  0.625071803355084  0.2044921432925477  0.2953248666291515  1.0000
  C   C6        1.0  0.28199442604186936  0.11715077049592537  0.861834134901521  1.0000
  C   C7        1.0  0.4162461670558172  0.2015589654005154  0.9054768630812545  1.0000
  C   C8        1.0  0.5088139728409685  0.595079138607005  0.29469526637151916  1.0000
  C   C9        1.0  0.6033176628077469  0.6405545907295432  0.25044093347586477  1.0000
  C   C10       1.0  0.5695096483828832  0.24212306737724995  0.8600656112865295  1.0000
  C   C11       1.0  0.5791055390515253  0.1983339980898151  0.7700671517321851  1.0000
  C   C12       1.0  0.4484832679008051  0.11457112757996407  0.727746665416106  1.0000
  C   C13       1.0  0.3039069552151972  0.073088200082303  0.7718094263860991  1.0000
  C   C14       1.0  0.5765747086360802  0.7299953406037433  0.29479181299718954  1.0000
  C   C15       1.0  0.49674728001578217  0.7727301279299112  0.38404734440698707  1.0000
  C   C16       1.0  0.4204048950764445  0.7277724974732107  0.4290964081336809  1.0000
  C   C17       1.0  0.4070285437134301  0.6379666688411516  0.3833293828310571  1.0000
  C   C18       1.0  0.7507008072273321  0.12022696823316889  0.2559126100003866  1.0000
  C   C19       1.0  0.7221343127420212  0.076246484853506  0.3024273298973128  1.0000
  C   C20       1.0  0.5799249646520224  0.11762861229746592  0.3872483079094522  1.0000
  C   C21       1.0  0.4584003964174242  0.2012282410404964  0.4274547020739163  1.0000
  C   C22       1.0  0.6304569892109056  0.3773646044616825  0.2468191315323978  1.0000
  C   C23       1.0  0.5223417949121155  0.24288553492907994  0.11993742072704083  1.0000
  C   C24       1.0  0.6330408286664381  0.24938938001053398  0.24535770460854417  1.0000
  C   C25       1.0  0.5155189176146422  0.5006367816733146  0.24733221846098977  1.0000
  C   C26       1.0  0.41096036001765407  0.3758151642391212  0.12478027917796199  1.0000
  C   C27       1.0  0.4113260080561004  0.2471164681614937  0.9999134914360965  1.0000
  C   C28       1.0  0.8465612694419062  0.9862010064358273  0.2619271878723308  1.0000
  C   C29       1.0  0.9222830820035381  0.075463269475037  0.16688396183355536  1.0000
  C   C30       1.0  0.30419118208085644  0.2426614214673393  0.5184775617763506  1.0000
  C   C31       1.0  0.311420027219107  0.3311432080760284  0.4223669135564946  1.0000
  C   C32       1.0  0.26765116718272  0.5905710838832405  0.42920480119170173  1.0000
  C   C33       1.0  0.3624437152043285  0.7740590461728233  0.5253810960696015  1.0000
  C   C34       1.0  0.7486055924589793  0.5966027663584513  0.15851960416278382  1.0000
  C   C35       1.0  0.623825812113907  0.7782381861634348  0.24600968576084614  1.0000
  C   C36       1.0  0.1068443257567679  0.07261333589353569  0.9070699424616676  1.0000
  C   C37       1.0  0.16823969517607648  0.9830176286078539  0.7234946439706815  1.0000
  C   C38       1.0  0.7406795246783557  0.3285938759668384  0.9039182783383026  1.0000
  C   C39       1.0  0.7356447783038006  0.2399596964795521  0.719915656087835  1.0000
  N   N1        1.0  0.5213000963524834  0.3322759479697197  0.1639666231964654  1.0000
  N   N2        1.0  0.5590845713471777  0.20228667599759118  0.1631954528390835  1.0000
  N   N3        1.0  0.7058527947909498  0.3341572238605934  0.2852548885596278  1.0000
  N   N4        1.0  0.6488018659830884  0.4624277325266277  0.2853855851074555  1.0000
  N   N5        1.0  0.3864692823442724  0.4606666419067266  0.17030798519072468  1.0000
  N   N6        1.0  0.4858767907786116  0.20122960435185885  0.03624375860766795  1.0000
  N   N7        1.0  0.33876936938664665  0.3312988550236539  0.04302125746622913  1.0000
  O   O1        1.0  0.24670665981341947  0.905643984403099  0.4857295787017932  1.0000
  O   O2        1.0  0.30754481374696485  0.015175952970288599  0.4194108986937053  1.0000
  O   O3        1.0  0.2487011984531762  0.0815063176587429  0.5946132798963859  1.0000
  O   O4        1.0  0.7493598302782942  0.9076568080067061  0.4175776930907133  1.0000
  O   O5        1.0  0.7015824285548362  0.011899848161910101  0.5930483103576947  1.0000
  O   O6        1.0  0.7684493842182717  0.08356278392741248  0.487885790666617  1.0000
