data_image0
_chemical_formula_structural       Ba2H16C18S2N8O14
_chemical_formula_sum              "Ba2 H16 C18 S2 N8 O14"
_cell_length_a       6.809341656427173
_cell_length_b       7.310720698566603
_cell_length_c       14.926638649364877
_cell_angle_alpha    86.26356071171611
_cell_angle_beta     87.33559448808063
_cell_angle_gamma    63.91172616112059

_space_group_name_H-M_alt    "P 1"
_space_group_IT_number       1

loop_
  _space_group_symop_operation_xyz
  'x, y, z'

loop_
  _atom_site_type_symbol
  _atom_site_label
  _atom_site_symmetry_multiplicity
  _atom_site_fract_x
  _atom_site_fract_y
  _atom_site_fract_z
  _atom_site_occupancy
  Ba  Ba1       1.0  0.6883648915690801  0.6798453275379543  0.5642849469698633  1.0000
  Ba  Ba2       1.0  0.3116361712181758  0.32014655795438773  0.43571392636380324  1.0000
  H   H1        1.0  0.6121813887944472  0.8550213583531132  0.3557895952471172  1.0000
  H   H2        1.0  0.38781907085597583  0.14497522567453558  0.6442065191310606  1.0000
  H   H3        1.0  0.7850001038823894  0.9186103473023053  0.389848506357204  1.0000
  H   H4        1.0  0.21500251150892072  0.0813847599987056  0.6101462572968401  1.0000
  H   H5        1.0  0.6059889951813916  0.8411860680976487  0.9519293669343085  1.0000
  H   H6        1.0  0.39401188440840695  0.15881913153032198  0.04807394898074341  1.0000
  H   H7        1.0  0.5066872529506553  0.7882253752230427  0.7971061477760202  1.0000
  H   H8        1.0  0.49330549505084803  0.2117816247941917  0.20289526797025562  1.0000
  H   H9        1.0  0.356773997642712  0.6629405097909854  0.9531745846624133  1.0000
  H   H10       1.0  0.6432284445834072  0.3370482880703847  0.04682499278692381  1.0000
  H   H11       1.0  0.48643049557868795  0.6968728540702784  0.10535189978737951  1.0000
  H   H12       1.0  0.5135585747796798  0.3031358515937583  0.8946475384545991  1.0000
  H   H13       1.0  0.21154480392493022  0.8050347968144038  0.23194983908761202  1.0000
  H   H14       1.0  0.7884541982986946  0.1949812450300001  0.7680492838620979  1.0000
  H   H15       1.0  0.8253026834459122  0.8757659676231171  0.20373329638890436  1.0000
  H   H16       1.0  0.17468744069048375  0.12425010583475438  0.7962686644373846  1.0000
  C   C1        1.0  0.02970577904468287  0.6401248225289392  0.7684828620599833  1.0000
  C   C2        1.0  0.9702992993665946  0.3598744070634581  0.23151781149960027  1.0000
  C   C3        1.0  0.9490928280354395  0.7306743138096433  0.9136037180970362  1.0000
  C   C4        1.0  0.05092263546377037  0.26932473418486325  0.0863961042116159  1.0000
  C   C5        1.0  0.7285883363406216  0.7814252672575749  0.8986760832235775  1.0000
  C   C6        1.0  0.2714059335631305  0.21858150383950195  0.101328660751129  1.0000
  C   C7        1.0  0.674068239660585  0.7549131629713769  0.8136735861063331  1.0000
  C   C8        1.0  0.3259443672021548  0.24508896476706354  0.1863262286665446  1.0000
  C   C9        1.0  0.02678602621395493  0.7519432104786574  0.0014404638505282998  1.0000
  C   C10       1.0  0.9732191127022176  0.24805931197109737  0.9985554550065461  1.0000
  C   C11       1.0  0.24646832749012762  0.7101598450711463  0.011163129310553195  1.0000
  C   C12       1.0  0.753520532449194  0.28984274849258906  0.9888377687197902  1.0000
  C   C13       1.0  0.31655971178634695  0.7290216649507926  0.0947135074914343  1.0000
  C   C14       1.0  0.6834588178696706  0.2709768067997871  0.9052949836782462  1.0000
  C   C15       1.0  0.16389146997418888  0.7897052793490147  0.1653501200613192  1.0000
  C   C16       1.0  0.8361041793684266  0.21029840411708287  0.8346553280290652  1.0000
  C   C17       1.0  0.9475545002973154  0.8296493015943299  0.14935269646453966  1.0000
  C   C18       1.0  0.052461911770393506  0.17035405814385737  0.8506503783226125  1.0000
  S   S1        1.0  0.24464827113742166  0.5291355193238303  0.6838137358517643  1.0000
  S   S2        1.0  0.7553478090755591  0.4708607647676146  0.316189163875805  1.0000
  N   N1        1.0  0.8251398859310798  0.6839848248791681  0.7467689965695072  1.0000
  N   N2        1.0  0.174841217654695  0.31602842148134863  0.2532331780206079  1.0000
  N   N3        1.0  0.10036054840616514  0.6589235539955781  0.8469765782190423  1.0000
  N   N4        1.0  0.89963200407783  0.3410772549856135  0.15302763891836693  1.0000
  N   N5        1.0  0.8778331487465538  0.8116962178195378  0.0694270426447972  1.0000
  N   N6        1.0  0.12215972681678984  0.1883137198442455  0.9305756556114632  1.0000
  N   N7        1.0  0.191971365890936  0.8291541052483992  0.42010461560265366  1.0000
  N   N8        1.0  0.8080360589094652  0.17083029401386807  0.5798909354527879  1.0000
  O   O1        1.0  0.131544248325156  0.5349865011835248  0.6007528222145737  1.0000
  O   O2        1.0  0.8684494815281456  0.46500867719881706  0.3992441085146653  1.0000
  O   O3        1.0  0.37736179205710135  0.3195442304797923  0.7193146555291604  1.0000
  O   O4        1.0  0.6226327737044032  0.6804522430639396  0.2806855867713622  1.0000
  O   O5        1.0  0.36245833544820266  0.6554850284657617  0.6776915235871287  1.0000
  O   O6        1.0  0.6375435185426214  0.34450838899518743  0.3223066365094952  1.0000
  O   O7        1.0  0.36216913253529265  0.6963548894310635  0.4582445655726134  1.0000
  O   O8        1.0  0.6378273561957432  0.30363411368932697  0.541753773387974  1.0000
  O   O9        1.0  0.06788092805256  0.7653008652544526  0.384628746193144  1.0000
  O   O10       1.0  0.932122471091546  0.23469581348302174  0.6153646334224734  1.0000
  O   O11       1.0  0.1461785265910862  0.014753802802609104  0.4164817654091593  1.0000
  O   O12       1.0  0.8538343686786335  0.9852380668503644  0.5835128768881432  1.0000
  O   O13       1.0  0.6314504491150713  0.940682363585097  0.4005132804734331  1.0000
  O   O14       1.0  0.3685521811777834  0.05931266478017963  0.5994828247833865  1.0000
