data_image0
_chemical_formula_structural       Ag2Mo8H26C30N16O26
_chemical_formula_sum              "Ag2 Mo8 H26 C30 N16 O26"
_cell_length_a       10.438714408268215
_cell_length_b       10.452482613206524
_cell_length_c       12.15
_cell_angle_alpha    98.31736316344781
_cell_angle_beta     94.14054389316465
_cell_angle_gamma    107.35080336570984

_space_group_name_H-M_alt    "P 1"
_space_group_IT_number       1

loop_
  _space_group_symop_operation_xyz
  'x, y, z'

loop_
  _atom_site_type_symbol
  _atom_site_label
  _atom_site_symmetry_multiplicity
  _atom_site_fract_x
  _atom_site_fract_y
  _atom_site_fract_z
  _atom_site_occupancy
  Ag  Ag1       1.0  0.3454738655554621  0.5644021510471545  0.47695401482712196  1.0000
  Ag  Ag2       1.0  0.6545264752128475  0.43559589947758326  0.5230460929263216  1.0000
  Mo  Mo1       1.0  0.8587037528598103  0.5650658541808653  0.1127375139402034  1.0000
  Mo  Mo2       1.0  0.14129529948920086  0.4349342322430587  0.8872635902919938  1.0000
  Mo  Mo3       1.0  0.3204642357927767  0.5968319891354595  0.13405808220146295  1.0000
  Mo  Mo4       1.0  0.6795376863236909  0.4031711511372364  0.8659444031364671  1.0000
  Mo  Mo5       1.0  0.5722348951524054  0.4674200575588968  0.22491561554900133  1.0000
  Mo  Mo6       1.0  0.427766078155166  0.53258002886502  0.7750839617567564  1.0000
  Mo  Mo7       1.0  0.5908311738502973  0.6802682274086677  0.014648603874640283  1.0000
  Mo  Mo8       1.0  0.4091749181233126  0.3197328769648422  0.9853538867759539  1.0000
  H   H1        1.0  0.537392188710875  0.7762354251541268  0.3391989247346103  1.0000
  H   H2        1.0  0.462607191578158  0.22376262537060398  0.6608003003915144  1.0000
  H   H3        1.0  0.5288312389583041  0.8432256698258982  0.6883781667033589  1.0000
  H   H4        1.0  0.47116718085145237  0.1567723806988397  0.3116209988407164  1.0000
  H   H5        1.0  0.7273040683848889  0.1800325288662634  0.6101989717046905  1.0000
  H   H6        1.0  0.2726933909455838  0.8199655216584745  0.3898001342573351  1.0000
  H   H7        1.0  0.6935203514459616  0.1001448628692714  0.7298611576460275  1.0000
  H   H8        1.0  0.3064774241541385  0.8998542056050522  0.2701380946147935  1.0000
  H   H9        1.0  0.7852751242225151  0.1636832404760185  0.4436576496667469  1.0000
  H   H10       1.0  0.21472553281542864  0.8363158279983054  0.5563417813402154  1.0000
  H   H11       1.0  0.8405959923753483  0.3336309427385729  0.3148024489466721  1.0000
  H   H12       1.0  0.15940403212333357  0.666366089836572  0.6851966894627068  1.0000
  H   H13       1.0  0.07851628471827607  0.48315043259746193  0.3244262659903328  1.0000
  H   H14       1.0  0.9214830955707568  0.5168476179272758  0.6755713130452534  1.0000
  H   H15       1.0  0.2050722282570234  0.3130836302326898  0.5841845209262289  1.0000
  H   H16       1.0  0.7949280891705043  0.6869205279895922  0.4158179915464046  1.0000
  H   H17       1.0  0.28195244102245454  0.0351274045059711  0.7267336012259024  1.0000
  H   H18       1.0  0.7180478880754747  0.9648736998675387  0.2732660627966013  1.0000
  H   H19       1.0  0.4135977337978999  0.9391521495876985  0.8612489277203251  1.0000
  H   H20       1.0  0.5864019627607674  0.060846918886632295  0.13875044370459483  1.0000
  H   H21       1.0  0.07899975891837129  0.7968896223671251  0.024149949930702488  1.0000
  H   H22       1.0  0.9209986492209907  0.2031114820063848  0.9758495949277018  1.0000
  H   H23       1.0  0.9321377758440476  0.8815942258314351  0.8959320431493154  1.0000
  H   H24       1.0  0.06786031602568698  0.11840586059248177  0.10406653236503162  1.0000
  H   H25       1.0  0.2994897769374275  0.8290201832755101  0.9987563039260152  1.0000
  H   H26       1.0  0.7005083149322998  0.1709799031484067  0.0012439176788703048  1.0000
  C   C1        1.0  0.5562478616706699  0.8256161598412958  0.4264759701641482  1.0000
  C   C2        1.0  0.4437515186183631  0.174381890683442  0.5735232549619766  1.0000
  C   C3        1.0  0.5505282444942594  0.8566880531744374  0.6039031505637951  1.0000
  C   C4        1.0  0.44947017531549693  0.14330999735029337  0.39609601498028724  1.0000
  C   C5        1.0  0.7270311791970129  0.09000099518925708  0.6464125759491779  1.0000
  C   C6        1.0  0.2729672406127364  0.9099970553354808  0.35358658959490447  1.0000
  C   C7        1.0  0.9756642534675634  0.1359410602569042  0.6086314280692307  1.0000
  C   C8        1.0  0.024336391899986175  0.8640610620661988  0.3913700283425996  1.0000
  C   C9        1.0  0.9910999735174214  0.2277987955011866  0.5268869272197207  1.0000
  C   C10       1.0  0.00889939510121711  0.7722023088723233  0.4731135002660025  1.0000
  C   C11       1.0  0.8871775311610222  0.2343818755098894  0.4502693499039481  1.0000
  C   C12       1.0  0.11282248166727266  0.7656182109140345  0.5497301678197672  1.0000
  C   C13       1.0  0.9179007342918054  0.3272830090855336  0.37707710810903455  1.0000
  C   C14       1.0  0.0820996064765112  0.6727150414392042  0.6229221765991326  1.0000
  C   C15       1.0  0.0502087785152199  0.4110022373452011  0.3816020046210227  1.0000
  C   C16       1.0  0.9497918785227242  0.5889968311291297  0.6183974263859399  1.0000
  C   C17       1.0  0.12248135139615356  0.3154880271679872  0.5254434507224559  1.0000
  C   C18       1.0  0.877518017222492  0.6845130772055228  0.4745577998085296  1.0000
  C   C19       1.0  0.021726048871293795  0.0222829165595115  0.7289577961029181  1.0000
  C   C20       1.0  0.9782733197473445  0.9777181878139984  0.2710418083375359  1.0000
  C   C21       1.0  0.0984451924283292  0.9660657188392747  0.802598756000883  1.0000
  C   C22       1.0  0.9015528994414056  0.0339343675846493  0.19740064255873344  1.0000
  C   C23       1.0  0.23503734958681827  0.9826124894502754  0.7914999661692121  1.0000
  C   C24       1.0  0.7649617027621928  0.0173875969736415  0.20849949197245374  1.0000
  C   C25       1.0  0.30794455995666675  0.9318982407981551  0.8636102637778437  1.0000
  C   C26       1.0  0.6920548086619788  0.06810286357535489  0.1363885176173412  1.0000
  C   C27       1.0  0.11617981513703769  0.8501976065785755  0.9565207659586861  1.0000
  C   C28       1.0  0.883822751189072  0.1498045157445276  0.04348080961723609  1.0000
  C   C29       1.0  0.0382373159827551  0.8975963934109501  0.8861266683107233  1.0000
  C   C30       1.0  0.9617639735944506  0.1024047109625599  0.11387387833909199  1.0000
  N   N1        1.0  0.49737711495082937  0.7648170845854664  0.5109269557269087  1.0000
  N   N2        1.0  0.502621304858927  0.23518096593927137  0.48907220981716654  1.0000
  N   N3        1.0  0.6404770415279728  0.9499556486030514  0.46219510292309  1.0000
  N   N4        1.0  0.3595210620121563  0.050041383972093484  0.5378047393674663  1.0000
  N   N5        1.0  0.6356824006023345  0.9684517926819183  0.5751138422870383  1.0000
  N   N6        1.0  0.3643169796866985  0.0315462578428196  0.4248853828390864  1.0000
  N   N7        1.0  0.862538483120474  0.0803650843554351  0.6586647103371135  1.0000
  N   N8        1.0  0.1374599250188879  0.9196360200180748  0.34133483452129104  1.0000
  N   N9        1.0  0.8907492364568482  0.007678393769225498  0.734803750025975  1.0000
  N   N10       1.0  0.10924981589216291  0.9923216926546913  0.2651957081156837  1.0000
  N   N11       1.0  0.07703557338557938  0.0990220644697715  0.6523666873901348  1.0000
  N   N12       1.0  0.9229628347537896  0.9009790399037456  0.3476328574682697  1.0000
  N   N13       1.0  0.15112709379559416  0.4056936302251515  0.4555523214026707  1.0000
  N   N14       1.0  0.8488713143437676  0.5943074741483656  0.5444464004104645  1.0000
  N   N15       1.0  0.24724146963187366  0.868939076509008  0.9435232130537088  1.0000
  N   N16       1.0  0.7527585431964211  0.1310610099149088  0.05647712771526869  1.0000
  O   O1        1.0  0.012673088086202693  0.6864217326897233  0.15508327380256756  1.0000
  O   O2        1.0  0.9873333084866402  0.3135834434821518  0.8449180963706057  1.0000
  O   O3        1.0  0.7519555084072705  0.5840669012571453  0.2332957654313148  1.0000
  O   O4        1.0  0.24804612078034438  0.4159291133684064  0.7667049919339065  1.0000
  O   O5        1.0  0.8822979647407081  0.41559624385196503  0.13678137212794889  1.0000
  O   O6        1.0  0.11770587833431989  0.584406896420731  0.8632187632382795  1.0000
  O   O7        1.0  0.8376775825498227  0.5264438287270252  0.9505535883752075  1.0000
  O   O8        1.0  0.1623198651102626  0.4735572756464848  0.049449189082224614  1.0000
  O   O9        1.0  0.31279251118686346  0.7547678862174649  0.1124506087484178  1.0000
  O   O10       1.0  0.6872055806828712  0.245232200206452  0.8875512589469992  1.0000
  O   O11       1.0  0.28379135580776443  0.5909309353531212  0.26939773968826597  1.0000
  O   O12       1.0  0.7162105779790905  0.4090691510708026  0.7306018971995343  1.0000
  O   O13       1.0  0.5225280301933353  0.6572137050587443  0.15926922299286866  1.0000
  O   O14       1.0  0.4774726268446087  0.3427853634155866  0.8407302080140936  1.0000
  O   O15       1.0  0.5337501349654231  0.52379105209139  0.3558199348232591  1.0000
  O   O16       1.0  0.46624860111396055  0.476208016382941  0.6441793770196114  1.0000
  O   O17       1.0  0.5978912536282692  0.3144324134415228  0.2357022670362738  1.0000
  O   O18       1.0  0.40210844293039827  0.6855666550328009  0.7642979274339154  1.0000
  O   O19       1.0  0.390357932444104  0.4007240003190944  0.1378425503083918  1.0000
  O   O20       1.0  0.6096430408634745  0.5992760861048225  0.8621586730878974  1.0000
  O   O21       1.0  0.604273805275966  0.4551354418878049  0.0372492362688703  1.0000
  O   O22       1.0  0.3957242865937687  0.544864644536112  0.9627509853360151  1.0000
  O   O23       1.0  0.5633865977206156  0.8279269054141593  0.9909578147383726  1.0000
  O   O24       1.0  0.4366130988380447  0.1720721630601645  0.009042379731816692  1.0000
  O   O25       1.0  0.763802675981239  0.7242334702686719  0.06558327750283147  1.0000
  O   O26       1.0  0.23619062516248587  0.27576356230648  0.9344179129680158  1.0000
