data_image0
_chemical_formula_structural       Cu2H12C14N8O10
_chemical_formula_sum              "Cu2 H12 C14 N8 O10"
_cell_length_a       6.513391154311423
_cell_length_b       6.96184961929276
_cell_length_c       11.672570496054298
_cell_angle_alpha    78.54077552491957
_cell_angle_beta     75.432599426956
_cell_angle_gamma    79.32129752737524

_space_group_name_H-M_alt    "P 1"
_space_group_IT_number       1

loop_
  _space_group_symop_operation_xyz
  'x, y, z'

loop_
  _atom_site_type_symbol
  _atom_site_label
  _atom_site_symmetry_multiplicity
  _atom_site_fract_x
  _atom_site_fract_y
  _atom_site_fract_z
  _atom_site_occupancy
  Cu  Cu1       1.0  5.4993108947031914e-06  5.850967674795221e-06  0.9999968012107201  1.0000
  Cu  Cu2       1.0  0.5000059670682407  0.9999972711384685  0.9999999113516934  1.0000
  H   H1        1.0  0.47230626651663954  0.7389540490355915  0.34739783344282665  1.0000
  H   H2        1.0  0.5276976829840123  0.26104489395331854  0.6526014912885856  1.0000
  H   H3        1.0  0.40958819238932165  0.6118348441505786  0.5697670036051292  1.0000
  H   H4        1.0  0.5904088469395534  0.3881568496605823  0.4302401720090287  1.0000
  H   H5        1.0  0.7289103458649395  0.7528129179493989  0.5999689611302087  1.0000
  H   H6        1.0  0.27108377820791674  0.24718880701586704  0.4000168139924438  1.0000
  H   H7        1.0  0.7917443041681339  0.8786393029066131  0.37761271175568817  1.0000
  H   H8        1.0  0.20827728839606865  0.12135920642693782  0.6223653766466768  1.0000
  H   H9        1.0  0.8080466612434948  0.6295799590190114  0.08494274714518465  1.0000
  H   H10       1.0  0.19194429961249435  0.3704101967243147  0.9150594627039507  1.0000
  H   H11       1.0  0.8226401342153908  0.6366482817943577  0.9463515763212056  1.0000
  H   H12       1.0  0.17735123677069004  0.3633389556611704  0.053653508300030205  1.0000
  C   C1        1.0  0.17688103240886488  0.8797072588363334  0.21665423408203574  1.0000
  C   C2        1.0  0.8231261409362605  0.12029157662531989  0.7833395173225738  1.0000
  C   C3        1.0  0.13553668223064358  0.8097714309378576  0.3498981679263124  1.0000
  C   C4        1.0  0.8644761231192747  0.1902214496785675  0.6500955412964088  1.0000
  C   C5        1.0  0.3111007396142257  0.7388196791422174  0.4034195270600732  1.0000
  C   C6        1.0  0.68889943116956  0.261161596323717  0.5965859346687026  1.0000
  C   C7        1.0  0.27780889811880644  0.6674130950209046  0.5253105309398336  1.0000
  C   C8        1.0  0.7221853229196571  0.3325873643960263  0.47468823875731647  1.0000
  C   C9        1.0  0.06760436169617627  0.6695023167605642  0.5926411333744923  1.0000
  C   C10       1.0  0.9323893931606336  0.3305011613270493  0.4073607541667883  1.0000
  C   C11       1.0  0.8898666162524339  0.7477028478701656  0.5429782949622391  1.0000
  C   C12       1.0  0.11013494910999104  0.25230189941547815  0.45701293036016466  1.0000
  C   C13       1.0  0.9256890297332847  0.8168312568538881  0.4201692351478384  1.0000
  C   C14       1.0  0.07432401301599613  0.18317058298971026  0.5798284726797646  1.0000
  N   N1        1.0  0.3044626969367883  0.8623695671133119  0.9402945317157362  1.0000
  N   N2        1.0  0.6955414135883943  0.13762799560395683  0.0597109388859138  1.0000
  N   N3        1.0  0.35687890449889187  0.8490668891203726  0.8343140692343382  1.0000
  N   N4        1.0  0.6431271834657509  0.15093934961385003  0.16567891590025852  1.0000
  N   N5        1.0  0.4072548610188492  0.8345373827684597  0.7334936635498792  1.0000
  N   N6        1.0  0.5927359757603273  0.1654855159127919  0.2665165047457733  1.0000
  N   N7        1.0  0.03520283083270211  0.5849501936617542  0.7194127162979526  1.0000
  N   N8        1.0  0.9647886448588567  0.41505780883385074  0.28059321032078793  1.0000
  O   O1        1.0  0.3691828165266245  0.9037743075007186  0.1661273796741085  1.0000
  O   O2        1.0  0.6308322162455229  0.09622461765309957  0.8338738406143305  1.0000
  O   O3        1.0  0.01644487936417962  0.9083589638157719  0.16879047934673247  1.0000
  O   O4        1.0  0.9835657312026741  0.0916487663670296  0.831204265600064  1.0000
  O   O5        1.0  0.19397098549594458  0.4910928892194805  0.7568873513614204  1.0000
  O   O6        1.0  0.8060086633062655  0.5089092622567719  0.2431200793797075  1.0000
  O   O7        1.0  0.8510948330095546  0.6094240673245251  0.7836510068895705  1.0000
  O   O8        1.0  0.1488887955708834  0.39059429970100706  0.2163521522842657  1.0000
  O   O9        1.0  0.8053318672663039  0.718419656280993  0.008450049164615366  1.0000
  O   O10       1.0  0.19468217648125832  0.2815644551316296  0.991551428286378  1.0000
