data_image0
_chemical_formula_structural       Dy4H44C60N8O32
_chemical_formula_sum              "Dy4 H44 C60 N8 O32"
_cell_length_a       13.360702971057135
_cell_length_b       14.43370957330647
_cell_length_c       15.995856612897164
_cell_angle_alpha    116.81757727758102
_cell_angle_beta     96.80031905394053
_cell_angle_gamma    90.005969014509

_space_group_name_H-M_alt    "P 1"
_space_group_IT_number       1

loop_
  _space_group_symop_operation_xyz
  'x, y, z'

loop_
  _atom_site_type_symbol
  _atom_site_label
  _atom_site_symmetry_multiplicity
  _atom_site_fract_x
  _atom_site_fract_y
  _atom_site_fract_z
  _atom_site_occupancy
  Dy  Dy1       1.0  0.03189831635612712  0.10610436996802254  0.6317797356115521  1.0000
  Dy  Dy2       1.0  0.46816521676597495  0.47435325681252744  0.3682792805671582  1.0000
  Dy  Dy3       1.0  0.968099711368737  0.893895224389631  0.3682188795161919  1.0000
  Dy  Dy4       1.0  0.5318362188355151  0.5256509912644134  0.6317177686336493  1.0000
  H   H1        1.0  0.2500950344903572  0.05750585145374742  0.6745293998067652  1.0000
  H   H2        1.0  0.249961201781197  0.38292321290160897  0.3254371843337083  1.0000
  H   H3        1.0  0.7499144783560113  0.9425055295155075  0.3254841280070195  1.0000
  H   H4        1.0  0.7500580162150358  0.61706010205954  0.6745856073611379  1.0000
  H   H5        1.0  0.1804457325327036  0.05077314640367099  0.7451558059590867  1.0000
  H   H6        1.0  0.31964388341400257  0.30562345695825843  0.25482185255281553  1.0000
  H   H7        1.0  0.8195518581835801  0.9492181753624533  0.254839976532203  1.0000
  H   H8        1.0  0.6803751144151847  0.694383968874888  0.7451822743220688  1.0000
  H   H9        1.0  0.15784512662529693  0.27511518699407134  0.6496998709716238  1.0000
  H   H10       1.0  0.3420659036545218  0.6253777240172909  0.35038015285064006  1.0000
  H   H11       1.0  0.8421473534423285  0.724888502542761  0.35029817181170847  1.0000
  H   H12       1.0  0.6579242974289273  0.37460551190960684  0.6496230961240598  1.0000
  H   H13       1.0  0.07206230145762052  0.32939210513679723  0.7104206676244901  1.0000
  H   H14       1.0  0.42786267664518357  0.6190483232543044  0.2896592064619057  1.0000
  H   H15       1.0  0.9279395068159461  0.6706093904336682  0.2895930790423051  1.0000
  H   H16       1.0  0.5721361913122252  0.380971051669654  0.7103607610712713  1.0000
  H   H17       1.0  0.29283289187723943  0.2352708978020528  0.5462158009494686  1.0000
  H   H18       1.0  0.20691071172583975  0.6888961268519153  0.4536953065850681  1.0000
  H   H19       1.0  0.7071657541578631  0.7647307670330716  0.45378255227556247  1.0000
  H   H20       1.0  0.7930906330516265  0.3111121595605156  0.5463042278907865  1.0000
  H   H21       1.0  0.43728025317860647  0.2021788828045814  0.307517096429315  1.0000
  H   H22       1.0  0.0628852717771835  0.8947942139435199  0.6925908053159517  1.0000
  H   H23       1.0  0.5627225686386055  0.797815292155043  0.6924807654937623  1.0000
  H   H24       1.0  0.9371119116742223  0.10520746967846861  0.30740834420078045  1.0000
  H   H25       1.0  0.2308137183434837  0.9577677970370148  0.2810529860531189  1.0000
  H   H26       1.0  0.26910854069849693  0.6765891080559001  0.718840798802809  1.0000
  H   H27       1.0  0.7691836909556854  0.04223035169546542  0.7189465163143113  1.0000
  H   H28       1.0  0.7308920960992679  0.3234148976914851  0.28115522948097293  1.0000
  H   H29       1.0  0.4032958764547274  0.9857110951533059  0.0337355096023514  1.0000
  H   H30       1.0  0.0968033471690006  0.9519988586318673  0.9662440455725444  1.0000
  H   H31       1.0  0.5967038850558808  0.014283238786383367  0.966261732115349  1.0000
  H   H32       1.0  0.9031962330399351  0.04800167742187259  0.03375629068431609  1.0000
  H   H33       1.0  0.4623460079796899  0.867225904654262  0.8785216865991146  1.0000
  H   H34       1.0  0.0376639455310936  0.9886545395133908  0.1214054556498567  1.0000
  H   H35       1.0  0.5376541596412494  0.1327643159526062  0.12147844146298331  1.0000
  H   H36       1.0  0.9623349714751442  0.011343133395243458  0.8785935711308072  1.0000
  H   H37       1.0  0.40859957205934466  0.6035834704520154  0.9277370539846927  1.0000
  H   H38       1.0  0.09165218330395669  0.6759807703207201  0.0724248876471165  1.0000
  H   H39       1.0  0.591392831640306  0.39641016475436436  0.07226259781260319  1.0000
  H   H40       1.0  0.9083503669648468  0.32402052082691307  0.9275754274052447  1.0000
  H   H41       1.0  0.3498801038321843  0.7224702281236333  0.08398780052745264  1.0000
  H   H42       1.0  0.15043207175995832  0.6385839231362737  0.9161815715394965  1.0000
  H   H43       1.0  0.6501106567902825  0.27752525401753286  0.9160113647418131  1.0000
  H   H44       1.0  0.8495683073681589  0.36141623039470966  0.08381916029740202  1.0000
  C   C1        1.0  0.2515644173871578  0.09348450992510482  0.41706098051899687  1.0000
  C   C2        1.0  0.24825107684655734  0.6762349687314924  0.5828153760164128  1.0000
  C   C3        1.0  0.7484327657178796  0.9065190482537914  0.5829400450086837  1.0000
  C   C4        1.0  0.7517509764878979  0.32377447408444465  0.4171845379666052  1.0000
  C   C5        1.0  0.30372118501308176  0.19018024464962482  0.47244881553212553  1.0000
  C   C6        1.0  0.1960718307123486  0.7175784354830697  0.5274695842018318  1.0000
  C   C7        1.0  0.6962795869238789  0.8098236396914301  0.5275494255404141  1.0000
  C   C8        1.0  0.8039323487548699  0.2824319771341947  0.4725289669547336  1.0000
  C   C9        1.0  0.3695384252551648  0.230202895425343  0.43338596265498813  1.0000
  C   C10       1.0  0.1303959256472496  0.79678576169114  0.5666035680620567  1.0000
  C   C11       1.0  0.6304655877127914  0.7697977520831215  0.5666129307686915  1.0000
  C   C12       1.0  0.8696034739527577  0.20321722736282058  0.43339611071205303  1.0000
  C   C13       1.0  0.3855411505456631  0.17259106823941286  0.3390774958215985  1.0000
  C   C14       1.0  0.114547812261435  0.8335847257561184  0.6609713789112704  1.0000
  C   C15       1.0  0.6144638874201435  0.8274044121521839  0.6609208953588562  1.0000
  C   C16       1.0  0.8854508786661269  0.16641773174663388  0.33902854569266333  1.0000
  C   C17       1.0  0.33809053687385676  0.0728806708464234  0.28543327868877816  1.0000
  C   C18       1.0  0.16199213417380784  0.7874414713425039  0.7145524859572703  1.0000
  C   C19       1.0  0.6619122397045273  0.9271145860024887  0.714564887866345  1.0000
  C   C20       1.0  0.8380067374781461  0.2125579083077155  0.28544747079242677  1.0000
  C   C21       1.0  0.2695428122315846  0.03405792487078681  0.32375612011237825  1.0000
  C   C22       1.0  0.2303792048227677  0.7101620724207933  0.6761391032501791  1.0000
  C   C23       1.0  0.7304551700235464  0.96594400108075  0.6762440503213795  1.0000
  C   C24       1.0  0.769618462030593  0.2898405533803937  0.3238563209011076  1.0000
  C   C25       1.0  0.42404307620865467  0.3328706766368937  0.4948315630086526  1.0000
  C   C26       1.0  0.07587297086080014  0.8380705173374066  0.5052185454224299  1.0000
  C   C27       1.0  0.5759591591201954  0.6671288149511694  0.5051615044133086  1.0000
  C   C28       1.0  0.9241226602219826  0.1619295997361903  0.49477825762819805  1.0000
  C   C29       1.0  0.1752615223638685  0.053936612236079  0.45690597017254936  1.0000
  C   C30       1.0  0.32461725371558  0.5969356710013328  0.5430419899553555  1.0000
  C   C31       1.0  0.8247340187030829  0.946063169206873  0.5430889407942486  1.0000
  C   C32       1.0  0.6753888712754732  0.4030781644174795  0.45695454089199933  1.0000
  C   C33       1.0  0.3757282078100986  0.8602339000268202  0.06818581806923864  1.0000
  C   C34       1.0  0.1245091270094889  0.7921114492740031  0.9318746029044007  1.0000
  C   C35       1.0  0.624266367492048  0.13975837338699634  0.9318109155955839  1.0000
  C   C36       1.0  0.8754903181757073  0.2078885833337623  0.0681228952267077  1.0000
  C   C37       1.0  0.40542274847749843  0.9022604740606612  0.010086352820891849  1.0000
  C   C38       1.0  0.09473080126408462  0.892212098470722  0.9899227745403465  1.0000
  C   C39       1.0  0.5945770579255694  0.09773465254665581  0.9899124602757112  1.0000
  C   C40       1.0  0.9052725481548052  0.1077875604495517  0.010076685418084695  1.0000
  C   C41       1.0  0.4377209650963465  0.8368099843972984  0.9245029033343996  1.0000
  C   C42       1.0  0.06237041641654171  0.9122956038761743  0.07547999274191121  1.0000
  C   C43       1.0  0.5622806196385568  0.1631825490165895  0.07549798374201798  1.0000
  C   C44       1.0  0.9376320439518866  0.08770472678850884  0.9245178048896323  1.0000
  C   C45       1.0  0.4400801406790649  0.729239515268233  0.8956404799260085  1.0000
  C   C46       1.0  0.06008537523986487  0.8336560662879151  0.10440232472439688  1.0000
  C   C47       1.0  0.5599206002442045  0.2707526080007838  0.10435844019147568  1.0000
  C   C48       1.0  0.9399117632036251  0.16634544951875077  0.89559587875042  1.0000
  C   C49       1.0  0.40743134089159133  0.6873092143245358  0.9522322638125972  1.0000
  C   C50       1.0  0.09285568426524551  0.7351757443625571  0.04789290783631362  1.0000
  C   C51       1.0  0.592564213361392  0.3126833478278214  0.047768649599937915  1.0000
  C   C52       1.0  0.9071400369488246  0.26482408348937986  0.952105161961164  1.0000
  C   C53       1.0  0.37510318983785146  0.7525422959295297  0.0380439634263681  1.0000
  C   C54       1.0  0.12519496296407343  0.7146018940398021  0.9620908285964092  1.0000
  C   C55       1.0  0.6248899228805912  0.24744999627115027  0.9619535665301484  1.0000
  C   C56       1.0  0.8748053258018517  0.2853997984174441  0.0379098871676078  1.0000
  C   C57       1.0  0.4781639543423923  0.6591663473171817  0.8053643657562262  1.0000
  C   C58       1.0  0.021868578574704124  0.8538167112569537  0.1946081876784475  1.0000
  C   C59       1.0  0.5218350073253929  0.3408333679636896  0.19463748307730808  1.0000
  C   C60       1.0  0.9781301577071416  0.1461840395042058  0.8053908069564528  1.0000
  N   N1        1.0  0.36542130495328  0.016302009354696206  0.19353041724046702  1.0000
  N   N2        1.0  0.13472491416592192  0.8227573608157142  0.8064822249508197  1.0000
  N   N3        1.0  0.6345814263862763  0.9836943293834962  0.8064680539467091  1.0000
  N   N4        1.0  0.8652755555553073  0.17724000408440332  0.19351727228499271  1.0000
  N   N5        1.0  0.34699055633675613  0.919030999348827  0.15884660220666533  1.0000
  N   N6        1.0  0.1532288498374115  0.7602111816935987  0.841198327505701  1.0000
  N   N7        1.0  0.6530086314097048  0.08096393133792654  0.8411543488035989  1.0000
  N   N8        1.0  0.8467690881025335  0.23978682732879258  0.1587971448642378  1.0000
  O   O1        1.0  0.13045930588514656  0.9661581458539175  0.4024245917153877  1.0000
  O   O2        1.0  0.3694816230611194  0.5637328105315333  0.5975737463829064  1.0000
  O   O3        1.0  0.8695387216088121  0.03384269820833898  0.597575274086317  1.0000
  O   O4        1.0  0.6305254808807704  0.43628131362582667  0.40242696421216095  1.0000
  O   O5        1.0  0.160108825388015  0.1115933252981449  0.542308686535165  1.0000
  O   O6        1.0  0.33983101077033956  0.5692299147787664  0.45766603301760256  1.0000
  O   O7        1.0  0.8398858260512017  0.8884102521507343  0.45768768878965443  1.0000
  O   O8        1.0  0.660173349421271  0.430777419985965  0.5423325502847263  1.0000
  O   O9        1.0  0.44050408996682927  0.3637035288598298  0.5833544455876094  1.0000
  O   O10       1.0  0.059250119535001006  0.7803879466643265  0.41671310312398896  1.0000
  O   O11       1.0  0.5594971651411741  0.6363025473650337  0.4166413207934667  1.0000
  O   O12       1.0  0.9407420580859734  0.21961047313617135  0.5832874464965769  1.0000
  O   O13       1.0  0.454609248325994  0.38841844625102334  0.4577601392750736  1.0000
  O   O14       1.0  0.045480341734638316  0.9307482714476335  0.5423887330374838  1.0000
  O   O15       1.0  0.5453900621818163  0.6115792083538593  0.5422326447193342  1.0000
  O   O16       1.0  0.9545199468003814  0.0692546707142228  0.45761323340050103  1.0000
  O   O17       1.0  0.517386484847286  0.6983800794171344  0.7578942322168345  1.0000
  O   O18       1.0  0.9825641893694057  0.9404401843461443  0.24207315432892781  1.0000
  O   O19       1.0  0.4826133207475962  0.3016194211563032  0.2421089582386529  1.0000
  O   O20       1.0  0.017429315696063017  0.059558338073827474  0.7579243862111725  1.0000
  O   O21       1.0  0.47139445310156003  0.5607964063685884  0.7758764741086283  1.0000
  O   O22       1.0  0.028625856207291578  0.7848983641282814  0.22405433003341094  1.0000
  O   O23       1.0  0.5286067706463768  0.4391997833411451  0.2241218473283269  1.0000
  O   O24       1.0  0.9713788653176466  0.21510343978369656  0.7759449428974321  1.0000
  O   O25       1.0  0.19597934038262113  0.08996857007338828  0.7115449670443681  1.0000
  O   O26       1.0  0.30408486118037104  0.3784152723087573  0.28844406447819887  1.0000
  O   O27       1.0  0.8040182491791157  0.9100290002157789  0.28845706881676136  1.0000
  O   O28       1.0  0.6959144160046478  0.6215831182701661  0.7115619053008118  1.0000
  O   O29       1.0  0.12422493514514345  0.27997255403265325  0.7024420992286479  1.0000
  O   O30       1.0  0.37578191299900965  0.5775581572049687  0.2976896184160935  1.0000
  O   O31       1.0  0.8757755794685451  0.7200256035350846  0.2975589693860741  1.0000
  O   O32       1.0  0.6242190390850695  0.4224457735450783  0.7023117814871327  1.0000
