data_image0
_chemical_formula_structural       Ag2H18C23N12
_chemical_formula_sum              "Ag2 H18 C23 N12"
_cell_length_a       7.78876519986639
_cell_length_b       8.26966216682099
_cell_length_c       10.316957333789958
_cell_angle_alpha    103.44350945756477
_cell_angle_beta     94.3407817083621
_cell_angle_gamma    89.61601766294586

_space_group_name_H-M_alt    "P 1"
_space_group_IT_number       1

loop_
  _space_group_symop_operation_xyz
  'x, y, z'

loop_
  _atom_site_type_symbol
  _atom_site_label
  _atom_site_symmetry_multiplicity
  _atom_site_fract_x
  _atom_site_fract_y
  _atom_site_fract_z
  _atom_site_occupancy
  Ag  Ag1       1.0  0.18755327376922545  0.1521119684917949  0.4642547425118408  1.0000
  Ag  Ag2       1.0  0.34707588653854066  0.32667848156144424  0.1220446386866172  1.0000
  H   H1        1.0  0.9540483325887692  0.1794120227829197  0.9627148304833214  1.0000
  H   H2        1.0  0.8592136191333067  0.600364020263541  0.8152962042297176  1.0000
  H   H3        1.0  0.0170159223389774  0.47361991257570685  0.6128573789526541  1.0000
  H   H4        1.0  0.2283618892881165  0.9798521918871189  0.6929516479673481  1.0000
  H   H5        1.0  0.012849726272605697  0.9074902360752048  0.6809632048915262  1.0000
  H   H6        1.0  0.1330104741789739  0.9543613559127094  0.8394788450954707  1.0000
  H   H7        1.0  0.5722990687020513  0.31787282510039455  0.6162895723951962  1.0000
  H   H8        1.0  0.6727127661948414  0.8905205763629525  0.7532016614061448  1.0000
  H   H9        1.0  0.5264140142314347  0.0135544132280785  0.9613303727008714  1.0000
  H   H10       1.0  0.3084375814645739  0.511537944665804  0.8934219840492972  1.0000
  H   H11       1.0  0.3988114965920743  0.5402495639675919  0.7458647449501896  1.0000
  H   H12       1.0  0.5232568370518322  0.5846739260980981  0.9022419449598972  1.0000
  H   H13       1.0  0.016675261199011998  0.40433799790230307  0.3067839540370301  1.0000
  H   H14       1.0  0.5070315672031072  0.06214901924099791  0.2889871480488537  1.0000
  H   H15       1.0  0.790437838573169  0.996145294663961  0.40046657020533155  1.0000
  H   H16       1.0  0.5937782728283735  0.5663934849556896  0.1930967733305309  1.0000
  H   H17       1.0  0.759590755457623  0.4898665690459083  0.08507674944038261  1.0000
  H   H18       1.0  0.8144098701274985  0.6197279051754235  0.2459040165524442  1.0000
  C   C1        1.0  0.47769274149508323  0.6697400540059416  0.47666034730595896  1.0000
  C   C2        1.0  0.39395725418742694  0.808535072134994  0.44798963460105057  1.0000
  C   C3        1.0  0.38184797656765573  0.5252664600450955  0.47059969131345275  1.0000
  C   C4        1.0  0.6560280222422674  0.6755134984596155  0.5121576156994792  1.0000
  C   C5        1.0  0.057219866129983595  0.8114422135623868  0.10167214377639054  1.0000
  C   C6        1.0  0.1556469243003775  0.9550391715999281  0.11121134117559708  1.0000
  C   C7        1.0  0.1360537706903671  0.669890131790801  0.129513097503164  1.0000
  C   C8        1.0  0.881297119694793  0.8129352016449048  0.05913850116232309  1.0000
  C   C9        1.0  0.0471813239968952  0.16760730064275012  0.7677068079999216  1.0000
  C   C10       1.0  0.9660271152626266  0.2447163026281203  0.8831193032729487  1.0000
  C   C11       1.0  0.9156363316381545  0.4771038077017947  0.8029993079779272  1.0000
  C   C12       1.0  0.0010309228326050967  0.4061671144764958  0.6903788330358438  1.0000
  C   C13       1.0  0.10951252844592571  0.9928553028877473  0.7449569699853953  1.0000
  C   C14       1.0  0.48782126742400317  0.3247659297754453  0.8130730793361494  1.0000
  C   C15       1.0  0.5639411038423107  0.24988540838764808  0.6945526067134793  1.0000
  C   C16       1.0  0.617489101981029  0.0145184759708741  0.7686679283657867  1.0000
  C   C17       1.0  0.5377838294597268  0.0834735542010279  0.8848326110106868  1.0000
  C   C18       1.0  0.4254619781030727  0.4997605159249048  0.8392579153067031  1.0000
  C   C19       1.0  0.9018455964049681  0.328132145782817  0.3033622940109382  1.0000
  C   C20       1.0  0.7435934330694778  0.3706859484649456  0.2462355526780371  1.0000
  C   C21       1.0  0.6214109826966235  0.139289689344821  0.2938972644985895  1.0000
  C   C22       1.0  0.7778852135191627  0.1013431967537954  0.3535383362622326  1.0000
  C   C23       1.0  0.7264208124243582  0.5205651414510798  0.19005686390869408  1.0000
  N   N1        1.0  0.3224728777701173  0.9243519898404742  0.4234454869492481  1.0000
  N   N2        1.0  0.30218531874386667  0.404203158396257  0.4668396093286162  1.0000
  N   N3        1.0  0.804794093074044  0.6807625570451705  0.5418229963863936  1.0000
  N   N4        1.0  0.23408685019325756  0.07702076656929077  0.1159648561139761  1.0000
  N   N5        1.0  0.20532254583667253  0.5523875601551679  0.1529767437390177  1.0000
  N   N6        1.0  0.7352796616364118  0.8168059288953914  0.02236417780038383  1.0000
  N   N7        1.0  0.0658567983931206  0.25232318460787434  0.6727908996637311  1.0000
  N   N8        1.0  0.8994446332766942  0.3967977248130623  0.9005225965996005  1.0000
  N   N9        1.0  0.4735494197219553  0.23789041025904817  0.9072685687314248  1.0000
  N   N10       1.0  0.6295905176699678  0.09703355265623509  0.6718553188596985  1.0000
  N   N11       1.0  0.9191372413026572  0.19523187902158404  0.35633416324749584  1.0000
  N   N12       1.0  0.604268635576851  0.27278549033025007  0.2407034240914285  1.0000
