data_image0
_chemical_formula_structural       Zn16H24C96S16N8O76
_chemical_formula_sum              "Zn16 H24 C96 S16 N8 O76"
_cell_length_a       19.628823680474838
_cell_length_b       19.616493320884278
_cell_length_c       33.37691951613617
_cell_angle_alpha    79.11266369430139
_cell_angle_beta     79.12810811948323
_cell_angle_gamma    63.832921803916385

_space_group_name_H-M_alt    "P 1"
_space_group_IT_number       1

loop_
  _space_group_symop_operation_xyz
  'x, y, z'

loop_
  _atom_site_type_symbol
  _atom_site_label
  _atom_site_symmetry_multiplicity
  _atom_site_fract_x
  _atom_site_fract_y
  _atom_site_fract_z
  _atom_site_occupancy
  Zn  Zn1       1.0  0.0541294395659264  0.40098280944358333  0.47817396887835883  1.0000
  Zn  Zn2       1.0  0.9879864043503375  0.48275884002409003  0.5602165631706768  1.0000
  Zn  Zn3       1.0  0.05624036455689921  0.5651087574827188  0.48194037567593284  1.0000
  Zn  Zn4       1.0  0.901221588574529  0.5555381181196781  0.47868207790286027  1.0000
  Zn  Zn5       1.0  0.6931775864893551  0.35009189770258353  0.27208577564130826  1.0000
  Zn  Zn6       1.0  0.686320413212833  0.1926901776589746  0.2655122130738476  1.0000
  Zn  Zn7       1.0  0.7704131626466264  0.26495125050684026  0.189390806713476  1.0000
  Zn  Zn8       1.0  0.8467913956357763  0.19627729868199145  0.27153296239756497  1.0000
  Zn  Zn9       1.0  0.2692359783252343  0.764974556538917  0.6886731604815922  1.0000
  Zn  Zn10      1.0  0.3517926070056205  0.6948070523365644  0.7700751486345113  1.0000
  Zn  Zn11      1.0  0.195158746245859  0.84737385933331  0.7709622681714025  1.0000
  Zn  Zn12      1.0  0.1917276333096183  0.6882163511272027  0.7658008839820456  1.0000
  Zn  Zn13      1.0  0.5609319930504597  0.060782742596543995  0.9825381985203236  1.0000
  Zn  Zn14      1.0  0.4016999925011434  0.05435007010586899  0.9771982384710612  1.0000
  Zn  Zn15      1.0  0.5571996371087948  0.9005774217608363  0.9780758976563535  1.0000
  Zn  Zn16      1.0  0.4847082036144243  0.9821950275703062  0.05933581610089787  1.0000
  H   H1        1.0  0.7441830988974586  0.451951249813469  0.3522423696478968  1.0000
  H   H2        1.0  5.909016189779986e-05  0.29921694734908044  0.3999927384388542  1.0000
  H   H3        1.0  0.21369703636540294  0.6903029769686742  0.5984330387295743  1.0000
  H   H4        1.0  0.047405349682250617  0.5530323802095439  0.6482918164445836  1.0000
  H   H5        1.0  0.46151674641809853  0.24043013121960405  0.3424146674388169  1.0000
  H   H6        1.0  0.4838726685082975  0.703437620112922  0.5998771997566835  1.0000
  H   H7        1.0  0.20340141333210227  0.978695392903923  0.6008980922086097  1.0000
  H   H8        1.0  0.950077231837156  0.9671986826942249  0.3423944967045855  1.0000
  H   H9        1.0  0.6456960064468474  0.15816090388353404  0.04763083101027383  1.0000
  H   H10       1.0  0.5985287218349882  0.10360436209033726  0.19923198002869216  1.0000
  H   H11       1.0  0.547019357857252  0.7690360326451401  0.1482612337664762  1.0000
  H   H12       1.0  0.16243971866710896  0.1417421511783061  0.04069354717970701  1.0000
  H   H13       1.0  0.30098309423790676  0.00030693935846672435  0.8986791573183625  1.0000
  H   H14       1.0  0.4510240909453955  0.7425056866009498  0.852587323725878  1.0000
  H   H15       1.0  0.29784277230084655  0.28309500922050307  0.9029739782897652  1.0000
  H   H16       1.0  0.7867765316343309  0.012340461255313169  0.9062482997438367  1.0000
  H   H17       1.0  0.8004900016845228  0.5269710793824631  0.42182595455918914  1.0000
  H   H18       1.0  0.9401422171982077  0.2201626615330456  0.334260324095439  1.0000
  H   H19       1.0  0.15301113086897544  0.6284662772774043  0.5245948576494045  1.0000
  H   H20       1.0  0.11761487330498714  0.6054548482973061  0.7219228886641817  1.0000
  H   H21       1.0  0.7117567508350291  0.23894217877926155  0.10926578232895424  1.0000
  H   H22       1.0  0.5315825450941815  0.0245376501622304  0.13705697195916144  1.0000
  H   H23       1.0  0.2251676601420556  0.9435894189471841  0.8296815465772555  1.0000
  H   H24       1.0  0.5286286229818131  0.8004858973059759  0.9201034065143788  1.0000
  C   C1        1.0  0.06438784008361859  0.3170849097474361  0.5603719081890477  1.0000
  C   C2        1.0  0.0722979822537368  0.5723565664583958  0.5667427950171487  1.0000
  C   C3        1.0  0.17855021255981285  0.4419653859657161  0.43782898802982834  1.0000
  C   C4        1.0  0.9351456544466642  0.685411957844423  0.4385925452565688  1.0000
  C   C5        1.0  0.9267951276920742  0.4316491637241312  0.43127842849288106  1.0000
  C   C6        1.0  0.8217077078328147  0.5590720426191144  0.5614031383552317  1.0000
  C   C7        1.0  0.5650638663964925  0.3112964925917014  0.31283523493466703  1.0000
  C   C8        1.0  0.6747577335643414  0.19063729455888292  0.17781584919102048  1.0000
  C   C9        1.0  0.6948032827251681  0.43139551812784316  0.1894135589021957  1.0000
  C   C10       1.0  0.9346758408578848  0.1845976570002892  0.1898242146540739  1.0000
  C   C11       1.0  0.8178567828943883  0.3193395393846148  0.32085644878764447  1.0000
  C   C12       1.0  0.8111377258235211  0.06540427307545119  0.30737411275877247  1.0000
  C   C13       1.0  0.4364361447492513  0.6916159987601279  0.686912175960373  1.0000
  C   C14       1.0  0.32011742513588365  0.8183005518567443  0.8195455240580218  1.0000
  C   C15       1.0  0.18732456704919542  0.9329062765237102  0.6878286031314077  1.0000
  C   C16       1.0  0.06734008887843151  0.810869389699768  0.8090440240062622  1.0000
  C   C17       1.0  0.1874779496554808  0.6723282797197714  0.6799959810834367  1.0000
  C   C18       1.0  0.3102890660982496  0.5692700022788985  0.8115847602309573  1.0000
  C   C19       1.0  0.4371954076474936  0.18431947275026056  0.9380372953925474  1.0000
  C   C20       1.0  0.432429391731148  0.9257571973823605  0.9308437056713076  1.0000
  C   C21       1.0  0.6848336626344248  0.9399946277207293  0.9376432618528413  1.0000
  C   C22       1.0  0.5631950826145058  0.8148176287820307  0.0613076273482491  1.0000
  C   C23       1.0  0.570272957343427  0.06988921507929292  0.06929501563524812  1.0000
  C   C24       1.0  0.3168838218333576  0.06199593741158086  0.06068226645205501  1.0000
  C   C25       1.0  0.8973759557058613  0.40380080914360444  0.40320229461214313  1.0000
  C   C26       1.0  0.846499420639475  0.3468661291190574  0.34944216276469586  1.0000
  C   C27       1.0  0.8235294929753466  0.44773037937215343  0.3900326068795438  1.0000
  C   C28       1.0  0.91968148733136  0.3022547171112181  0.36330864135004504  1.0000
  C   C29       1.0  0.8000786804844396  0.4185218387300227  0.36293780024465866  1.0000
  C   C30       1.0  0.9438978434976235  0.33229142388045585  0.3895830240018939  1.0000
  C   C31       1.0  0.10360703311286563  0.5974868090361131  0.5951357206950547  1.0000
  C   C32       1.0  0.15878469927434938  0.6445626180063685  0.651534589601475  1.0000
  C   C33       1.0  0.1519865224362746  0.6360185478715082  0.5805150078313518  1.0000
  C   C34       1.0  0.1121168003693356  0.6041786641822926  0.6661607538866363  1.0000
  C   C35       1.0  0.1776922621113641  0.6597036172038886  0.609174542220849  1.0000
  C   C36       1.0  0.0845153918703119  0.5824447259248232  0.6374894245773746  1.0000
  C   C37       1.0  0.30433675082061745  0.45535309496209936  0.4035643209387559  1.0000
  C   C38       1.0  0.4449801981665686  0.2973184718916499  0.35041167848073235  1.0000
  C   C39       1.0  0.2569147440615538  0.4173026774612653  0.41586659471389714  1.0000
  C   C40       1.0  0.4902520820873947  0.33696726615760764  0.3382030594025025  1.0000
  C   C41       1.0  0.37670836816419495  0.34133317324851487  0.3738819259536755  1.0000
  C   C42       1.0  0.37198002052151224  0.41314458471346444  0.37891847254336153  1.0000
  C   C43       1.0  0.7299668683873434  0.5790778717947521  0.630390973180468  1.0000
  C   C44       1.0  0.5280735907531309  0.6748259174829202  0.6203078696433055  1.0000
  C   C45       1.0  0.7478813243240197  0.5871327826875332  0.5878178826206125  1.0000
  C   C46       1.0  0.5121961124002397  0.665762579493027  0.6626453607836922  1.0000
  C   C47       1.0  0.607824672881236  0.642137410161077  0.608660395178454  1.0000
  C   C48       1.0  0.6502639411981407  0.6090051668316792  0.6424923428501118  1.0000
  C   C49       1.0  0.07159951993359931  0.22598264981058241  0.6291150248800721  1.0000
  C   C50       1.0  0.17348483226940198  0.02349308980699054  0.6209165787024631  1.0000
  C   C51       1.0  0.08295646181775142  0.24297476141536833  0.5866138104701832  1.0000
  C   C52       1.0  0.16194498557278086  0.008534921929175708  0.6632372304843843  1.0000
  C   C53       1.0  0.1411908198562557  0.10314332395016382  0.60868919052313  1.0000
  C   C54       1.0  0.10593881983814411  0.14654247204235565  0.6420351721773586  1.0000
  C   C55       1.0  0.8368307543117056  0.8059074639933929  0.39858410265858885  1.0000
  C   C56       1.0  0.904210275342102  0.9484611608715743  0.3481049470606195  1.0000
  C   C57       1.0  0.9060645164110284  0.7620472222830518  0.41465834633691406  1.0000
  C   C58       1.0  0.8349305635965507  0.9905583938351019  0.33259318780412883  1.0000
  C   C59       1.0  0.9050061743090155  0.8803217858985732  0.3716150662599774  1.0000
  C   C60       1.0  0.8363366833376205  0.8726167794925604  0.37333707277634437  1.0000
  C   C61       1.0  0.6477075072899369  0.16136373652427252  0.14925746743324453  1.0000
  C   C62       1.0  0.5965599272901727  0.10041677434603717  0.09761463473369501  1.0000
  C   C63       1.0  0.6614529997170067  0.1774015373883629  0.10580520115311745  1.0000
  C   C64       1.0  0.5826217645587803  0.08461198483445292  0.1410897784008895  1.0000
  C   C65       1.0  0.6355680844462127  0.1462811678617158  0.08088562950189274  1.0000
  C   C66       1.0  0.6086119336322325  0.11553286453872859  0.16598273154611584  1.0000
  C   C67       1.0  0.6749337907180362  0.5216164774612086  0.11981965601798808  1.0000
  C   C68       1.0  0.5771070264649865  0.7242717380347304  0.1282302714684462  1.0000
  C   C69       1.0  0.6658467037648707  0.5047424138885578  0.1624563531544183  1.0000
  C   C70       1.0  0.5882623872577497  0.739197548858897  0.0858943293140726  1.0000
  C   C71       1.0  0.6099489691257957  0.6446255318440426  0.1404493021051891  1.0000
  C   C72       1.0  0.6447810878334721  0.6012360140753615  0.10706184597731293  1.0000
  C   C73       1.0  0.08405430663236761  0.11561897398028262  0.17824241769108803  1.0000
  C   C74       1.0  0.17084324612670093  0.12431455001694054  0.0729586495858143  1.0000
  C   C75       1.0  0.011142100721194498  0.15490207965529385  0.16582237768738395  1.0000
  C   C76       1.0  0.24236113184852573  0.08585386924954015  0.08630179285760423  1.0000
  C   C77       1.0  0.1132046370943272  0.1362255079241521  0.10679435475957892  1.0000
  C   C78       1.0  0.14254361190179307  0.10624401381392808  0.14490560509398884  1.0000
  C   C79       1.0  0.3477434374925964  0.846555194996839  0.8483515734604624  1.0000
  C   C80       1.0  0.4046013077326975  0.8966466374209364  0.9026186873508877  1.0000
  C   C81       1.0  0.3042724811998098  0.9205882548912928  0.8614467534890411  1.0000
  C   C82       1.0  0.44807617325382415  0.8226477745902445  0.8895175734210599  1.0000
  C   C83       1.0  0.3336740492985301  0.943920923876931  0.8884647779543828  1.0000
  C   C84       1.0  0.41842696695213283  0.7990378316021423  0.8626739648293836  1.0000
  C   C85       1.0  0.40365450710665135  0.4534973391360141  0.8563559516652648  1.0000
  C   C86       1.0  0.3427471267004379  0.3029184726268924  0.8986396984198209  1.0000
  C   C87       1.0  0.335089354219086  0.4968631348894095  0.8395395682729117  1.0000
  C   C88       1.0  0.4120646263758303  0.26051110115106024  0.9141097150243314  1.0000
  C   C89       1.0  0.3403568622798546  0.37307607739495563  0.8771169669347573  1.0000
  C   C90       1.0  0.40783754145630274  0.38212153462536974  0.8769792757033913  1.0000
  C   C91       1.0  0.9486276851690789  0.792283963326824  0.8507639406930069  1.0000
  C   C92       1.0  0.8040695438369242  0.9546602929203731  0.8992027064679322  1.0000
  C   C93       1.0  0.9943046233649683  0.831730116657248  0.8363488962677652  1.0000
  C   C94       1.0  0.7597684329431901  0.9141801290816433  0.912542850525057  1.0000
  C   C95       1.0  0.872500681372145  0.9102632835344981  0.8759744902746719  1.0000
  C   C96       1.0  0.8783854403659462  0.8372203392672264  0.8725343912292872  1.0000
  S   S1        1.0  0.2969456610302643  0.32853594799586033  0.3983457888601762  1.0000
  S   S2        1.0  0.45051001392106127  0.427403636949727  0.3545914768409304  1.0000
  S   S3        1.0  0.6666888871885773  0.6337423593471532  0.5628025590448474  1.0000
  S   S4        1.0  0.5929261702731097  0.6170528094255875  0.6885221735275879  1.0000
  S   S5        1.0  0.1333639073661814  0.16103780423351574  0.5624591997523681  1.0000
  S   S6        1.0  0.11307613769761818  0.09018067134115172  0.6883974273208368  1.0000
  S   S7        1.0  0.9693669472425697  0.8042302278073096  0.39984101194299637  1.0000
  S   S8        1.0  0.7711154628476464  0.947910078572676  0.3457174886496334  1.0000
  S   S9        1.0  0.6175179594098735  0.5867468778479509  0.18665912112859925  1.0000
  S   S10       1.0  0.6386826058867214  0.6576509962711514  0.060756071787651036  1.0000
  S   S11       1.0  0.014697410987501797  0.17774401745514723  0.11300942027313003  1.0000
  S   S12       1.0  0.24048014403083331  0.06480577306521705  0.13953412651716954  1.0000
  S   S13       1.0  0.2745978169235245  0.45115085554131457  0.8506098571610539  1.0000
  S   S14       1.0  0.4746872496299801  0.30459905622952044  0.902550971215895  1.0000
  S   S15       1.0  0.9519844469397115  0.9230248722242965  0.8509401454238416  1.0000
  S   S16       1.0  0.7997686010057097  0.8231959869229115  0.896835746204886  1.0000
  N   N1        1.0  0.2927352172450526  0.5279690434435979  0.41527402690625353  1.0000
  N   N2        1.0  0.7828377662032083  0.5493463796400422  0.6614125767528309  1.0000
  N   N3        1.0  0.025678070796004707  0.2796209938354722  0.658908609244648  1.0000
  N   N4        1.0  0.7679941971466349  0.7923431497473106  0.4074876055998828  1.0000
  N   N5        1.0  0.7066038565237848  0.4674727949865274  0.08950632914817193  1.0000
  N   N6        1.0  0.10331345819433578  0.08106148745621064  0.21956680448789004  1.0000
  N   N7        1.0  0.46526019552733544  0.4759456921135554  0.856473471285  1.0000
  N   N8        1.0  0.9682889487772218  0.7123089441628849  0.847978572072144  1.0000
  O   O1        1.0  0.0006529278967092999  0.5004394791760945  0.4995524080352638  1.0000
  O   O2        1.0  0.06474817828619452  0.31512765197070547  0.5221730599801405  1.0000
  O   O3        1.0  0.0242501943450293  0.544404323645388  0.581931853339441  1.0000
  O   O4        1.0  0.1388598929694354  0.5130671379736783  0.4395232827288852  1.0000
  O   O5        1.0  0.0524321732399642  0.37480281143457733  0.5772738271115259  1.0000
  O   O6        1.0  0.15753197202003125  0.3878605324126741  0.451964666269042  1.0000
  O   O7        1.0  0.09575049360039152  0.5806174517610856  0.5278266923917486  1.0000
  O   O8        1.0  0.9936279661223323  0.6685851409739458  0.45665696631971303  1.0000
  O   O9        1.0  0.879829546739188  0.49456171947512945  0.4463038690333364  1.0000
  O   O10       1.0  0.9023197900094574  0.6425212271195453  0.43814350721820017  1.0000
  O   O11       1.0  0.9955353875862373  0.39300972683222596  0.4390624783906745  1.0000
  O   O12       1.0  0.8794925356884493  0.5066536871239863  0.5771285948801649  1.0000
  O   O13       1.0  0.8190917132168991  0.5898326580327197  0.5238572218633167  1.0000
  O   O14       1.0  0.7482719994624247  0.25152845562494985  0.24956625078952047  1.0000
  O   O15       1.0  0.5973015652170163  0.3572718640402784  0.3059600916890163  1.0000
  O   O16       1.0  0.661321336367692  0.17265843134683231  0.21617210594624234  1.0000
  O   O17       1.0  0.7488070738855512  0.3739144881594855  0.17414400933778756  1.0000
  O   O18       1.0  0.5907263047812706  0.24600358883804332  0.3000938620687492  1.0000
  O   O19       1.0  0.6633646468937329  0.4340782140908744  0.22672954354215594  1.0000
  O   O20       1.0  0.7109813972250124  0.23283415573063618  0.16183172647576066  1.0000
  O   O21       1.0  0.8783673130103935  0.2038235743925299  0.16949669374852053  1.0000
  O   O22       1.0  0.8596688474416679  0.25052191081530867  0.3114546554126107  1.0000
  O   O23       1.0  0.930771070666516  0.19104583592874774  0.22742191452218927  1.0000
  O   O24       1.0  0.7546441826883311  0.36392212622689624  0.3071346706096564  1.0000
  O   O25       1.0  0.7440952058641415  0.0937836103956188  0.2963345909978159  1.0000
  O   O26       1.0  0.8592306222079813  0.09510227138903841  0.2991522856192931  1.0000
  O   O27       1.0  0.25159110260184286  0.7491159042597463  0.7489996563376737  1.0000
  O   O28       1.0  0.378189520761147  0.7239680400016015  0.6671402302822146  1.0000
  O   O29       1.0  0.3604926881458681  0.7510016950719064  0.8098567308697471  1.0000
  O   O30       1.0  0.169775582483588  0.9330136569884432  0.7268052883814988  1.0000
  O   O31       1.0  0.43636226775168313  0.679188521839045  0.7259537798615484  1.0000
  O   O32       1.0  0.22402335818831884  0.8747076832393366  0.668264130583765  1.0000
  O   O33       1.0  0.2557299930446817  0.8646751094331507  0.8058049428640006  1.0000
  O   O34       1.0  0.10237059946602761  0.8530426361981616  0.8081824158133416  1.0000
  O   O35       1.0  0.17431335705779824  0.6524743691108201  0.7190182428197432  1.0000
  O   O36       1.0  0.0877433885922443  0.7558675011550733  0.7881218055411737  1.0000
  O   O37       1.0  0.2228640826565993  0.7139762199975621  0.6648858830220449  1.0000
  O   O38       1.0  0.36108520498851254  0.5916227584983036  0.7935387092385471  1.0000
  O   O39       1.0  0.23892016367067015  0.6013585367369317  0.8071513778471059  1.0000
  O   O40       1.0  0.5007738138459247  0.9998213457827565  0.9993261576961744  1.0000
  O   O41       1.0  0.5040498095739282  0.15669872856518197  0.9493150957721783  1.0000
  O   O42       1.0  0.39034646298573966  0.9919895666784915  0.9417084235363832  1.0000
  O   O43       1.0  0.6533173586345953  0.8932829921798205  0.9450144101185816  1.0000
  O   O44       1.0  0.3905781212729948  0.15294910017157554  0.945405378202317  1.0000
  O   O45       1.0  0.6583850473788502  0.005766423574598931  0.9498763840639415  1.0000
  O   O46       1.0  0.49886561470292884  0.8814841329792532  0.9428608150184774  1.0000
  O   O47       1.0  0.5809023945797733  0.814876342379023  0.022399099469929223  1.0000
  O   O48       1.0  0.534281720770707  0.02765603403104691  0.08572825200280222  1.0000
  O   O49       1.0  0.5262015605448697  0.8731008168676909  0.08086164028409831  1.0000
  O   O50       1.0  0.5840472524308141  0.08648915940663224  0.03084144759910151  1.0000
  O   O51       1.0  0.31616064859071713  0.0767527503524335  0.02183503293444031  1.0000
  O   O52       1.0  0.3756589189226958  0.028014673218884074  0.08019531025775002  1.0000
  O   O53       1.0  0.7747687966786145  0.5167846851763761  0.4022126209205439  1.0000
  O   O54       1.0  0.9674793571871662  0.23209763487285792  0.35220879621856244  1.0000
  O   O55       1.0  0.1741253992798022  0.6515529647469552  0.5401855003411171  1.0000
  O   O56       1.0  0.09238979896902322  0.5862485795672399  0.7065215635981731  1.0000
  O   O57       1.0  0.6983486429414114  0.2212988231233553  0.08716399297771463  1.0000
  O   O58       1.0  0.5453660011735054  0.04085115010703095  0.1596372029381641  1.0000
  O   O59       1.0  0.2355085245529978  0.9697802269472439  0.8490134489200899  1.0000
  O   O60       1.0  0.5169631182547506  0.7736776070101359  0.901746272907424  1.0000
  O   O61       1.0  0.3251375603997886  0.5637132935105172  0.3905564175233139  1.0000
  O   O62       1.0  0.25548531679702075  0.5478212389873819  0.44854617569809824  1.0000
  O   O63       1.0  0.7595351562363676  0.5217289852572621  0.6949259395466215  1.0000
  O   O64       1.0  0.8435791537606859  0.5563607115968382  0.653497118622319  1.0000
  O   O65       1.0  0.04485571466361901  0.258959706028449  0.6942772929636194  1.0000
  O   O66       1.0  0.970540324885647  0.3385020281308188  0.6481060015382029  1.0000
  O   O67       1.0  0.7237222428231433  0.8215115550022891  0.3805146176838791  1.0000
  O   O68       1.0  0.7561303885662412  0.756906557718729  0.44077873814084273  1.0000
  O   O69       1.0  0.7346021620328287  0.49008752994041793  0.055900053626388085  1.0000
  O   O70       1.0  0.7012569662414804  0.4057929688479195  0.09793858003160949  1.0000
  O   O71       1.0  0.16644703180949696  0.07356830220771834  0.22676788345962962  1.0000
  O   O72       1.0  0.059108059363346406  0.058853789268809506  0.24363493133733982  1.0000
  O   O73       1.0  0.529959809525792  0.42209626059160865  0.858154992158511  1.0000
  O   O74       1.0  0.44979805603773576  0.5440467567684595  0.8567730144505037  1.0000
  O   O75       1.0  0.9129860259930138  0.6969461703927992  0.8483842747440208  1.0000
  O   O76       1.0  0.0358875098925324  0.6655465355407559  0.8473577845592504  1.0000
