data_image0
_chemical_formula_structural       Ni4H24C32N16O16
_chemical_formula_sum              "Ni4 H24 C32 N16 O16"
_cell_length_a       7.215371104049623
_cell_length_b       7.42899653104467
_cell_length_c       18.10614486602183
_cell_angle_alpha    90.00008421277738
_cell_angle_beta     90.0001680694747
_cell_angle_gamma    89.99961320755807

_space_group_name_H-M_alt    "P 1"
_space_group_IT_number       1

loop_
  _space_group_symop_operation_xyz
  'x, y, z'

loop_
  _atom_site_type_symbol
  _atom_site_label
  _atom_site_symmetry_multiplicity
  _atom_site_fract_x
  _atom_site_fract_y
  _atom_site_fract_z
  _atom_site_occupancy
  Ni  Ni1       1.0  0.9999999632137176  0.4999971035120511  0.5000000142484211  1.0000
  Ni  Ni2       1.0  0.9999991073108208  2.591872465999999e-06  0.9999992527953195  1.0000
  Ni  Ni3       1.0  0.5000006164524892  2.406782904499999e-06  0.9999997607729225  1.0000
  Ni  Ni4       1.0  0.49999919374080565  0.4999981642226602  0.4999997750200791  1.0000
  H   H1        1.0  0.04882001191136712  0.48436453983062944  0.27191835682081933  1.0000
  H   H2        1.0  0.9511691837910593  0.015638365176798202  0.7719147820260658  1.0000
  H   H3        1.0  0.45117857114244236  0.9843687651304905  0.22808060155526988  1.0000
  H   H4        1.0  0.5488303939807581  0.5156398318226253  0.7280848073859544  1.0000
  H   H5        1.0  0.9511783755721271  0.5156317886156927  0.7280817455180254  1.0000
  H   H6        1.0  0.04883197553665042  0.9843620014899203  0.2280847680170338  1.0000
  H   H7        1.0  0.5488212022457618  0.015634293694390105  0.7719189484877589  1.0000
  H   H8        1.0  0.4511693794187438  0.48436053484962127  0.27191529495495803  1.0000
  H   H9        1.0  0.03807846501320711  0.5173687807697647  0.1334278077444822  1.0000
  H   H10       1.0  0.9619215374687899  0.9826300497818753  0.633424524033046  1.0000
  H   H11       1.0  0.4619206074280414  0.017367587853890105  0.36657087300398666  1.0000
  H   H12       1.0  0.5380817087510082  0.4826316227722814  0.866574790706508  1.0000
  H   H13       1.0  0.9619226943098059  0.4826329319737752  0.8665717422990155  1.0000
  H   H14       1.0  0.0380796218664301  0.0173676247302197  0.3665744737105641  1.0000
  H   H15       1.0  0.5380805519062549  0.9826314327370158  0.6334292293373947  1.0000
  H   H16       1.0  0.4619194505738947  0.5173700899722605  0.13342531163566917  1.0000
  H   H17       1.0  0.625566672669784  0.5982120514241418  0.0310165590622873  1.0000
  H   H18       1.0  0.37443124378712167  0.9017850609947331  0.5310152530806675  1.0000
  H   H19       1.0  0.8744302962971632  0.09820641720828151  0.46898500508016383  1.0000
  H   H20       1.0  0.12556856220260934  0.4017931654979492  0.9689844920531384  1.0000
  H   H21       1.0  0.3744317147864751  0.4017936995629087  0.9689852001754103  1.0000
  H   H22       1.0  0.6255671437170637  0.0982058831453259  0.4689854015552654  1.0000
  H   H23       1.0  0.12556947712020872  0.9017899112355255  0.5310162018569216  1.0000
  H   H24       1.0  0.8744298252432899  0.5982139315629027  0.031015610288903903  1.0000
  C   C1        1.0  0.7499887961911968  0.4571097500587982  0.3651131155589907  1.0000
  C   C2        1.0  0.24998856327172808  0.042888109268723405  0.8651130972865457  1.0000
  C   C3        1.0  0.7500112101117866  0.9571162956329787  0.13488645275688066  1.0000
  C   C4        1.0  0.2500109772224022  0.5428865783830048  0.634886986780721  1.0000
  C   C5        1.0  0.7499912069935278  0.4791287235928723  0.2819756010517906  1.0000
  C   C6        1.0  0.24999251376079468  0.020872871901630695  0.781976121989949  1.0000
  C   C7        1.0  0.7500072596368172  0.9791274947696142  0.21802342805227679  1.0000
  C   C8        1.0  0.250008566404084  0.5208716430783795  0.7180239489904422  1.0000
  C   C9        1.0  0.9170330307048363  0.4905751448240139  0.2429027862765878  1.0000
  C   C10       1.0  0.08296012444600362  0.009424962604548198  0.7429008820371619  1.0000
  C   C11       1.0  0.5829681278480978  0.9905751480251866  0.25709680193305207  1.0000
  C   C12       1.0  0.4170410356602617  0.509425477881706  0.7570997344367638  1.0000
  C   C13       1.0  0.08296674269936233  0.5094238757714182  0.7570973160639267  1.0000
  C   C14       1.0  0.9170396489581949  0.9905740579908838  0.2570992203033455  1.0000
  C   C15       1.0  0.4170330314815019  0.009425218642540803  0.7429033004087342  1.0000
  C   C16       1.0  0.5829587377364263  0.49057623486836394  0.2429009202032333  1.0000
  C   C17       1.0  0.913731415250439  0.5108550111942023  0.16708819744813747  1.0000
  C   C18       1.0  0.08626465955132553  0.9891439416605297  0.6670849256395853  1.0000
  C   C19       1.0  0.58626616375431  0.010852109194296102  0.33291221016487776  1.0000
  C   C20       1.0  0.41373730825512217  0.48914563306401965  0.832914319129344  1.0000
  C   C21       1.0  0.086268358146242  0.48914670155586765  0.8329124571918668  1.0000
  C   C22       1.0  0.9137364997857844  0.010853732852567103  0.3329146244027114  1.0000
  C   C23       1.0  0.4137336096564753  0.9891455653253234  0.6670884444739185  1.0000
  C   C24       1.0  0.58626385106507  0.5108574257573439  0.16708578321323836  1.0000
  C   C25       1.0  0.7499971758361995  0.526566740154081  0.04934243834411229  1.0000
  C   C26       1.0  0.24999947995974744  0.973434477080197  0.5493421237309375  1.0000
  C   C27       1.0  0.7500016793914669  0.026559159202449206  0.4506574263101583  1.0000
  C   C28       1.0  0.2500012116162864  0.4734390108309583  0.9506582162962188  1.0000
  C   C29       1.0  0.7499963787362777  0.3304231058017066  0.021243079843479496  1.0000
  C   C30       1.0  0.24999803295712306  0.16957754239781764  0.5212420322901679  1.0000
  C   C31       1.0  0.7500031263959813  0.8304160938858233  0.47875807004961496  1.0000
  C   C32       1.0  0.25000339464442334  0.6695826451778046  0.978757022499032  1.0000
  N   N1        1.0  0.7499992390226995  0.4217190266623378  0.5458401468438366  1.0000
  N   N2        1.0  0.249999498621314  0.07828036481130601  0.04584041836027809  1.0000
  N   N3        1.0  0.7499988888283159  0.9217240400929047  0.9541580270849149  1.0000
  N   N4        1.0  0.25000053438242287  0.578278647854269  0.45415885089890656  1.0000
  N   N5        1.0  0.7499983461070702  0.3355661743204622  0.6020679934588811  1.0000
  N   N6        1.0  0.2499993899914089  0.16443342143475803  0.10206776389456709  1.0000
  N   N7        1.0  0.7500003833958787  0.8355709834689479  0.8979328907462262  1.0000
  N   N8        1.0  0.25000142731689584  0.6644288080475322  0.3979337657764858  1.0000
  N   N9        1.0  0.7499988277530394  0.251109375868424  0.6567024588726935  1.0000
  N   N10       1.0  0.24999928183635944  0.24889176445385175  0.15670283181623998  1.0000
  N   N11       1.0  0.7500004915725359  0.7511059100647657  0.8432972705238697  1.0000
  N   N12       1.0  0.25000233157467733  0.7488909907983016  0.343297091170406  1.0000
  N   N13       1.0  0.7499960902785291  0.5199374591653481  0.13044694596717926  1.0000
  N   N14       1.0  0.24999973403797077  0.9800640527303062  0.6304471875946902  1.0000
  N   N15       1.0  0.7500000393756281  0.01993227571149701  0.36955291474502155  1.0000
  N   N16       1.0  0.2500022971795773  0.4800655996640586  0.8695526040749754  1.0000
  O   O1        1.0  0.909046580750996  0.44876495482527196  0.3948069991717275  1.0000
  O   O2        1.0  0.09092405190253322  0.05127339470201521  0.8948034728907289  1.0000
  O   O3        1.0  0.5909548698057705  0.9487576236462234  0.10519256417998689  1.0000
  O   O4        1.0  0.40907265812850824  0.5512841787056786  0.6051960638647528  1.0000
  O   O5        1.0  0.09095180672780151  0.5512327196978647  0.6051931031675153  1.0000
  O   O6        1.0  0.9090757214809743  0.9487310101996796  0.10519607715270499  1.0000
  O   O7        1.0  0.40904490357022644  0.0512494734101097  0.8948075381629225  1.0000
  O   O8        1.0  0.5909257293625032  0.44870945758601277  0.3948034861746095  1.0000
  O   O9        1.0  0.9086176788048449  0.2607455984856487  0.012709591469331398  1.0000
  O   O10       1.0  0.09138083235073681  0.2392442500679479  0.5127001022193765  1.0000
  O   O11       1.0  0.5913836988308604  0.7607383066091985  0.48728709861249075  1.0000
  O   O12       1.0  0.40862010870927185  0.7392523870023525  0.9872934710000293  1.0000
  O   O13       1.0  0.09138209457584882  0.73926015249387  0.9872905108731801  1.0000
  O   O14       1.0  0.9086203270032842  0.7607480401368746  0.48729889552263467  1.0000
  O   O15       1.0  0.4086174605156503  0.23925667575026216  0.512712451429003  1.0000
  O   O16       1.0  0.591381050601527  0.2607533639726398  0.012706631343348797  1.0000
