data_image0
_chemical_formula_structural       Zn16H24C96S16Br16N8O52
_chemical_formula_sum              "Zn16 H24 C96 S16 Br16 N8 O52"
_cell_length_a       19.570201709939777
_cell_length_b       19.543424768221513
_cell_length_c       33.15157499184105
_cell_angle_alpha    79.51071548402426
_cell_angle_beta     79.39012029574128
_cell_angle_gamma    64.05169553302066

_space_group_name_H-M_alt    "P 1"
_space_group_IT_number       1

loop_
  _space_group_symop_operation_xyz
  'x, y, z'

loop_
  _atom_site_type_symbol
  _atom_site_label
  _atom_site_symmetry_multiplicity
  _atom_site_fract_x
  _atom_site_fract_y
  _atom_site_fract_z
  _atom_site_occupancy
  Zn  Zn1       1.0  0.053407509570462294  0.3983510645485069  0.48023646310912926  1.0000
  Zn  Zn2       1.0  0.9909268726521319  0.4762546482417702  0.5589839939596429  1.0000
  Zn  Zn3       1.0  0.05237849062904589  0.5682399522535703  0.4828916651656598  1.0000
  Zn  Zn4       1.0  0.9039533631708138  0.5588838839675104  0.47487892645711577  1.0000
  Zn  Zn5       1.0  0.6904944108648934  0.35088847270257867  0.27208702183058614  1.0000
  Zn  Zn6       1.0  0.6820867130423665  0.19842327986999903  0.26658857935874647  1.0000
  Zn  Zn7       1.0  0.7736964545745053  0.2613206891329937  0.18918420286759394  1.0000
  Zn  Zn8       1.0  0.8481221334456563  0.20103041058487026  0.26960953422493367  1.0000
  Zn  Zn9       1.0  0.2745908784434192  0.7579221311181571  0.6893189002976499  1.0000
  Zn  Zn10      1.0  0.35138081260334525  0.6899420619046949  0.7705470330365785  1.0000
  Zn  Zn11      1.0  0.1955910978009712  0.8455393291214579  0.7723499136887993  1.0000
  Zn  Zn12      1.0  0.18509957164513216  0.6936212405755882  0.7659786022497599  1.0000
  Zn  Zn13      1.0  0.5536023306666281  0.06633179406563265  0.9832604043848365  1.0000
  Zn  Zn14      1.0  0.40020506943137946  0.0531911052660519  0.9790904373012026  1.0000
  Zn  Zn15      1.0  0.5582927147510545  0.8999533414313204  0.9775178321454376  1.0000
  Zn  Zn16      1.0  0.49268787368315253  0.9768524281518366  0.05986675901532119  1.0000
  H   H1        1.0  0.45601663848334795  0.24820716702021167  0.33920406144444115  1.0000
  H   H2        1.0  0.4850439289733189  0.6955756937832263  0.6016833632343931  1.0000
  H   H3        1.0  0.19935238385073006  0.9713922434497633  0.5995666375531243  1.0000
  H   H4        1.0  0.9419536281338311  0.9825346053859789  0.3492695668318363  1.0000
  H   H5        1.0  0.5561255050111739  0.7657545516732469  0.14512931000022888  1.0000
  H   H6        1.0  0.175625196918574  0.15538068495588672  0.0448589730206095  1.0000
  H   H7        1.0  0.30414729070912466  0.2655566586776033  0.886370369340753  1.0000
  H   H8        1.0  0.7850812087818752  0.020855040148738516  0.9080987168414933  1.0000
  H   H9        1.0  0.32194693912287414  0.5492539665307703  0.41278309452773243  1.0000
  H   H10       1.0  0.23448526919454343  0.5505445622174887  0.4371368871835486  1.0000
  H   H11       1.0  0.777422771676015  0.5269622555502805  0.6837159338519995  1.0000
  H   H12       1.0  0.8450832499567652  0.5213575752262187  0.640435129851518  1.0000
  H   H13       1.0  0.06074812918980399  0.25922273028019305  0.6862766503771383  1.0000
  H   H14       1.0  0.03270418775522899  0.32865845988693115  0.6442521057722245  1.0000
  H   H15       1.0  0.7418178742839315  0.8077155785404101  0.382052495234298  1.0000
  H   H16       1.0  0.7947342561896987  0.7297021435853491  0.4154580214107498  1.0000
  H   H17       1.0  0.7059748706098148  0.47289023389527063  0.06245782319789581  1.0000
  H   H18       1.0  0.7192263261498438  0.40557264949447325  0.10590095226604754  1.0000
  H   H19       1.0  0.1466678412956171  0.07412088090361378  0.2315372486925469  1.0000
  H   H20       1.0  0.04758078666002769  0.10588145638318734  0.24173439104149005  1.0000
  H   H21       1.0  0.4942990230160971  0.4479018372741236  0.8672583436044617  1.0000
  H   H22       1.0  0.43705568399673206  0.5323916305384061  0.8385652837321088  1.0000
  H   H23       1.0  0.9322868630098283  0.6991089191412386  0.8573067707746062  1.0000
  H   H24       1.0  0.0193851262957168  0.696782683133833  0.8313284030120369  1.0000
  C   C1        1.0  0.0635600145754367  0.3096751766739203  0.5629849672720225  1.0000
  C   C2        1.0  0.06737970316265059  0.5684033646386338  0.5679351508657716  1.0000
  C   C3        1.0  0.17927007528184896  0.4430801365369489  0.440825473164054  1.0000
  C   C4        1.0  0.9354618458911831  0.6918450484110037  0.43634353702129397  1.0000
  C   C5        1.0  0.931228262801248  0.4321339282048129  0.4317441769468288  1.0000
  C   C6        1.0  0.8222097811270216  0.5598071953426428  0.5598382303768261  1.0000
  C   C7        1.0  0.5589797100977307  0.3192384965947922  0.31116612106292507  1.0000
  C   C8        1.0  0.679023050676136  0.18595112903746264  0.18123294856902558  1.0000
  C   C9        1.0  0.6904428237736367  0.4291502840624092  0.18664296355182597  1.0000
  C   C10       1.0  0.9407888050136318  0.18608860402746794  0.18939454777887485  1.0000
  C   C11       1.0  0.8143012866132152  0.3228397564407288  0.3174568758291514  1.0000
  C   C12       1.0  0.8055280457186952  0.07575681756619444  0.3109366958014235  1.0000
  C   C13       1.0  0.4413056756601605  0.6834056998438953  0.6887721940842155  1.0000
  C   C14       1.0  0.321699119447416  0.8117178879208994  0.8201832342821902  1.0000
  C   C15       1.0  0.19508366868840443  0.9249349536638362  0.6872935362451784  1.0000
  C   C16       1.0  0.0643088245998413  0.8133332229243065  0.8126904867849944  1.0000
  C   C17       1.0  0.1837427659073896  0.6800699233580048  0.6812229730267915  1.0000
  C   C18       1.0  0.305922885691821  0.5635985934303914  0.8077914085833058  1.0000
  C   C19       1.0  0.43407827951072153  0.17906932878597104  0.9324153174259776  1.0000
  C   C20       1.0  0.43278315680158386  0.9278883718123083  0.9316570080309318  1.0000
  C   C21       1.0  0.6871500043119951  0.944010107388145  0.9446084210291515  1.0000
  C   C22       1.0  0.5581920115312401  0.8098318649048932  0.058494921342614206  1.0000
  C   C23       1.0  0.5685567252480368  0.07031438192325366  0.06712831310784402  1.0000
  C   C24       1.0  0.3262211730749555  0.06684002543900648  0.06585245916527778  1.0000
  C   C25       1.0  0.9005078486952626  0.40290071028631763  0.40312882711742754  1.0000
  C   C26       1.0  0.8434766350880096  0.3502975698832103  0.34769147151638446  1.0000
  C   C27       1.0  0.8250621291370164  0.44450878343105404  0.3929188881325914  1.0000
  C   C28       1.0  0.916125179853026  0.30494585698249205  0.3613223730024373  1.0000
  C   C29       1.0  0.7992471238468041  0.4219487450018279  0.3629087974356366  1.0000
  C   C30       1.0  0.9467062267857145  0.33381819336753416  0.3858366302812897  1.0000
  C   C31       1.0  0.09754000030309838  0.5971467066893866  0.5970707429068298  1.0000
  C   C32       1.0  0.1545222987646255  0.6507109084169542  0.6519498920003032  1.0000
  C   C33       1.0  0.141702682404663  0.6393336966758482  0.5817431333880735  1.0000
  C   C34       1.0  0.11568578263128157  0.6034372512850722  0.6671933995429171  1.0000
  C   C35       1.0  0.1648391871291324  0.6705498762699591  0.60888929295767  1.0000
  C   C36       1.0  0.0824779148556587  0.5821580460337116  0.6402986329593858  1.0000
  C   C37       1.0  0.29865038007287836  0.4602719856092819  0.40472150153429703  1.0000
  C   C38       1.0  0.43915318685595384  0.30460701609703017  0.3483198752315815  1.0000
  C   C39       1.0  0.2526469459059797  0.4194670926247566  0.4158328353100771  1.0000
  C   C40       1.0  0.4842785979291121  0.3447334143690454  0.3364720957901142  1.0000
  C   C41       1.0  0.3710889396093576  0.3466700030282084  0.3726774057865683  1.0000
  C   C42       1.0  0.3662971317680572  0.4177377236298128  0.3794350016821467  1.0000
  C   C43       1.0  0.7351379976332807  0.5762933598699789  0.6282115069299365  1.0000
  C   C44       1.0  0.5308119788131265  0.6681905161618785  0.6213375613361194  1.0000
  C   C45       1.0  0.7486725330310122  0.5851349452810123  0.5847942362116926  1.0000
  C   C46       1.0  0.5166435203004835  0.6589889673902295  0.6640091647830957  1.0000
  C   C47       1.0  0.610079407264351  0.6374338256785064  0.6080604972427679  1.0000
  C   C48       1.0  0.6549291250628142  0.6061056332243663  0.6410307375643072  1.0000
  C   C49       1.0  0.0811249710056927  0.21967090878291634  0.6301462631454982  1.0000
  C   C50       1.0  0.17430175944674176  0.016119566318771185  0.62000121692229  1.0000
  C   C51       1.0  0.08752546375436049  0.23514595007306124  0.5868406824177724  1.0000
  C   C52       1.0  0.1692929389110986  0.00017070619064437088  0.6625838052326641  1.0000
  C   C53       1.0  0.1432308289321469  0.09586742756898296  0.607924326237182  1.0000
  C   C54       1.0  0.1142420553084804  0.13907685131711392  0.6417151522319172  1.0000
  C   C55       1.0  0.8402194543845312  0.8070556661786483  0.39589316974112887  1.0000
  C   C56       1.0  0.8988176415963948  0.9603140368366995  0.3527165279957174  1.0000
  C   C57       1.0  0.910257260240371  0.7663860642881773  0.4125632202820951  1.0000
  C   C58       1.0  0.8305941566278392  0.000525676348360024  0.3357119635610388  1.0000
  C   C59       1.0  0.9032951237819374  0.889387342877356  0.3741142313891004  1.0000
  C   C60       1.0  0.8376621036896665  0.8774384512517838  0.3734441820331611  1.0000
  C   C61       1.0  0.6486264817290175  0.1573868363205051  0.1522022620694585  1.0000
  C   C62       1.0  0.5952721425418801  0.10131645102230631  0.0967620408052241  1.0000
  C   C63       1.0  0.6335592366793675  0.19651714463044806  0.11274265084703222  1.0000
  C   C64       1.0  0.6039047373364639  0.06647381390522614  0.13823303998562864  1.0000
  C   C65       1.0  0.6128346921023109  0.166024912548167  0.08415108855967898  1.0000
  C   C66       1.0  0.6357189293091139  0.09106755948507578  0.16432141956356364  1.0000
  C   C67       1.0  0.6645911466108598  0.5155713976175278  0.1183370696890762  1.0000
  C   C68       1.0  0.5787822273840746  0.7200009467494867  0.1254341164540378  1.0000
  C   C69       1.0  0.6622766171076364  0.5023848354046763  0.16164172225324336  1.0000
  C   C70       1.0  0.5820415869803169  0.7342549119653442  0.08283986259509389  1.0000
  C   C71       1.0  0.6088000629558366  0.6407245493861354  0.13850104667111654  1.0000
  C   C72       1.0  0.6338564639486888  0.5958327384140178  0.10551501393666028  1.0000
  C   C73       1.0  0.0865932407048078  0.11984634581899195  0.1812991021175563  1.0000
  C   C74       1.0  0.18134316288430338  0.13467175471829762  0.0773268025063345  1.0000
  C   C75       1.0  0.015510601582938896  0.16292870708787183  0.1659238660197744  1.0000
  C   C76       1.0  0.25188182798334674  0.0917929188551554  0.09161601212514368  1.0000
  C   C77       1.0  0.1212359106904515  0.1458729740357612  0.10979254210768369  1.0000
  C   C78       1.0  0.1470413252462563  0.11087193868966234  0.1484234220329981  1.0000
  C   C79       1.0  0.3508909328363784  0.8413468987032072  0.8491847427080046  1.0000
  C   C80       1.0  0.404189901911863  0.897461533362147  0.9027574942208147  1.0000
  C   C81       1.0  0.3640799756233902  0.907340801699256  0.8361093336445717  1.0000
  C   C82       1.0  0.3916147940120283  0.8311346453730695  0.9157126151735896  1.0000
  C   C83       1.0  0.3905047150239581  0.9355463609008439  0.8629916542364453  1.0000
  C   C84       1.0  0.36469238567033097  0.803173511805184  0.8889387990561985  1.0000
  C   C85       1.0  0.3946402901590176  0.45173640695880807  0.8527116934155785  1.0000
  C   C86       1.0  0.34416785113565135  0.2904895952693779  0.8861831849037357  1.0000
  C   C87       1.0  0.32933271268542086  0.48918899732766613  0.8315724612511487  1.0000
  C   C88       1.0  0.40851615585834367  0.25345701981211016  0.9068020564902497  1.0000
  C   C89       1.0  0.3389744364558283  0.36249747636663443  0.8659532799692045  1.0000
  C   C90       1.0  0.3993915849189947  0.3787504353962347  0.8719794599309623  1.0000
  C   C91       1.0  0.9495679445696155  0.7960981691006948  0.855415300816773  1.0000
  C   C92       1.0  0.8041967939475754  0.961490313247701  0.9030186393895789  1.0000
  C   C93       1.0  0.9920663048582624  0.8391332812536728  0.8386333039837552  1.0000
  C   C94       1.0  0.7619910653623377  0.919508542932327  0.919431491775022  1.0000
  C   C95       1.0  0.8724848229902732  0.9171723103270468  0.8794438760661476  1.0000
  C   C96       1.0  0.8807747694791672  0.8421780491527144  0.8786376244497587  1.0000
  S   S1        1.0  0.29199276981607614  0.3312653318629372  0.39597828983554  1.0000
  S   S2        1.0  0.4443869914212896  0.43376565371058695  0.3547926333828499  1.0000
  S   S3        1.0  0.664966327723846  0.6300401554083949  0.5606683066411264  1.0000
  S   S4        1.0  0.5995610242806962  0.6134158063647772  0.688267530353592  1.0000
  S   S5        1.0  0.13194016083050286  0.15290057624986284  0.5612589678982971  1.0000
  S   S6        1.0  0.12623349603457967  0.08178638096247678  0.6882367912802393  1.0000
  S   S7        1.0  0.9703296173924016  0.8141242509799511  0.401427165634182  1.0000
  S   S8        1.0  0.7711312718616553  0.9527835939105739  0.34593417526994596  1.0000
  S   S9        1.0  0.6223699535357952  0.586116233039192  0.1857651362165527  1.0000
  S   S10       1.0  0.620924454543264  0.6514217019934421  0.05838667627762109  1.0000
  S   S11       1.0  0.023007257420687197  0.19083832743712037  0.11269214040100908  1.0000
  S   S12       1.0  0.24551155711637312  0.06468298816883328  0.1446954494923176  1.0000
  S   S13       1.0  0.27515085463945604  0.43611218306354943  0.8360471001905481  1.0000
  S   S14       1.0  0.4629621880704916  0.3056117612241139  0.9018725708297451  1.0000
  S   S15       1.0  0.948701022086233  0.9331531178584808  0.8515544994123444  1.0000
  S   S16       1.0  0.8049039551615563  0.8261358157964481  0.9065344735845927  1.0000
  Br  Br1       1.0  0.7546854122564212  0.5285737879218574  0.42160565633115976  1.0000
  Br  Br2       1.0  0.9727757142791944  0.2015498659308077  0.3501664341376837  1.0000
  Br  Br3       1.0  0.706788852191039  0.49257607702175926  0.3417761393486245  1.0000
  Br  Br4       1.0  0.052045904625380494  0.28075211448042126  0.39290265435899835  1.0000
  Br  Br5       1.0  0.175179805634329  0.6519810519782182  0.5244997365452733  1.0000
  Br  Br6       1.0  0.11248905639942558  0.5627509198208074  0.7236888352207842  1.0000
  Br  Br7       1.0  0.20535322112592516  0.7435450252408343  0.5866513723250292  1.0000
  Br  Br8       1.0  0.012328620480495501  0.5384522021819934  0.6639366910675547  1.0000
  Br  Br9       1.0  0.6381828399496214  0.29330056494818985  0.09969385859435677  1.0000
  Br  Br10      1.0  0.5695583144231477  0.9896594587431976  0.1626540817677551  1.0000
  Br  Br11      1.0  0.6145902996997563  0.21343137716979038  0.0289017365860644  1.0000
  Br  Br12      1.0  0.664579608739615  0.03385036801096667  0.21594017629205095  1.0000
  Br  Br13      1.0  0.34711532682277374  0.9560628999758334  0.7817139270635423  1.0000
  Br  Br14      1.0  0.4110020164181734  0.7812691535832742  0.9696845178045448  1.0000
  Br  Br15      1.0  0.4093440170822262  0.0243579026004994  0.846486022029893  1.0000
  Br  Br16      1.0  0.34509098190772386  0.714842635994792  0.9058079791496497  1.0000
  N   N1        1.0  0.28020466504995056  0.5309252320118673  0.41531251196376207  1.0000
  N   N2        1.0  0.7903762591101041  0.5459699396415515  0.6541411320928461  1.0000
  N   N3        1.0  0.046443371842045195  0.2735618538459974  0.6571124489048544  1.0000
  N   N4        1.0  0.7826816845235028  0.7838031633240518  0.40139463648044693  1.0000
  N   N5        1.0  0.6902131441206265  0.4598653506741924  0.09265505696095737  1.0000
  N   N6        1.0  0.0958918601080541  0.0891024773383506  0.221274862802801  1.0000
  N   N7        1.0  0.4444799684391398  0.4813166787554978  0.8554762794277123  1.0000
  N   N8        1.0  0.9716850884950787  0.7211283216379482  0.8512601629715421  1.0000
  O   O1        1.0  0.9998953385502529  0.5004915154380426  0.49919635995088635  1.0000
  O   O2        1.0  0.0817064594246304  0.3120366680012836  0.5237513248590203  1.0000
  O   O3        1.0  0.06567221972761669  0.5032855879090903  0.5789061923542604  1.0000
  O   O4        1.0  0.1549847434651568  0.5063140611593441  0.45716472495239197  1.0000
  O   O5        1.0  0.0256681070267391  0.36885078622823636  0.5830795277801711  1.0000
  O   O6        1.0  0.14430644747278618  0.39936242974138736  0.4447432276854073  1.0000
  O   O7        1.0  0.0460835854673931  0.6112109428256289  0.5347560141484847  1.0000
  O   O8        1.0  0.004102289084777099  0.6611261631511454  0.4460124624733695  1.0000
  O   O9        1.0  0.9119383801250149  0.5039682629653299  0.42770167932076925  1.0000
  O   O10       1.0  0.8870329645953418  0.661195969192157  0.4461551053861683  1.0000
  O   O11       1.0  0.9739472797108704  0.3829144128935623  0.4574809950398516  1.0000
  O   O12       1.0  0.8821387409750583  0.5296148654977272  0.5794552471171031  1.0000
  O   O13       1.0  0.8220687616262693  0.5689635250300142  0.5204684712729418  1.0000
  O   O14       1.0  0.7481345296720434  0.25252186628519985  0.24924071678687912  1.0000
  O   O15       1.0  0.5867512315572156  0.36891584796048  0.29882892106106596  1.0000
  O   O16       1.0  0.6393012562062096  0.2010458010943522  0.21597751652397082  1.0000
  O   O17       1.0  0.7188936033972269  0.3688174911742762  0.1674012529276965  1.0000
  O   O18       1.0  0.5898052567077982  0.24938989774430093  0.3037804599201905  1.0000
  O   O19       1.0  0.685384278885344  0.43000166599099293  0.22578710530495977  1.0000
  O   O20       1.0  0.7417396818977265  0.19163857258807568  0.1681618516514689  1.0000
  O   O21       1.0  0.8825924884805687  0.22876263738112346  0.1699513081033643  1.0000
  O   O22       1.0  0.8637677455677063  0.2817977659427485  0.2908800117896035  1.0000
  O   O23       1.0  0.9376763540148045  0.1623237792121586  0.2285062823222219  1.0000
  O   O24       1.0  0.7426095481796152  0.3425149958172398  0.3205126418532132  1.0000
  O   O25       1.0  0.7433082791401658  0.0981782671641938  0.2948646995077766  1.0000
  O   O26       1.0  0.84797996209344  0.1114652684787386  0.3078153687617373  1.0000
  O   O27       1.0  0.2523204548401806  0.7471773692231876  0.7496733094856936  1.0000
  O   O28       1.0  0.3835626114826595  0.7249090763766477  0.6691925305784919  1.0000
  O   O29       1.0  0.3708500977197033  0.75336448798506  0.8033563954545073  1.0000
  O   O30       1.0  0.18884461314773657  0.9259565800720466  0.7263484020327765  1.0000
  O   O31       1.0  0.4400067073237111  0.6612429280174156  0.7276410201183764  1.0000
  O   O32       1.0  0.22113048938649627  0.8659548984240925  0.6678271906950215  1.0000
  O   O33       1.0  0.2513078571878538  0.8485797379364043  0.8156817846093459  1.0000
  O   O34       1.0  0.09302951106744217  0.8621160556853482  0.798941439249397  1.0000
  O   O35       1.0  0.1407856157189613  0.70145024658715  0.7144793366512161  1.0000
  O   O36       1.0  0.0950191488264807  0.7425945404074524  0.8050845831913519  1.0000
  O   O37       1.0  0.24895487723092904  0.6814596991042591  0.6703257790705238  1.0000
  O   O38       1.0  0.3492809442256827  0.5989273427161309  0.8060717462171921  1.0000
  O   O39       1.0  0.2446202134235378  0.5891998287470487  0.790211712051935  1.0000
  O   O40       1.0  0.5003959751127098  0.9987353110089712  0.9993751715753375  1.0000
  O   O41       1.0  0.4991155323931337  0.155945451563852  0.945439020459318  1.0000
  O   O42       1.0  0.38230750199340946  0.9829564428733664  0.950494520172711  1.0000
  O   O43       1.0  0.6593869164563627  0.8939414501766121  0.953386026127184  1.0000
  O   O44       1.0  0.389863662826258  0.1446195468932601  0.9396575122396487  1.0000
  O   O45       1.0  0.6567401276189172  0.011765458146392358  0.9553165244799401  1.0000
  O   O46       1.0  0.5042685964129844  0.895070734246204  0.9339410427506679  1.0000
  O   O47       1.0  0.5706127369941639  0.8112518328576857  0.019075878860483887  1.0000
  O   O48       1.0  0.568973565823576  0.00406571395294724  0.07716931329417058  1.0000
  O   O49       1.0  0.5272781042649228  0.8675102713840628  0.07903153157980111  1.0000
  O   O50       1.0  0.5472047695084185  0.11184282151921822  0.033491079737196096  1.0000
  O   O51       1.0  0.3234400480420091  0.0848820889602352  0.026970388632676597  1.0000
  O   O52       1.0  0.3862997734839552  0.029313265509571813  0.08440017237816022  1.0000
