data_image0
_chemical_formula_structural       Cd4H28C48S4N8O8
_chemical_formula_sum              "Cd4 H28 C48 S4 N8 O8"
_cell_length_a       8.847456122054327
_cell_length_b       11.707259457544557
_cell_length_c       12.39457605189587
_cell_angle_alpha    93.7936116716962
_cell_angle_beta     94.6182054593555
_cell_angle_gamma    104.3254282621136

_space_group_name_H-M_alt    "P 1"
_space_group_IT_number       1

loop_
  _space_group_symop_operation_xyz
  'x, y, z'

loop_
  _atom_site_type_symbol
  _atom_site_label
  _atom_site_symmetry_multiplicity
  _atom_site_fract_x
  _atom_site_fract_y
  _atom_site_fract_z
  _atom_site_occupancy
  Cd  Cd1       1.0  0.37346980067030694  0.9272273773755799  0.3574393887224049  1.0000
  Cd  Cd2       1.0  0.6265284034512674  0.0727766919691248  0.6425591229110028  1.0000
  Cd  Cd3       1.0  0.32007949498944294  0.7689718589157905  0.6492881577722333  1.0000
  Cd  Cd4       1.0  0.6799167409131357  0.23102956128413868  0.3507109368819742  1.0000
  H   H1        1.0  0.2939737567651263  0.23000735708286868  0.5142007114114833  1.0000
  H   H2        1.0  0.70602164874726  0.7699914259611945  0.48579902460578256  1.0000
  H   H3        1.0  0.9625659416369031  0.9806704270202502  0.6740889425949136  1.0000
  H   H4        1.0  0.03742810121548249  0.0193310562275641  0.3259140786252815  1.0000
  H   H5        1.0  0.095516370530305  0.3509380816002334  0.4958910955366278  1.0000
  H   H6        1.0  0.9044838434664653  0.6490651442737488  0.5041082856690339  1.0000
  H   H7        1.0  0.8193850962521411  0.919550077485923  0.9103534121614061  1.0000
  H   H8        1.0  0.18060970370123638  0.08044335620962072  0.08964362167372292  1.0000
  H   H9        1.0  0.25087630320226145  0.7916495955196797  0.9353730805591598  1.0000
  H   H10       1.0  0.7491165608701066  0.20834829609804473  0.06462729166135263  1.0000
  H   H11       1.0  0.7181469100556582  0.9161907190591521  0.09484941003263002  1.0000
  H   H12       1.0  0.2818521330693499  0.08381246001565049  0.9051482955305803  1.0000
  H   H13       1.0  0.5627516402444783  0.596816359029347  0.6165936175222486  1.0000
  H   H14       1.0  0.4372513644532389  0.4031886083143661  0.3834035659423165  1.0000
  H   H15       1.0  0.9207451435553508  0.3149582328500458  0.8977984237137377  1.0000
  H   H16       1.0  0.07926577564583683  0.6850391049775625  0.10220929542124683  1.0000
  H   H17       1.0  0.15517024394321058  0.24672212837609211  0.8594540587093819  1.0000
  H   H18       1.0  0.8448439479592906  0.7532786336028963  0.14054753095871322  1.0000
  H   H19       1.0  0.6071098414184277  0.40375851941781343  0.6723209170043705  1.0000
  H   H20       1.0  0.3928892182280563  0.5962446770621241  0.3276775972089396  1.0000
  H   H21       1.0  0.777568247143101  0.4746437882976481  0.8951896969798343  1.0000
  H   H22       1.0  0.22243543922274253  0.525348926075999  0.1048109824313599  1.0000
  H   H23       1.0  0.9674588814082409  0.781973079549786  0.7267903301469333  1.0000
  H   H24       1.0  0.03253738824228241  0.21802130320373445  0.27320924374309646  1.0000
  H   H25       1.0  0.7568475496712497  0.6708395451924646  0.8319214039782282  1.0000
  H   H26       1.0  0.24314528206313207  0.3291512393583035  0.16807621287770763  1.0000
  H   H27       1.0  0.40931774292945267  0.27713865985017344  0.7757357090017651  1.0000
  H   H28       1.0  0.5906887082976411  0.722866378270517  0.22426326678974826  1.0000
  C   C1        1.0  0.25193702229677933  0.015552648708819604  0.6034216725426518  1.0000
  C   C2        1.0  0.7480566886872638  0.9844478974699131  0.39657886696490163  1.0000
  C   C3        1.0  0.14497308057121933  0.09627624887031061  0.5962718561368874  1.0000
  C   C4        1.0  0.8550223328494155  0.9037260790046633  0.40372885323761665  1.0000
  C   C5        1.0  0.1800697095329298  0.20191269174197402  0.5453132249957164  1.0000
  C   C6        1.0  0.8199262605872376  0.798087861009428  0.45468662254624104  1.0000
  C   C7        1.0  0.9978873360985573  0.0622236292181242  0.6346329983430223  1.0000
  C   C8        1.0  0.0021097467156964266  0.9377804455428206  0.36536626359822594  1.0000
  C   C9        1.0  0.0701996793261799  0.2682342578303718  0.5343532608748802  1.0000
  C   C10       1.0  0.929797445144274  0.7317663243150677  0.465647453659436  1.0000
  C   C11       1.0  0.9218349959151977  0.22542650247930143  0.57118482042344  1.0000
  C   C12       1.0  0.07816381447036494  0.7745758439572441  0.4288152553277201  1.0000
  C   C13       1.0  0.40870728179597654  0.8579472932585618  0.13528393560466165  1.0000
  C   C14       1.0  0.591286362397156  0.1420602555563093  0.8647145073668768  1.0000
  C   C15       1.0  0.5866204564768295  0.8551355254382003  0.8257042505708726  1.0000
  C   C16       1.0  0.41337345420369326  0.1448658185685119  0.17429230144853142  1.0000
  C   C17       1.0  0.6947526231444598  0.8888309311385713  0.9189980495280494  1.0000
  C   C18       1.0  0.3052430316288479  0.1111687019488841  0.08100012495136613  1.0000
  C   C19       1.0  0.37773384896492246  0.8182183429472545  0.9328053142381025  1.0000
  C   C20       1.0  0.6222570131404978  0.1817839369721028  0.06719516176738692  1.0000
  C   C21       1.0  0.6388776357500916  0.8868212345173704  0.020673527711288407  1.0000
  C   C22       1.0  0.36111349213773997  0.1131819128505214  0.9793261954064579  1.0000
  C   C23       1.0  0.4769313679800433  0.8516318420534077  0.029065268983856595  1.0000
  C   C24       1.0  0.5230640037843912  0.14837397843706407  0.9709339877975866  1.0000
  C   C25       1.0  0.11011809765857092  0.5522449297145401  0.7659229429252508  1.0000
  C   C26       1.0  0.8898873400033337  0.4477566908274398  0.23408147036757046  1.0000
  C   C27       1.0  0.245522491029007  0.5102841137698277  0.7414711607213251  1.0000
  C   C28       1.0  0.7544823489821438  0.489715702254543  0.2585315237465977  1.0000
  C   C29       1.0  0.47838411828592337  0.5385102472438137  0.6612999401981199  1.0000
  C   C30       1.0  0.5216183462337439  0.4614965126286067  0.3386989137490844  1.0000
  C   C31       1.0  0.9960654683444832  0.4820045300141942  0.825433248871953  1.0000
  C   C32       1.0  0.003943706763919897  0.517994518732671  0.1745728478030273  1.0000
  C   C33       1.0  0.014183985350534594  0.37082841832808106  0.8583469462497462  1.0000
  C   C34       1.0  0.9858277642408524  0.6291715566554004  0.14166013152218682  1.0000
  C   C35       1.0  0.2616196280138041  0.4007600189541732  0.7779949900821991  1.0000
  C   C36       1.0  0.7383867901703239  0.5992449843562537  0.22200236840912174  1.0000
  C   C37       1.0  0.14252845817625828  0.3321363386167349  0.8356684369517923  1.0000
  C   C38       1.0  0.8574809331501072  0.667863525363245  0.16433448088514527  1.0000
  C   C39       1.0  0.5035278156933457  0.4313944808491287  0.6936386784823088  1.0000
  C   C40       1.0  0.4964768418765075  0.5686122159754136  0.3063562488989079  1.0000
  C   C41       1.0  0.866702900124828  0.5263681940936351  0.8494578014571843  1.0000
  C   C42       1.0  0.13330279541123252  0.4736307490659684  0.15054488559064794  1.0000
  C   C43       1.0  0.9726618465946048  0.6968234385372085  0.7556989633002332  1.0000
  C   C44       1.0  0.027339854325774102  0.303173681543214  0.24430262854604481  1.0000
  C   C45       1.0  0.8549136610345938  0.6339711629317436  0.8148422195923574  1.0000
  C   C46       1.0  0.14508659532336307  0.3660214980700546  0.18515747614198125  1.0000
  C   C47       1.0  0.3947059879241833  0.362330175689749  0.7521293344166369  1.0000
  C   C48       1.0  0.6052993010443757  0.6376712882060005  0.24786780102529354  1.0000
  S   S1        1.0  0.6385955190356327  0.8560135972593698  0.6924889982794654  1.0000
  S   S2        1.0  0.36139677972396816  0.14398959690769433  0.30751240048072503  1.0000
  S   S3        1.0  0.7654284585468857  0.2911409696070777  0.556536384256525  1.0000
  S   S4        1.0  0.23457116570738623  0.7088639965801989  0.443462241481484  1.0000
  N   N1        1.0  0.8903795928762505  0.12351805632965811  0.6208437099126486  1.0000
  N   N2        1.0  0.10962007303421469  0.8764834172421202  0.3791563684184141  1.0000
  N   N3        1.0  0.43066747472610695  0.8191603855045668  0.8349583111967079  1.0000
  N   N4        1.0  0.569325331168578  0.18084098132352008  0.16503979978064365  1.0000
  N   N5        1.0  0.35383800082368566  0.5763797615261197  0.6842102980670646  1.0000
  N   N6        1.0  0.6461696212751775  0.42362532339375747  0.31579035336690003  1.0000
  N   N7        1.0  0.09589622811351009  0.6572626549567745  0.7319940673288132  1.0000
  N   N8        1.0  0.9041074905903272  0.342737166483829  0.2680093674469575  1.0000
  O   O1        1.0  0.3741899758969253  0.0391444522503832  0.5515105581221605  1.0000
  O   O2        1.0  0.6258054791799095  0.9608543830090922  0.44849160384540454  1.0000
  O   O3        1.0  0.5079706139366778  0.8803701849709428  0.22097417161005242  1.0000
  O   O4        1.0  0.4920292337388262  0.11964621353704531  0.7790233867115222  1.0000
  O   O5        1.0  0.20942265771638796  0.9264831527570792  0.657148793775157  1.0000
  O   O6        1.0  0.7905716264886776  0.0735156357032167  0.3428516925499494  1.0000
  O   O7        1.0  0.263573234957434  0.8450638577317163  0.1364788881348176  1.0000
  O   O8        1.0  0.7364238564700542  0.15493668960344562  0.8635202090992923  1.0000
