data_image0
_chemical_formula_structural       Cd2H18C20I4N10
_chemical_formula_sum              "Cd2 H18 C20 I4 N10"
_cell_length_a       8.542798224640352
_cell_length_b       10.029289728279833
_cell_length_c       10.550901803994881
_cell_angle_alpha    108.35783460515351
_cell_angle_beta     92.75118237259086
_cell_angle_gamma    105.44460360794687

_space_group_name_H-M_alt    "P 1"
_space_group_IT_number       1

loop_
  _space_group_symop_operation_xyz
  'x, y, z'

loop_
  _atom_site_type_symbol
  _atom_site_label
  _atom_site_symmetry_multiplicity
  _atom_site_fract_x
  _atom_site_fract_y
  _atom_site_fract_z
  _atom_site_occupancy
  Cd  Cd1       1.0  0.4244132821933704  0.9751854545906653  0.1873426947489492  1.0000
  Cd  Cd2       1.0  0.5755800644693776  0.024813704582989288  0.8126497690295409  1.0000
  H   H1        1.0  0.716978003802808  0.6131260332556535  0.3110505193412152  1.0000
  H   H2        1.0  0.28304077541598355  0.3868870776757872  0.6889653108066298  1.0000
  H   H3        1.0  0.4822596017899912  0.3203265254306373  0.1723655895204814  1.0000
  H   H4        1.0  0.5177520001730754  0.6796707518241333  0.8276403762239043  1.0000
  H   H5        1.0  0.20981617469533376  0.20866814770484862  0.02667939534133271  1.0000
  H   H6        1.0  0.7902053128447832  0.7913269852210332  0.9733235564225211  1.0000
  H   H7        1.0  0.06628338939942321  0.362384913925105  0.9544950210726172  1.0000
  H   H8        1.0  0.9337267866189691  0.6375960522314585  0.045507821379693836  1.0000
  H   H9        1.0  0.1904670087080262  0.6352026562317334  0.024761291984539493  1.0000
  H   H10       1.0  0.8095300150699672  0.3647890249778456  0.9752456073116634  1.0000
  H   H11       1.0  0.7615153909692154  0.003735582643862808  0.3262293527659708  1.0000
  H   H12       1.0  0.23846501719206975  0.9962631906361069  0.673776784539797  1.0000
  H   H13       1.0  0.7545305054278231  0.9305214739298436  0.46023926104342655  1.0000
  H   H14       1.0  0.24546396838466927  0.06948131966742468  0.5397588881213764  1.0000
  H   H15       1.0  0.028375222963006794  0.019302616851177797  0.2152855869573287  1.0000
  H   H16       1.0  0.9716065703021642  0.9806971507927218  0.784703753187948  1.0000
  H   H17       1.0  0.1963440696229881  0.7295691431272289  0.3623171720106768  1.0000
  H   H18       1.0  0.803654092415677  0.2704457928665747  0.6376850553244395  1.0000
  C   C1        1.0  0.4831727356113049  0.5405190076856814  0.1832060004647006  1.0000
  C   C2        1.0  0.5168321906332523  0.45947940153740763  0.8168028477330438  1.0000
  C   C3        1.0  0.4179914858556089  0.38794043367378345  0.14159792517728684  1.0000
  C   C4        1.0  0.5820163429395464  0.6120559338408499  0.8584114760947018  1.0000
  C   C5        1.0  0.2658740583756867  0.32745074947087005  0.06040994288265722  1.0000
  C   C6        1.0  0.7341400110948227  0.6725429054622508  0.9396047169305106  1.0000
  C   C7        1.0  0.18423087127005291  0.415372382466316  0.0196090541220642  1.0000
  C   C8        1.0  0.8157814534201934  0.5846195317156457  0.9803965658809233  1.0000
  C   C9        1.0  0.25079749757701103  0.5674382775983984  0.05942762610779081  1.0000
  C   C10       1.0  0.7492059147664633  0.4325590055510631  0.9405808888691282  1.0000
  C   C11       1.0  0.4017720713946602  0.6302477535876035  0.1438242745778382  1.0000
  C   C12       1.0  0.5982274908211807  0.3697484149292051  0.8561847737302415  1.0000
  C   C13       1.0  0.6313384551219343  0.7754556141521078  0.2703359960837375  1.0000
  C   C14       1.0  0.36866582783886065  0.22454462044593274  0.7296685302913204  1.0000
  C   C15       1.0  0.7673583148843193  0.9078542156792366  0.3528409088538069  1.0000
  C   C16       1.0  0.2326315835896793  0.0921565689485533  0.6471656891440816  1.0000
  C   C17       1.0  0.04075258930080142  0.9417259277460844  0.26459235134733927  1.0000
  C   C18       1.0  0.9592416481341671  0.05828394613219961  0.7353999373619474  1.0000
  C   C19       1.0  0.12039171201785591  0.7921958819601116  0.33860819220852534  1.0000
  C   C20       1.0  0.879606475674052  0.2078191223311947  0.6613950025254169  1.0000
  I   I1        1.0  0.5307543473806007  0.2262395952947074  0.4137087931915104  1.0000
  I   I2        1.0  0.4692366429006824  0.7737518120638781  0.5862807236063007  1.0000
  I   I3        1.0  0.24493341329267787  0.9070692696459872  0.9321334231988558  1.0000
  I   I4        1.0  0.755065029224454  0.0929120366761254  0.0678472304412949  1.0000
  N   N1        1.0  0.4983669610721649  0.7764781226631996  0.2000967745288024  1.0000
  N   N2        1.0  0.5016285488047529  0.22351243247275218  0.7999097915465755  1.0000
  N   N3        1.0  0.6275098692706678  0.6369172683673271  0.2627723933491595  1.0000
  N   N4        1.0  0.37249083971883584  0.36309050760696954  0.7372338604906759  1.0000
  N   N5        1.0  0.9269891006166731  0.8851455127996244  0.3325737615812301  1.0000
  N   N6        1.0  0.0729999242253569  0.11486627274776849  0.6674321013918316  1.0000
  N   N7        1.0  0.9753375600183106  0.788470896973081  0.3803828999839213  1.0000
  N   N8        1.0  0.024663194779343207  0.2115447105547688  0.6196281347873906  1.0000
  N   N9        1.0  0.16555874583431782  0.8854015084850746  0.2673205986990085  1.0000
  N   N10       1.0  0.834436598595488  0.1146042365607798  0.7326735618639333  1.0000
