data_image0
_chemical_formula_structural       Cu2H40C28N8O12
_chemical_formula_sum              "Cu2 H40 C28 N8 O12"
_cell_length_a       9.056798962336503
_cell_length_b       9.056788414295667
_cell_length_c       11.402799564638675
_cell_angle_alpha    70.48235041770387
_cell_angle_beta     70.48226516500968
_cell_angle_gamma    77.57890381380724

_space_group_name_H-M_alt    "P 1"
_space_group_IT_number       1

loop_
  _space_group_symop_operation_xyz
  'x, y, z'

loop_
  _atom_site_type_symbol
  _atom_site_label
  _atom_site_symmetry_multiplicity
  _atom_site_fract_x
  _atom_site_fract_y
  _atom_site_fract_z
  _atom_site_occupancy
  Cu  Cu1       1.0  0.05105158340109744  0.948949358200579  0.7499999565975483  1.0000
  Cu  Cu2       1.0  0.9489471980365636  0.051053567747807414  0.25000022268751104  1.0000
  H   H1        1.0  0.41325992763732716  0.9160759589044789  0.7474831691245636  1.0000
  H   H2        1.0  0.08392639149941772  0.5867412632374639  0.7525125156827809  1.0000
  H   H3        1.0  0.5867378272856314  0.08392578112628969  0.25251408927013586  1.0000
  H   H4        1.0  0.9160760459476338  0.4132605031854767  0.24748612423594796  1.0000
  H   H5        1.0  0.6465266721590551  0.7740538406150322  0.5754604608910652  1.0000
  H   H6        1.0  0.22594492336744315  0.35347165369677214  0.9245375461533027  1.0000
  H   H7        1.0  0.3534690293147662  0.22594552717210808  0.42453884874120695  1.0000
  H   H8        1.0  0.7740537141054704  0.6465324517186702  0.07546235838450588  1.0000
  H   H9        1.0  0.2158040405815598  0.8556794879399238  0.48154918838245164  1.0000
  H   H10       1.0  0.14432244227383956  0.7841953545972872  0.018448018760445023  1.0000
  H   H11       1.0  0.7841951729368971  0.14431989978881893  0.5184483071362321  1.0000
  H   H12       1.0  0.8556799950799387  0.21580641173490991  0.981552375162351  1.0000
  H   H13       1.0  0.44290003346582557  0.741449304057774  0.3389978082245617  1.0000
  H   H14       1.0  0.2585472535689917  0.5570987742181617  0.16100161490216167  1.0000
  H   H15       1.0  0.5571020971969888  0.25854537902154834  0.661001038544121  1.0000
  H   H16       1.0  0.7414544450596665  0.4428994471261803  0.8389990386308663  1.0000
  H   H17       1.0  0.6319682884319137  0.775695606092832  0.32942781494266876  1.0000
  H   H18       1.0  0.2243016018507902  0.3680302305652817  0.17056964834058147  1.0000
  H   H19       1.0  0.3680312129227659  0.22430142261106314  0.6705719840745769  1.0000
  H   H20       1.0  0.7756986382290025  0.6319703431264615  0.8294298910664318  1.0000
  H   H21       1.0  0.6190720077569977  0.49064299821363044  0.36849785061082213  1.0000
  H   H22       1.0  0.5093533907703998  0.38092773606688024  0.13150194266297172  1.0000
  H   H23       1.0  0.38092983483640813  0.5093540436636632  0.6315030776694566  1.0000
  H   H24       1.0  0.490647137285528  0.6190704787361415  0.8684972692365132  1.0000
  H   H25       1.0  0.6659968928493071  0.5224808815025812  0.49532149816671  1.0000
  H   H26       1.0  0.47751837838306693  0.3340016266194256  0.004676093562451939  1.0000
  H   H27       1.0  0.3340001232086179  0.47751731340420633  0.504678650844326  1.0000
  H   H28       1.0  0.5224818617433654  0.6659989471177001  0.9953225688425317  1.0000
  H   H29       1.0  0.6079751855939152  0.02158008101591951  0.0712193293671816  1.0000
  H   H30       1.0  0.9784188822317502  0.39202941565159943  0.4287807978097503  1.0000
  H   H31       1.0  0.39202827822791875  0.978422871188521  0.9287848624480115  1.0000
  H   H32       1.0  0.021580043403844187  0.6079723310566154  0.5712152712124022  1.0000
  H   H33       1.0  0.10583650142605448  0.17577006647515966  0.8199131055728511  1.0000
  H   H34       1.0  0.8242318178670873  0.8941605351511941  0.6800887596244319  1.0000
  H   H35       1.0  0.8941621360002189  0.8242340388949077  0.18008767596700168  1.0000
  H   H36       1.0  0.17576636871693554  0.10583766625154575  0.31991370802219155  1.0000
  H   H37       1.0  0.1421176859575084  0.06310175615615785  0.9525969466131977  1.0000
  H   H38       1.0  0.9368991332115896  0.8578830008378022  0.5474049852856024  1.0000
  H   H39       1.0  0.8578821221347611  0.9369023558459876  0.04740352255613089  1.0000
  H   H40       1.0  0.06309510962009311  0.14211871920598904  0.4525949642247154  1.0000
  C   C1        1.0  0.40579125244765624  0.8798166114718671  0.6685278402885115  1.0000
  C   C2        1.0  0.12018173145636271  0.5942078192588911  0.8314703266231616  1.0000
  C   C3        1.0  0.5942047369090203  0.12018039733579405  0.3314728958402993  1.0000
  C   C4        1.0  0.8798182206939344  0.4057951133669492  0.16852866328935076  1.0000
  C   C5        1.0  0.5221384624048326  0.8095704447946732  0.5839434703854347  1.0000
  C   C6        1.0  0.19042897854484414  0.47786148754155994  0.9160540443433828  1.0000
  C   C7        1.0  0.47785840968835186  0.19042892957917  0.41605640387835746  1.0000
  C   C8        1.0  0.8095696589280692  0.5221426178738825  0.08394586019443298  1.0000
  C   C9        1.0  0.29862559258134524  0.8533937378791309  0.5323674163480088  1.0000
  C   C10       1.0  0.1466059047899435  0.70137436000379  0.9676311062963588  1.0000
  C   C11       1.0  0.7013717114060825  0.14660209809355965  0.4676332821575284  1.0000
  C   C12       1.0  0.8533962446809725  0.2986297653078865  0.032367861129898715  1.0000
  C   C13       1.0  0.5273839589542817  0.7181155431817675  0.395074463937817  1.0000
  C   C14       1.0  0.2818822624608615  0.47261432718958934  0.10492556685143467  1.0000
  C   C15       1.0  0.47261422772300704  0.28188265831172293  0.6049262497047321  1.0000
  C   C16       1.0  0.7181178336075504  0.5273874259238269  0.8950745748103653  1.0000
  C   C17       1.0  0.5701041750609974  0.541461666624322  0.4507294754713768  1.0000
  C   C18       1.0  0.45853733443602357  0.4298949413858324  0.04926986206231724  1.0000
  C   C19       1.0  0.42989401161629814  0.4585365348691682  0.5492712381711724  1.0000
  C   C20       1.0  0.5414630496551638  0.5701044528842375  0.9507290750899169  1.0000
  C   C21       1.0  0.7048175286886434  0.9886146062461164  0.8742005247410842  1.0000
  C   C22       1.0  0.011386718443098697  0.29518495438220077  0.6258001957049326  1.0000
  C   C23       1.0  0.29518739377532915  0.011385993701679803  0.12580302719604924  1.0000
  C   C24       1.0  0.9886126389468333  0.7048132537887428  0.3741993285650691  1.0000
  C   C25       1.0  0.5753032515640085  0.005344785538930801  0.9930252375691917  1.0000
  C   C26       1.0  0.9946552352543776  0.4246960500657267  0.506976943696898  1.0000
  C   C27       1.0  0.4247007881168159  0.9946534487973159  0.006980053234997152  1.0000
  C   C28       1.0  0.005342068779682968  0.5752997859523393  0.4930228778066092  1.0000
  N   N1        1.0  0.26730558283590267  0.9066126146455816  0.6349707917658518  1.0000
  N   N2        1.0  0.09338595994786655  0.732694665354693  0.8650279958670519  1.0000
  N   N3        1.0  0.732690550532162  0.09338321474040616  0.3650293421081725  1.0000
  N   N4        1.0  0.9066160455582948  0.26731063942403216  0.13497069681195464  1.0000
  N   N5        1.0  0.4524963327276551  0.794748976641593  0.4981542998232055  1.0000
  N   N6        1.0  0.20525068356396767  0.5475028952496218  0.0018424656641186747  1.0000
  N   N7        1.0  0.5475006833769102  0.20524921831056994  0.5018449721858003  1.0000
  N   N8        1.0  0.7947492685863295  0.4525000373762255  0.9981565242483934  1.0000
  O   O1        1.0  0.84512359127617  0.9874443707953593  0.8817948474210409  1.0000
  O   O2        1.0  0.012557522396136299  0.15487597494801264  0.6182072726220722  1.0000
  O   O3        1.0  0.1548788460309609  0.012557395491462803  0.11820642350378555  1.0000
  O   O4        1.0  0.9874434374141287  0.8451187013177235  0.3817953945252625  1.0000
  O   O5        1.0  0.6730976962486609  0.9753723165764118  0.7792187751481018  1.0000
  O   O6        1.0  0.024626101804486194  0.3269060985039333  0.7207823815191358  1.0000
  O   O7        1.0  0.3269025434580328  0.02462825675232951  0.22078778027518095  1.0000
  O   O8        1.0  0.9753761917710905  0.6730968474768133  0.2792142296482679  1.0000
  O   O9        1.0  0.1677245690686178  0.07680312514675344  0.8586676936855323  1.0000
  O   O10       1.0  0.9231999398780744  0.832273943847973  0.6413333523082866  1.0000
  O   O11       1.0  0.8322749511407962  0.9232033458348642  0.1413313489872578  1.0000
  O   O12       1.0  0.0767956174444464  0.16772660322471472  0.35866919058486946  1.0000
