data_image0
_chemical_formula_structural       CuSiH16C24N8O8F6
_chemical_formula_sum              "Cu1 Si1 H16 C24 N8 O8 F6"
_cell_length_a       7.841823972104274
_cell_length_b       13.488610107036935
_cell_length_c       13.48922963509166
_cell_angle_alpha    89.49309470634925
_cell_angle_beta     83.00198300649646
_cell_angle_gamma    83.0052532690782

_space_group_name_H-M_alt    "P 1"
_space_group_IT_number       1

loop_
  _space_group_symop_operation_xyz
  'x, y, z'

loop_
  _atom_site_type_symbol
  _atom_site_label
  _atom_site_symmetry_multiplicity
  _atom_site_fract_x
  _atom_site_fract_y
  _atom_site_fract_z
  _atom_site_occupancy
  Cu  Cu1       1.0  0.49999467656847685  0.4980446719735739  0.5019815209254617  1.0000
  Si  Si1       1.0  0.9999883630769518  0.49810962073737397  0.5019221406759228  1.0000
  H   H1        1.0  0.27066039281213955  0.5691370794027508  0.3524098072822426  1.0000
  H   H2        1.0  0.2837190529376628  0.5820275555750742  0.1708063303901568  1.0000
  H   H3        1.0  0.8100389705610667  0.4305520073471172  0.14995622472896736  1.0000
  H   H4        1.0  0.7797029242718736  0.433024223115673  0.334737228100856  1.0000
  H   H5        1.0  0.21494846338560336  0.4329518324493265  0.8528017219177713  1.0000
  H   H6        1.0  0.681127418401978  0.5806787556174272  0.8342551952615691  1.0000
  H   H7        1.0  0.7005960635149009  0.5678688922727204  0.6523565873437676  1.0000
  H   H8        1.0  0.24399494444801212  0.4354471638371038  0.6680044215112985  1.0000
  H   H9        1.0  0.2993607395914921  0.34768165363062314  0.4321934848123731  1.0000
  H   H10       1.0  0.3187989232603812  0.16578624137093104  0.4192846896764664  1.0000
  H   H11       1.0  0.7850507573844255  0.14722296433080126  0.5669761969272143  1.0000
  H   H12       1.0  0.7559608746448346  0.3320169449943721  0.56456146258639  1.0000
  H   H13       1.0  0.1899820812014852  0.8500780437610518  0.5693828207419003  1.0000
  H   H14       1.0  0.7162217342636269  0.8292106635741233  0.4179383920713987  1.0000
  H   H15       1.0  0.729352464342952  0.6476015341336706  0.4308403304926216  1.0000
  H   H16       1.0  0.2202116266221807  0.6653103757273513  0.5669729200346011  1.0000
  C   C1        1.0  0.38873708839938814  0.5402682892707773  0.30485594895333173  1.0000
  C   C2        1.0  0.3958466580551843  0.544490872073638  0.2016340368557223  1.0000
  C   C3        1.0  0.546493163172002  0.502996169862243  0.1418428918252914  1.0000
  C   C4        1.0  0.6875390913866255  0.46246171941010783  0.19084104693773435  1.0000
  C   C5        1.0  0.6717868372550058  0.46225703749497177  0.2945549340859799  1.0000
  C   C6        1.0  0.5601702141751448  0.5016733028851093  0.032467250455631785  1.0000
  C   C7        1.0  0.4357858790892166  0.5030132426011635  0.9710360674718714  1.0000
  C   C8        1.0  0.32465943846930395  0.4641012323629284  0.812135713561666  1.0000
  C   C9        1.0  0.44956818010444266  0.5036272895839176  0.8616305155281053  1.0000
  C   C10       1.0  0.5841886357989594  0.5439310978863149  0.8025710584119351  1.0000
  C   C11       1.0  0.5933959286877908  0.5396969894452682  0.6992586367756815  1.0000
  C   C12       1.0  0.34071878257160654  0.4638401006088629  0.7083945709794506  1.0000
  C   C13       1.0  0.40653837471159454  0.3007655433120818  0.4603309662652464  1.0000
  C   C14       1.0  0.4157212350791469  0.19745255913736062  0.4560523122728384  1.0000
  C   C15       1.0  0.5504358557349678  0.1383911686439347  0.49629780707574866  1.0000
  C   C16       1.0  0.6753433972774803  0.1878913008884027  0.5358615733088071  1.0000
  C   C17       1.0  0.6592365548350259  0.2916363894762455  0.5361716926782094  1.0000
  C   C18       1.0  0.5642594576278981  0.0290010681872559  0.4968881607671064  1.0000
  C   C19       1.0  0.43986607099986225  0.967573621064517  0.4982983940806776  1.0000
  C   C20       1.0  0.3124707674841289  0.8091803943343194  0.5375008996212998  1.0000
  C   C21       1.0  0.45348069339474506  0.8581791466965786  0.49694683238387677  1.0000
  C   C22       1.0  0.6040860848449938  0.7983774833960527  0.4554568108214312  1.0000
  C   C23       1.0  0.6112150880560635  0.6951534459909895  0.45969802325064524  1.0000
  C   C24       1.0  0.3282105361923939  0.7054597364209982  0.5377365798252498  1.0000
  N   N1        1.0  0.523854175026699  0.4994518134132449  0.3502834033004802  1.0000
  N   N2        1.0  0.47434952256406143  0.49997884446764124  0.6532432957745868  1.0000
  N   N3        1.0  0.5256175477598434  0.3467711277929483  0.5000246902992558  1.0000
  N   N4        1.0  0.476119211736247  0.6497216721492053  0.5005478491881518  1.0000
  N   N5        1.0  0.7427247281556362  0.4968328003385879  0.9843728344414089  1.0000
  N   N6        1.0  0.2539754387490234  0.5031881541244163  0.0189063461820851  1.0000
  N   N7        1.0  0.7461084762534753  0.9811315135442131  0.4964832075467243  1.0000
  N   N8        1.0  0.25725713027075875  0.015694631692852606  0.503288827011076  1.0000
  O   O1        1.0  0.8065689184463452  0.5762199229924434  0.9818079843947699  1.0000
  O   O2        1.0  0.8157319510923318  0.4147507164186878  0.9536434858261699  1.0000
  O   O3        1.0  0.16350554426494315  0.5849387541322386  0.023125436269367593  1.0000
  O   O4        1.0  0.20802994240728623  0.4225118292931855  0.048067903529116086  1.0000
  O   O5        1.0  0.8362876775573795  0.9770444212903444  0.41463945433396526  1.0000
  O   O6        1.0  0.7923525611293699  0.9518301630707172  0.5770444416238475  1.0000
  O   O7        1.0  0.1931980006239016  0.018238254281285997  0.4239765558829375  1.0000
  O   O8        1.0  0.1844598248711691  0.0463959656181316  0.5854241635028286  1.0000
  F   F1        1.0  0.21608511832555874  0.5052439615591313  0.5090308371476979  1.0000
  F   F2        1.0  0.7838844717956946  0.4909633457756685  0.4947797696853584  1.0000
  F   F3        1.0  0.9999677320286227  0.5887423323476072  0.41132011407935204  1.0000
  F   F4        1.0  0.9999605843426026  0.4080597466663535  0.5919727997022122  1.0000
  F   F5        1.0  0.05310613504571646  0.4083604077346124  0.4103726220899944  1.0000
  F   F6        1.0  0.9468596003056785  0.5896453325287894  0.5916869768877008  1.0000
