data_image0
_chemical_formula_structural       Cu4H24C16S8N12
_chemical_formula_sum              "Cu4 H24 C16 S8 N12"
_cell_length_a       6.482889630701123
_cell_length_b       7.753797578265707
_cell_length_c       14.27032027816835
_cell_angle_alpha    90.00056831588232
_cell_angle_beta     89.99983313305057
_cell_angle_gamma    99.46564032278317

_space_group_name_H-M_alt    "P 1"
_space_group_IT_number       1

loop_
  _space_group_symop_operation_xyz
  'x, y, z'

loop_
  _atom_site_type_symbol
  _atom_site_label
  _atom_site_symmetry_multiplicity
  _atom_site_fract_x
  _atom_site_fract_y
  _atom_site_fract_z
  _atom_site_occupancy
  Cu  Cu1       1.0  0.9430906539723267  0.5594911721561927  0.9202346741941694  1.0000
  Cu  Cu2       1.0  0.5568985423465024  0.4405023076250316  0.42023460166580406  1.0000
  Cu  Cu3       1.0  0.056889207990352  0.44051432417729336  0.07975973387827649  1.0000
  Cu  Cu4       1.0  0.4431105458986835  0.5594874066376859  0.5797640108747043  1.0000
  H   H1        1.0  0.31120606588984157  0.4102238312127752  0.8951630491286051  1.0000
  H   H2        1.0  0.18879494357245358  0.5897715579795031  0.3951601328041078  1.0000
  H   H3        1.0  0.6887843577801078  0.5897881761522823  0.10482785517954338  1.0000
  H   H4        1.0  0.8112267077155623  0.4102115792523335  0.6048321729139585  1.0000
  H   H5        1.0  0.9640976674735028  0.9240160251743318  0.8871670395998518  1.0000
  H   H6        1.0  0.5359073133912062  0.07597814791328966  0.38716707028403613  1.0000
  H   H7        1.0  0.0359142742285457  0.07598022212174267  0.11283157295697067  1.0000
  H   H8        1.0  0.4640951485670612  0.924024667618994  0.6128371483381013  1.0000
  H   H9        1.0  0.265845369184099  0.927590839812069  0.7639270972081318  1.0000
  H   H10       1.0  0.23415993012685024  0.0724061999767756  0.263928254500179  1.0000
  H   H11       1.0  0.734190746681911  0.07241057160204178  0.23608202667429612  1.0000
  H   H12       1.0  0.7658158315706629  0.9276019247342829  0.7360920815216474  1.0000
  H   H13       1.0  0.35193096684349  0.9178840283438204  0.8821500096587014  1.0000
  H   H14       1.0  0.1480682801953748  0.0821098333896089  0.3821513316418218  1.0000
  H   H15       1.0  0.6480962590519042  0.0821422648442649  0.11785911429859644  1.0000
  H   H16       1.0  0.8519126984128605  0.9178551047379173  0.6178676027463935  1.0000
  H   H17       1.0  0.5619658495371879  0.19740083093798683  0.844801828927643  1.0000
  H   H18       1.0  0.9380346417979766  0.8025926247390559  0.3447990741023473  1.0000
  H   H19       1.0  0.4380395634529535  0.8026320654776882  0.1551939807147562  1.0000
  H   H20       1.0  0.06196791992820039  0.19737225169284758  0.655199538373331  1.0000
  H   H21       1.0  0.39010094099275966  0.23727689552007541  0.7518468836141847  1.0000
  H   H22       1.0  0.10990285528630747  0.7627199403191297  0.25184503004390985  1.0000
  H   H23       1.0  0.6098935178587439  0.7627167850819703  0.24814472139555468  1.0000
  H   H24       1.0  0.890107609819033  0.23729200992587346  0.7481465750063093  1.0000
  C   C1        1.0  0.27969990054325683  0.9962904338801337  0.8311282937220026  1.0000
  C   C2        1.0  0.22030465924502352  0.0037051498078355003  0.3311311892590964  1.0000
  C   C3        1.0  0.7203274901622194  0.0037136188165547  0.16887452337729764  1.0000
  C   C4        1.0  0.7796723492305447  0.9962938136554342  0.6688821391852711  1.0000
  C   C5        1.0  0.5936724834908418  0.6167844884732785  0.7833341364000714  1.0000
  C   C6        1.0  0.9063048822692256  0.38322236421458905  0.2833255876599452  1.0000
  C   C7        1.0  0.4062942256692637  0.3832092712808191  0.21666377542381804  1.0000
  C   C8        1.0  0.09369426656573411  0.6167870018437184  0.7166688204108451  1.0000
  C   C9        1.0  0.08847309912741251  0.1861369933033004  0.9034153626952202  1.0000
  C   C10       1.0  0.41152119263280446  0.8138559408351398  0.40341620835385317  1.0000
  C   C11       1.0  0.9115201454721599  0.8138736978238369  0.09657974613817537  1.0000
  C   C12       1.0  0.5884878630873801  0.18612592414423546  0.5965852071853417  1.0000
  C   C13       1.0  0.39790841748842354  0.18427049479348057  0.8230217280760282  1.0000
  C   C14       1.0  0.10209436420649348  0.8157236459768169  0.32302087991330086  1.0000
  C   C15       1.0  0.6020953562844653  0.8157388581302171  0.17697828603271393  1.0000
  C   C16       1.0  0.8979147240297255  0.18426606833423884  0.6769833386681652  1.0000
  S   S1        1.0  0.888937693053471  0.2599387777602615  0.9614501904519198  1.0000
  S   S2        1.0  0.6110598668497716  0.7400593132874463  0.4614545162315479  1.0000
  S   S3        1.0  0.11105961925489537  0.7400614358751408  0.03854141457414068  1.0000
  S   S4        1.0  0.3889523372060212  0.25993824153645306  0.5385490016145835  1.0000
  S   S5        1.0  0.6224893176111408  0.6583784006182041  0.8958271536378459  1.0000
  S   S6        1.0  0.8774974306838674  0.3416251312463885  0.39581700926001406  1.0000
  S   S7        1.0  0.37747998263977683  0.34162058470788287  0.10417356121937615  1.0000
  S   S8        1.0  0.12250781971597043  0.658368518565247  0.6041710919670961  1.0000
  N   N1        1.0  0.2790504467814188  0.27768017927785843  0.8872490738947147  1.0000
  N   N2        1.0  0.22095111269855044  0.7223176884184426  0.38724685290238614  1.0000
  N   N3        1.0  0.7209435849107352  0.7223344342635868  0.11274112966322747  1.0000
  N   N4        1.0  0.7790759506210989  0.27766935808705273  0.6127454528230629  1.0000
  N   N5        1.0  0.0743530715978054  0.0253976482818317  0.8653323880733336  1.0000
  N   N6        1.0  0.42565009957650807  0.9745998371165355  0.36533480973621824  1.0000
  N   N7        1.0  0.9256635600955364  0.9746142844282062  0.13466412225870528  1.0000
  N   N8        1.0  0.5743440968921334  0.0253925361147793  0.6346701096173317  1.0000
  N   N9        1.0  0.572421307984257  0.5884570072048804  0.7021368748268272  1.0000
  N   N10       1.0  0.9275491337933561  0.41155108217927244  0.20212425167261464  1.0000
  N   N11       1.0  0.42754641807253796  0.41153413334092903  0.2978792566222522  1.0000
  N   N12       1.0  0.07242997358493851  0.588458341113885  0.79788277000339  1.0000
