data_image0
_chemical_formula_structural       Ag4H22C14N6O10
_chemical_formula_sum              "Ag4 H22 C14 N6 O10"
_cell_length_a       4.804017773120842
_cell_length_b       5.417221612104969
_cell_length_c       20.29027019783405
_cell_angle_alpha    89.99632868860068
_cell_angle_beta     90.00324889975333
_cell_angle_gamma    104.26050053941478

_space_group_name_H-M_alt    "P 1"
_space_group_IT_number       1

loop_
  _space_group_symop_operation_xyz
  'x, y, z'

loop_
  _atom_site_type_symbol
  _atom_site_label
  _atom_site_symmetry_multiplicity
  _atom_site_fract_x
  _atom_site_fract_y
  _atom_site_fract_z
  _atom_site_occupancy
  Ag  Ag1       1.0  0.796758876739254  0.5782988588341808  0.1432857762218589  1.0000
  Ag  Ag2       1.0  0.20323736297520867  0.4217039837388795  0.643287652166535  1.0000
  Ag  Ag3       1.0  0.477316381825311  0.9976216811122144  0.1328164416531621  1.0000
  Ag  Ag4       1.0  0.5226697370013085  0.002384432494231698  0.632818379349729  1.0000
  H   H1        1.0  0.07295779091948164  0.9134399886346288  0.3487322462201164  1.0000
  H   H2        1.0  0.92705142425784  0.08655968797289398  0.848730734085031  1.0000
  H   H3        1.0  0.7469177221505204  0.9667638230428178  0.3159722531145094  1.0000
  H   H4        1.0  0.2530982945613617  0.0332468156175665  0.8159780459395524  1.0000
  H   H5        1.0  0.9867060641127877  0.49676708843754375  0.2952343030616689  1.0000
  H   H6        1.0  0.013312249135964292  0.5032483774555061  0.7952330588767682  1.0000
  H   H7        1.0  0.4395414165096199  0.3932047155761325  0.47468766331644485  1.0000
  H   H8        1.0  0.5604572441868995  0.6067994403736776  0.9746980350546582  1.0000
  H   H9        1.0  0.4238642752509635  0.961018458949937  0.4294762174227318  1.0000
  H   H10       1.0  0.5761129798568517  0.03897413566580349  0.929475495116883  1.0000
  H   H11       1.0  0.7274534431069171  0.9479329445119831  0.47839781553949484  1.0000
  H   H12       1.0  0.2725220145706118  0.05205575984595609  0.978391924167433  1.0000
  H   H13       1.0  0.4541790215918197  0.6069570616680764  0.24469931857476726  1.0000
  H   H14       1.0  0.5458333926654504  0.39305162497220175  0.7447028536012186  1.0000
  H   H15       1.0  0.5375147229220829  0.3267100082939293  0.24107897698687003  1.0000
  H   H16       1.0  0.4625012086011751  0.6733024528990939  0.741079821946393  1.0000
  H   H17       1.0  0.9912713951748201  0.41268602373713037  0.40476534677923587  1.0000
  H   H18       1.0  0.008732623686768193  0.5873004263055607  0.9047641553147515  1.0000
  H   H19       1.0  0.28902559665512223  0.7473012769659633  0.5327047264218978  1.0000
  H   H20       1.0  0.7109598849982602  0.2527004286888399  0.0326996405125755  1.0000
  H   H21       1.0  0.1780567123470078  0.014975447077453899  0.531799866129248  1.0000
  H   H22       1.0  0.8219222144381176  0.9850266322669295  0.03180166625342911  1.0000
  C   C1        1.0  0.08575223654082009  0.9952167151195894  0.24546775466812684  1.0000
  C   C2        1.0  0.9142630997695633  0.0047859256982221016  0.745468157543769  1.0000
  C   C3        1.0  0.9234848257968267  0.8760029359378619  0.30677158189790543  1.0000
  C   C4        1.0  0.0765283297252566  0.12400472934773178  0.8067743293422825  1.0000
  C   C5        1.0  0.8067274632056253  0.5865751257077249  0.29996484648123106  1.0000
  C   C6        1.0  0.19328618721958424  0.41343029543708815  0.7999646861478455  1.0000
  C   C7        1.0  0.6327237357029674  0.4870612950062991  0.3619759229323166  1.0000
  C   C8        1.0  0.3672879609364158  0.5129487950488779  0.861980544024668  1.0000
  C   C9        1.0  0.6325138771611377  0.31988920493716216  0.4731552654564981  1.0000
  C   C10       1.0  0.3674729345448071  0.6801041902002751  0.9731580242941152  1.0000
  C   C11       1.0  0.5399260379552189  0.0290428981110011  0.47548838713113656  1.0000
  C   C12       1.0  0.4600520778875037  0.9709530049887646  0.9754867429739494  1.0000
  C   C13       1.0  0.8180550472249523  0.43445791857595123  0.5324526344206364  1.0000
  C   C14       1.0  0.18192158661734223  0.5655343114067789  0.03245198555809741  1.0000
  N   N1        1.0  0.6216412008154677  0.5197836490834647  0.24156363014518692  1.0000
  N   N2        1.0  0.3783691206318807  0.4802303941231401  0.7415665703476721  1.0000
  N   N3        1.0  0.778634412842294  0.41023559761904954  0.4116379767626271  1.0000
  N   N4        1.0  0.22137022011708035  0.5897492809530006  0.9116390012488157  1.0000
  N   N5        1.0  0.35591331725810704  0.9417794286086688  0.5332692161393242  1.0000
  N   N6        1.0  0.6440702572375797  0.05822196648950499  0.0332682061865697  1.0000
  O   O1        1.0  0.004932791606236695  0.1626978889035016  0.21405436376014825  1.0000
  O   O2        1.0  0.9950901898187682  0.8373245357211088  0.7140563622541694  1.0000
  O   O3        1.0  0.30984404477022304  0.9114320824451239  0.2306807103922566  1.0000
  O   O4        1.0  0.6901578731908629  0.08856078670405759  0.7306814210321664  1.0000
  O   O5        1.0  0.3717157946370547  0.48252734593896207  0.36560361505162586  1.0000
  O   O6        1.0  0.6283005669594741  0.5174942544890939  0.8656095320731654  1.0000
  O   O7        1.0  0.7527406981934488  0.6068315798459594  0.5649741698629711  1.0000
  O   O8        1.0  0.24721987809414966  0.3931307087296858  0.06497344805051601  1.0000
  O   O9        1.0  0.03871237424473147  0.34214060025256987  0.5437548678847577  1.0000
  O   O10       1.0  0.9612781495920614  0.6578612722537827  0.04375319689617641  1.0000
