data_image0
_chemical_formula_structural       Zn2H16C22Br4N2O8
_chemical_formula_sum              "Zn2 H16 C22 Br4 N2 O8"
_cell_length_a       9.652094180530359
_cell_length_b       10.991252850788154
_cell_length_c       11.059577183392719
_cell_angle_alpha    90.32911203983055
_cell_angle_beta     90.87797197097565
_cell_angle_gamma    110.19404166525496

_space_group_name_H-M_alt    "P 1"
_space_group_IT_number       1

loop_
  _space_group_symop_operation_xyz
  'x, y, z'

loop_
  _atom_site_type_symbol
  _atom_site_label
  _atom_site_symmetry_multiplicity
  _atom_site_fract_x
  _atom_site_fract_y
  _atom_site_fract_z
  _atom_site_occupancy
  Zn  Zn1       1.0  0.6533787232786212  0.535289028536127  0.5115698647025082  1.0000
  Zn  Zn2       1.0  0.3442972238097255  0.46547073599481326  0.5011937510455055  1.0000
  H   H1        1.0  0.2120108193593637  0.6199605379489554  0.6313806048322873  1.0000
  H   H2        1.0  0.6195175591070382  0.25808742292433356  0.7082494407963863  1.0000
  H   H3        1.0  0.7679377590539715  0.9504410760685289  0.41592627294018303  1.0000
  H   H4        1.0  0.6086756944185083  0.9522680409639507  0.3362100902142657  1.0000
  H   H5        1.0  0.6946223026984198  0.07666961862339149  0.44464320185221584  1.0000
  H   H6        1.0  0.21952207009075414  0.0499557718657755  0.44165930933042563  1.0000
  H   H7        1.0  0.35667355382907573  0.014311230582904996  0.35859638812650013  1.0000
  H   H8        1.0  0.2798344757265099  0.9197565267235818  0.4861326871652307  1.0000
  H   H9        1.0  0.7845157797850107  0.38000349745621526  0.3798178461253768  1.0000
  H   H10       1.0  0.3181893029886496  0.3255944263934794  0.12589534940297395  1.0000
  H   H11       1.0  0.6760674495007636  0.6696914072802258  0.8879554324471924  1.0000
  H   H12       1.0  0.4628193846790722  0.9126859801165423  0.7995316066783358  1.0000
  H   H13       1.0  0.3056707923139186  0.8475908130360349  0.705430442131849  1.0000
  H   H14       1.0  0.4338937157031778  0.7638991471453451  0.7207048808426108  1.0000
  H   H15       1.0  0.6202779447902032  0.11549180153610192  0.7847560171062822  1.0000
  H   H16       1.0  0.7437194887743671  0.17830522941751067  0.6662815699442672  1.0000
  C   C1        1.0  0.5028690143308766  0.502324773123398  0.2706589324195647  1.0000
  C   C2        1.0  0.5722958194168939  0.8907469010287627  0.5218602247095417  1.0000
  C   C3        1.0  0.5199506644902031  0.07615571570142518  0.6079008095306335  1.0000
  C   C4        1.0  0.5074352266098145  0.9370335684925308  0.6097469030937361  1.0000
  C   C5        1.0  0.3967979401116679  0.4010423864808954  0.0733115889569262  1.0000
  C   C6        1.0  0.5976015539659727  0.5944965509650615  0.9408638742800047  1.0000
  C   C7        1.0  0.39088086515178583  0.39424353370967674  0.947467083136736  1.0000
  C   C8        1.0  0.6040534596221933  0.6007519152017338  0.06656302089398738  1.0000
  C   C9        1.0  0.49073514173078076  0.49196955087033695  0.8792072123697491  1.0000
  C   C10       1.0  0.5032481513018608  0.5038289412120208  0.1347565126771428  1.0000
  C   C11       1.0  0.42371333691318824  0.85985527922589  0.7137577069782779  1.0000
  C   C12       1.0  0.4906720354739917  0.49621590305101637  0.7433908879093067  1.0000
  C   C13       1.0  0.630546297668772  0.1630200381918385  0.6963937388968942  1.0000
  C   C14       1.0  0.6661762038941532  0.9730176697800133  0.4248844922258357  1.0000
  C   C15       1.0  0.3153493015870481  0.0183823172222191  0.45039677191778776  1.0000
  C   C16       1.0  0.44697292627163426  0.2516987596328235  0.5165687154985718  1.0000
  C   C17       1.0  0.5563198477124801  0.750455628524101  0.5151085977141675  1.0000
  C   C18       1.0  0.11590595612667443  0.5666820281039407  0.5760125049702438  1.0000
  C   C19       1.0  0.8808565560042255  0.43343146998648757  0.4350334934635853  1.0000
  C   C20       1.0  0.9852478804897943  0.5946526679071981  0.5771287206748852  1.0000
  C   C21       1.0  0.011990943612587979  0.4061556885198526  0.43315261084536855  1.0000
  C   C22       1.0  0.43234673633139664  0.11265628317492118  0.5298166376919724  1.0000
  Br  Br1       1.0  0.9735632449085473  0.7294823225204466  0.6767371087316361  1.0000
  Br  Br2       1.0  0.023766612449925586  0.27252686877258003  0.33200772359573694  1.0000
  Br  Br3       1.0  0.24898263224922354  0.24466925476350102  0.8742474698645352  1.0000
  Br  Br4       1.0  0.7487200032981819  0.7477236812300062  0.14112575877297215  1.0000
  N   N1        1.0  0.8691403618846251  0.5276835464012634  0.5073653529070581  1.0000
  N   N2        1.0  0.12800874437758133  0.4728378767507095  0.5033104928491381  1.0000
  O   O1        1.0  0.6239441553578047  0.5148296447174232  0.3247971079208795  1.0000
  O   O2        1.0  0.3666563617376112  0.46842726479941627  0.6890653182556077  1.0000
  O   O3        1.0  0.37884682097166683  0.4853840155094459  0.3187425327033678  1.0000
  O   O4        1.0  0.6172950211756927  0.5313042303541734  0.6954473226251564  1.0000
  O   O5        1.0  0.5772449901255994  0.33562873642141966  0.5191744845349504  1.0000
  O   O6        1.0  0.42615935436137425  0.6671355617339357  0.5181846166657705  1.0000
  O   O7        1.0  0.3288948000727245  0.27778672488780387  0.5000315642839155  1.0000
  O   O8        1.0  0.6740315804998646  0.7235377968140924  0.5030676645281247  1.0000
