data_image0
_chemical_formula_structural       Ho4Cu4H60C64N8O52
_chemical_formula_sum              "Ho4 Cu4 H60 C64 N8 O52"
_cell_length_a       10.747314322707338
_cell_length_b       13.896553874235977
_cell_length_c       19.613008691227396
_cell_angle_alpha    89.99956246923739
_cell_angle_beta     100.73243114131859
_cell_angle_gamma    89.99958622570084

_space_group_name_H-M_alt    "P 1"
_space_group_IT_number       1

loop_
  _space_group_symop_operation_xyz
  'x, y, z'

loop_
  _atom_site_type_symbol
  _atom_site_label
  _atom_site_symmetry_multiplicity
  _atom_site_fract_x
  _atom_site_fract_y
  _atom_site_fract_z
  _atom_site_occupancy
  Ho  Ho1       1.0  0.1549561515246296  0.5684221896394775  0.05885331275072762  1.0000
  Ho  Ho2       1.0  0.8450378627797335  0.06841798392297702  0.44114259889839513  1.0000
  Ho  Ho3       1.0  0.8450428833448171  0.43158590820230114  0.9411459239479215  1.0000
  Ho  Ho4       1.0  0.15495832848669977  0.931587955114239  0.5588573653238671  1.0000
  Cu  Cu1       1.0  0.2479721838368363  0.06810275738308752  0.22382344179064975  1.0000
  Cu  Cu2       1.0  0.752017116674928  0.5681012872996831  0.27616484905502864  1.0000
  Cu  Cu3       1.0  0.75200416793691  0.9318758369158434  0.7761551088455152  1.0000
  Cu  Cu4       1.0  0.24801217660954933  0.431877306621793  0.7238563621873056  1.0000
  H   H1        1.0  0.22859744986534739  0.0755796786977427  0.05409208499167312  1.0000
  H   H2        1.0  0.7714087904347409  0.5755827506672945  0.4459060640005107  1.0000
  H   H3        1.0  0.7713987339376375  0.9244068310456514  0.9459109377130094  1.0000
  H   H4        1.0  0.2286006669118166  0.424408796284638  0.5540922043135768  1.0000
  H   H5        1.0  0.09266043559821212  0.0961865391368235  0.06659001307247081  1.0000
  H   H6        1.0  0.907342731462137  0.596188985613928  0.43340515924926143  1.0000
  H   H7        1.0  0.9073357532678443  0.9037978118089213  0.9334109706938067  1.0000
  H   H8        1.0  0.0926657788751726  0.40379896332684245  0.566593011757945  1.0000
  H   H9        1.0  0.21445296046152146  0.6187140619672251  0.9147258933518858  1.0000
  H   H10       1.0  0.7855490435372732  0.11871257807177223  0.5852740720069535  1.0000
  H   H11       1.0  0.7855460782291745  0.38128827905983814  0.08527181415662714  1.0000
  H   H12       1.0  0.21445376939291802  0.8812883237067554  0.41472963188152084  1.0000
  H   H13       1.0  0.0917129344900118  0.5603452668577023  0.9130353861543912  1.0000
  H   H14       1.0  0.9082897487135994  0.0603502746190898  0.5869634352902509  1.0000
  H   H15       1.0  0.9082832593350291  0.4396549153620556  0.08696355861411584  1.0000
  H   H16       1.0  0.0917121235039176  0.9396499075734329  0.4130376225999371  1.0000
  H   H17       1.0  0.4021569186452326  0.4697307458915462  0.07708007311696012  1.0000
  H   H18       1.0  0.5978362346881667  0.9697307178972638  0.42291561753643964  1.0000
  H   H19       1.0  0.5978335904574407  0.5302723147532264  0.922919307202264  1.0000
  H   H20       1.0  0.4021656413089545  0.030270903509212105  0.5770839111398587  1.0000
  H   H21       1.0  0.4379824591773627  0.5780588828034183  0.08801923057248472  1.0000
  H   H22       1.0  0.56201240071303  0.07805945156771803  0.4119726368728252  1.0000
  H   H23       1.0  0.5620127876092766  0.42194273862524784  0.9119796168725147  1.0000
  H   H24       1.0  0.43798947527993454  0.9219428894416172  0.5880268918010928  1.0000
  H   H25       1.0  0.5099000235608244  0.005961857345077699  0.27988533105580166  1.0000
  H   H26       1.0  0.49009093800357556  0.5059660526993071  0.22010550625304864  1.0000
  H   H27       1.0  0.4901009041644073  0.9940361660474937  0.7201146100499969  1.0000
  H   H28       1.0  0.5099118837651417  0.49403484909839085  0.779894629480758  1.0000
  H   H29       1.0  0.6275533203356504  0.8525670851994678  0.28350904706871927  1.0000
  H   H30       1.0  0.3724431144459004  0.35257009727671834  0.21647486824806356  1.0000
  H   H31       1.0  0.3724495065294491  0.14742590097765174  0.7164890497456966  1.0000
  H   H32       1.0  0.627554967146871  0.6474264869086781  0.7835268198517371  1.0000
  H   H33       1.0  0.21127616096988797  0.8987617951345684  0.1349449099312494  1.0000
  H   H34       1.0  0.7887121327332806  0.3987580032853232  0.36505015558081777  1.0000
  H   H35       1.0  0.7887228688697904  0.10124270468192983  0.8650563657247903  1.0000
  H   H36       1.0  0.21129259068393938  0.6012407397138659  0.6349471163793511  1.0000
  H   H37       1.0  0.0221015483680418  0.11061788114012931  0.2915995367586676  1.0000
  H   H38       1.0  0.9778863181453445  0.6106209146723673  0.20838633714809163  1.0000
  H   H39       1.0  0.9778993780320917  0.8893909362926922  0.7084009140478785  1.0000
  H   H40       1.0  0.0221117734653191  0.3893900615922662  0.7916112730131604  1.0000
  H   H41       1.0  0.8732276013710772  0.24598936627221954  0.288948893417988  1.0000
  H   H42       1.0  0.1267568032650601  0.7459942511911424  0.21103640193879872  1.0000
  H   H43       1.0  0.1267865822539918  0.7540079374676197  0.711053429625544  1.0000
  H   H44       1.0  0.8732270816985308  0.25400521147245314  0.7889602582154823  1.0000
  H   H45       1.0  0.2325374377696079  0.2589547302820493  0.16865498721684705  1.0000
  H   H46       1.0  0.767460048808374  0.7589468235173201  0.3313422895190571  1.0000
  H   H47       1.0  0.7674672704667171  0.7410490499043407  0.8313484015632612  1.0000
  H   H48       1.0  0.23253709582634488  0.24105479791322185  0.668655223354314  1.0000
  H   H49       1.0  0.7212050964523797  0.6898990039657705  0.9807296250432033  1.0000
  H   H50       1.0  0.27878472067080656  0.1898996240187856  0.5192681928262034  1.0000
  H   H51       1.0  0.2787844631324107  0.3100975802508971  0.019270677451395105  1.0000
  H   H52       1.0  0.7212199913701127  0.8101012777643533  0.48073366675426144  1.0000
  H   H53       1.0  0.7803951002276791  0.7646518471084677  0.05481485899316853  1.0000
  H   H54       1.0  0.2195937932972782  0.2646554121431209  0.4451830334361944  1.0000
  H   H55       1.0  0.2195925653011344  0.23534401751167885  0.9451852488662951  1.0000
  H   H56       1.0  0.7804109187478047  0.7353447700371518  0.5548188261466509  1.0000
  H   H57       1.0  0.7252790291493127  0.6459620823558867  0.06620177272737492  1.0000
  H   H58       1.0  0.27471597428534983  0.14596618134011416  0.4337968800774804  1.0000
  H   H59       1.0  0.2747143198267281  0.3540330626451081  0.933798409310626  1.0000
  H   H60       1.0  0.7252858954068772  0.85403400084693  0.5662051972854699  1.0000
  C   C1        1.0  0.47126347285321674  0.9453936067977795  0.24755876182434386  1.0000
  C   C2        1.0  0.5287299747343753  0.4453946387402897  0.25243199212119555  1.0000
  C   C3        1.0  0.5287383943428665  0.05460153816372331  0.7524443350279952  1.0000
  C   C4        1.0  0.4712709605750618  0.5546019454629845  0.7475648905710699  1.0000
  C   C5        1.0  0.5358473922003172  0.8585848445958607  0.24932349232285844  1.0000
  C   C6        1.0  0.464149918727621  0.35858481740291387  0.2506609903333867  1.0000
  C   C7        1.0  0.4641506944596898  0.14140886118902074  0.7506761568409177  1.0000
  C   C8        1.0  0.5358538551550537  0.6414103275796351  0.7493372037926563  1.0000
  C   C9        1.0  0.4810043696906234  0.7814524233397936  0.2088921050809986  1.0000
  C   C10       1.0  0.5189919486105694  0.2814516546044247  0.2910891239682912  1.0000
  C   C11       1.0  0.5189899439508919  0.21854991772502796  0.7911010379426814  1.0000
  C   C12       1.0  0.4810137003425936  0.7185521255651042  0.7089169108124765  1.0000
  C   C13       1.0  0.3628030564255553  0.7961386398876088  0.16597605398366264  1.0000
  C   C14       1.0  0.6371883466998368  0.2961331506298209  0.3340086694287195  1.0000
  C   C15       1.0  0.6371969356084435  0.20386370114997734  0.8340192021616988  1.0000
  C   C16       1.0  0.36281541704836684  0.7038677511537516  0.6659936025693726  1.0000
  C   C17       1.0  0.30443078516921673  0.8854515912400773  0.16634201660823325  1.0000
  C   C18       1.0  0.695556728157669  0.3854479383748882  0.3336479420869339  1.0000
  C   C19       1.0  0.6955672964068924  0.114547871356784  0.8336596714820603  1.0000
  C   C20       1.0  0.3044489460900479  0.6145486458207401  0.6663478979899723  1.0000
  C   C21       1.0  0.5495919547895766  0.6865042290751621  0.20932759955418598  1.0000
  C   C22       1.0  0.45040544964505363  0.18650312883350045  0.2906593536520036  1.0000
  C   C23       1.0  0.45040423901880894  0.3134988315560676  0.7906713452048211  1.0000
  C   C24       1.0  0.5495983166076215  0.8135013709698811  0.7093418988614533  1.0000
  C   C25       1.0  0.29218943557925303  0.7156824181600996  0.1253430140713689  1.0000
  C   C26       1.0  0.7078076274547699  0.21567393815962535  0.3746452757511137  1.0000
  C   C27       1.0  0.7078105551879332  0.28432064247760996  0.8746527518080003  1.0000
  C   C28       1.0  0.2921923481773235  0.7843262440337568  0.6253566069743217  1.0000
  C   C29       1.0  0.035256504342420704  0.17659046492440925  0.26382967452985184  1.0000
  C   C30       1.0  0.9647334372861351  0.6765939928470958  0.23615707529220492  1.0000
  C   C31       1.0  0.9647340338677353  0.823401082137487  0.7361579818906209  1.0000
  C   C32       1.0  0.0352769342408763  0.3234011520448022  0.7638545434746505  1.0000
  C   C33       1.0  0.9528877478330884  0.2537833049873371  0.26241149954852727  1.0000
  C   C34       1.0  0.0471003471786204  0.753784032120933  0.2375771920643004  1.0000
  C   C35       1.0  0.04709616872163741  0.7462118401275151  0.737572417210494  1.0000
  C   C36       1.0  0.9529175866956765  0.24621183231833754  0.7624408123504197  1.0000
  C   C37       1.0  0.9719426695135953  0.33814176767013754  0.22680449701837097  1.0000
  C   C38       1.0  0.028045392521860894  0.838143657474902  0.27318526423368183  1.0000
  C   C39       1.0  0.028059200128666407  0.6618670497513082  0.7731975803160794  1.0000
  C   C40       1.0  0.9719536423350945  0.16186659917547536  0.7268139724578406  1.0000
  C   C41       1.0  0.07797587645643492  0.34204612917893246  0.19410960507855896  1.0000
  C   C42       1.0  0.9220168654854887  0.8420412302054889  0.305884694906439  1.0000
  C   C43       1.0  0.9220127613928426  0.6579432590670109  0.8058804053934241  1.0000
  C   C44       1.0  0.0779982387123823  0.15794599903354378  0.6941284299530964  1.0000
  C   C45       1.0  0.15366492588819372  0.2601651749561569  0.19613598916459554  1.0000
  C   C46       1.0  0.846328764863607  0.7601592817206327  0.3038583416170867  1.0000
  C   C47       1.0  0.8463303373753063  0.7398256524651075  0.8038562317430832  1.0000
  C   C48       1.0  0.1536797139075503  0.23982866715167728  0.6961525727996262  1.0000
  C   C49       1.0  0.8736686095758088  0.41656869496304694  0.224090851250118  1.0000
  C   C50       1.0  0.12631664326863054  0.9165678473508265  0.2759012560633992  1.0000
  C   C51       1.0  0.12633230168506063  0.5834379636283274  0.7759157164001211  1.0000
  C   C52       1.0  0.8736814597224978  0.08344025052698363  0.7240917664799229  1.0000
  C   C53       1.0  0.11314683598255473  0.42689101711714983  0.15501365927499933  1.0000
  C   C54       1.0  0.8868486971051793  0.9268830157280165  0.34498658673589944  1.0000
  C   C55       1.0  0.8868588205714688  0.5731084454516094  0.8449893171017282  1.0000
  C   C56       1.0  0.1131474942195467  0.07311284886906579  0.6550133775196161  1.0000
  C   C57       1.0  0.9059422953626851  0.65122923228261  0.03609322670741483  1.0000
  C   C58       1.0  0.09405454753058962  0.15122682135567808  0.46390303730392196  1.0000
  C   C59       1.0  0.09405105736798453  0.3487716695495281  0.9639054261024429  1.0000
  C   C60       1.0  0.9059501632476811  0.8487740804247185  0.536099332012924  1.0000
  C   C61       1.0  0.7754142221240699  0.6913395525499911  0.03400442164215182  1.0000
  C   C62       1.0  0.22457930791847497  0.19134070703531592  0.46599434403474055  1.0000
  C   C63       1.0  0.22457817854676418  0.30865775126003586  0.9659961728063495  1.0000
  C   C64       1.0  0.7754244545670732  0.8086601947455138  0.5340084376997327  1.0000
  N   N1        1.0  0.3564008610233529  0.9579562505963042  0.20749791873281964  1.0000
  N   N2        1.0  0.6435848573726234  0.4579569290298622  0.2924950321509456  1.0000
  N   N3        1.0  0.6436095571799286  0.042046090425564814  0.79249483976421  1.0000
  N   N4        1.0  0.3564065810914059  0.542044692367675  0.7075115818011144  1.0000
  N   N5        1.0  0.1338162553041187  0.17949828561058473  0.23017872372222575  1.0000
  N   N6        1.0  0.8661764874796276  0.6794969652836189  0.2698108475582899  1.0000
  N   N7        1.0  0.8662536981496987  0.8205242038152251  0.7698716491644222  1.0000
  N   N8        1.0  0.13375541423805262  0.32052480546776263  0.7301386616075122  1.0000
  O   O1        1.0  0.2648820765074404  0.7193326732697969  0.059709609381997104  1.0000
  O   O2        1.0  0.7351130514509947  0.21933053056409346  0.44027795194883634  1.0000
  O   O3        1.0  0.7351122308333372  0.2806675089727407  0.940286082330708  1.0000
  O   O4        1.0  0.2648907135681782  0.7806689320164821  0.559723810317621  1.0000
  O   O5        1.0  0.25796843522207524  0.6456548926669258  0.1602597824154941  1.0000
  O   O6        1.0  0.7420199666397735  0.14564299899236496  0.33972850624750356  1.0000
  O   O7        1.0  0.7420220814190088  0.3543546444200701  0.8397365394640702  1.0000
  O   O8        1.0  0.2579856924145575  0.8543607811990698  0.6602734506422153  1.0000
  O   O9        1.0  0.6109423300725753  0.6619343323826998  0.26966165108156304  1.0000
  O   O10       1.0  0.3890487382992233  0.16193638304325492  0.2303212149242313  1.0000
  O   O11       1.0  0.38905007429043087  0.3380795223014631  0.7303374141031612  1.0000
  O   O12       1.0  0.6109588185365595  0.8380789107959147  0.7696794073558595  1.0000
  O   O13       1.0  0.5460979831021221  0.6408853139334955  0.15377719604464354  1.0000
  O   O14       1.0  0.45389143229749607  0.14088215738512133  0.3462066337667977  1.0000
  O   O15       1.0  0.4538972599340596  0.35910983106115424  0.8462231806308723  1.0000
  O   O16       1.0  0.5461113869709067  0.8591144267899015  0.6537945214540246  1.0000
  O   O17       1.0  0.1796929163872747  0.08698172805173954  0.09030092745496891  1.0000
  O   O18       1.0  0.8203141454212428  0.5869654868815602  0.4096946949682093  1.0000
  O   O19       1.0  0.8203080087377187  0.9130292481869449  0.9097000330808387  1.0000
  O   O20       1.0  0.17969247077681422  0.41303613452000587  0.5903032813563487  1.0000
  O   O21       1.0  0.7758669035781481  0.41195368083108264  0.17849320244388173  1.0000
  O   O22       1.0  0.22411367254917283  0.9119568331599199  0.3214964097827321  1.0000
  O   O23       1.0  0.22414254748849063  0.5880321092842209  0.821507614571104  1.0000
  O   O24       1.0  0.7758777849378191  0.08803039622136309  0.6785025581711254  1.0000
  O   O25       1.0  0.8966945338779624  0.4785427208814853  0.2737984551361593  1.0000
  O   O26       1.0  0.1032919059157962  0.9785482935909542  0.22618935978665902  1.0000
  O   O27       1.0  0.10331395484030989  0.5214718533187865  0.7262083813016248  1.0000
  O   O28       1.0  0.8967033546683467  0.0214691591308949  0.7738038805059022  1.0000
  O   O29       1.0  0.031064236409420708  0.49425336708618073  0.13712813151271064  1.0000
  O   O30       1.0  0.9689343077981362  0.9942447143928138  0.36287103961609557  1.0000
  O   O31       1.0  0.9689357303883027  0.505746095485172  0.8628773193697655  1.0000
  O   O32       1.0  0.031065679201923  0.0057547482223512005  0.63712625548429  1.0000
  O   O33       1.0  0.22068486440256407  0.430450686607479  0.13740592298113094  1.0000
  O   O34       1.0  0.7793115732612249  0.9304423773887438  0.36259490658708426  1.0000
  O   O35       1.0  0.7793170078107894  0.5695502151879098  0.8625951349066839  1.0000
  O   O36       1.0  0.22068840743393991  0.06955564600700372  0.6374049371999535  1.0000
  O   O37       1.0  0.9199294016952352  0.5736763365785438  0.0019778149614423945  1.0000
  O   O38       1.0  0.08006738657127241  0.07367435642684232  0.49802090263372645  1.0000
  O   O39       1.0  0.0800648955443677  0.426323845642081  0.9980219546423046  1.0000
  O   O40       1.0  0.9199344856420808  0.9263265453685462  0.5019801552540883  1.0000
  O   O41       1.0  0.0026108607242463  0.6904635922552558  0.07211829393322941  1.0000
  O   O42       1.0  0.9973845849141442  0.19045867754582702  0.4278760845563597  1.0000
  O   O43       1.0  0.997381546222343  0.3095401879942585  0.9278797518119933  1.0000
  O   O44       1.0  0.0026220211827450005  0.8095429438338401  0.5721259696592469  1.0000
  O   O45       1.0  0.15347864926302887  0.6015400310065222  0.9443587488928956  1.0000
  O   O46       1.0  0.8465178801267257  0.10153996425902531  0.555637177766883  1.0000
  O   O47       1.0  0.8465194436685692  0.39846087082072057  0.0556383515652286  1.0000
  O   O48       1.0  0.15348304253127049  0.8984609375340613  0.444364802274933  1.0000
  O   O49       1.0  0.3773985701722751  0.5335647230248527  0.05914690196784281  1.0000
  O   O50       1.0  0.6225930076493569  0.033566081679246906  0.4408484380787101  1.0000
  O   O51       1.0  0.6225938329905389  0.46643833761358183  0.9408526729888962  1.0000
  O   O52       1.0  0.37740791878825053  0.9664362593277858  0.5591520127492161  1.0000
