data_image0
_chemical_formula_structural       Zn2H22C32I4N2O10
_chemical_formula_sum              "Zn2 H22 C32 I4 N2 O10"
_cell_length_a       9.701863956977176
_cell_length_b       10.966980155395762
_cell_length_c       16.17269483842604
_cell_angle_alpha    88.83399517842841
_cell_angle_beta     90.86659888556518
_cell_angle_gamma    89.5371271750707

_space_group_name_H-M_alt    "P 1"
_space_group_IT_number       1

loop_
  _space_group_symop_operation_xyz
  'x, y, z'

loop_
  _atom_site_type_symbol
  _atom_site_label
  _atom_site_symmetry_multiplicity
  _atom_site_fract_x
  _atom_site_fract_y
  _atom_site_fract_z
  _atom_site_occupancy
  Zn  Zn1       1.0  0.64633492519814  0.49916370772016455  0.5030201517322154  1.0000
  Zn  Zn2       1.0  0.3545015998470404  0.5032373103076607  0.49819624647156496  1.0000
  H   H1        1.0  0.32918009804816967  0.6474000297931682  0.9458284978593952  1.0000
  H   H2        1.0  0.6697060062087131  0.3522796109643025  0.055993919035003586  1.0000
  H   H3        1.0  0.2985879423989743  0.8802363143926257  0.5443533356621372  1.0000
  H   H4        1.0  0.7045658843078826  0.12303184022577077  0.4582869725079703  1.0000
  H   H5        1.0  0.2885580932636458  0.10978769944669149  0.5438666139071698  1.0000
  H   H6        1.0  0.7143676159194499  0.8932455621582988  0.4583979910348006  1.0000
  H   H7        1.0  0.14483529006471227  0.37374358515823064  0.59244944967908  1.0000
  H   H8        1.0  0.8557964962845689  0.6235279217617347  0.4056446173756  1.0000
  H   H9        1.0  0.8098913537122812  0.3926446706537874  0.7304980974156337  1.0000
  H   H10       1.0  0.9807226704986504  0.4395177321430168  0.7068403604679786  1.0000
  H   H11       1.0  0.8842155614333933  0.17368230624181544  0.7202002947644244  1.0000
  H   H12       1.0  0.054217292950490006  0.2197185942336121  0.6978472722991  1.0000
  H   H13       1.0  0.07233972650472961  0.321378953832692  0.8371445169086937  1.0000
  H   H14       1.0  0.034587973704745395  0.1643875759674103  0.8490074729592934  1.0000
  H   H15       1.0  0.9020002375408964  0.27534359636528893  0.8596821155479758  1.0000
  H   H16       1.0  0.1864942674384835  0.831034755301722  0.4013316924221328  1.0000
  H   H17       1.0  0.0174350543063539  0.7979700968457307  0.4366670511275713  1.0000
  H   H18       1.0  0.11182242632192187  0.7877424729563172  0.2563340041857103  1.0000
  H   H19       1.0  0.9432083831472582  0.7548692647190975  0.2896978475387186  1.0000
  H   H20       1.0  0.917846241814942  0.969988336170722  0.342108080613805  1.0000
  H   H21       1.0  0.9566934302272259  0.9715489804926564  0.23534046088673216  1.0000
  H   H22       1.0  0.08757145993072159  0.0035576579572165006  0.30933454031197977  1.0000
  C   C1        1.0  0.5112910518898346  0.7377220254879475  0.5007110552954542  1.0000
  C   C2        1.0  0.491655304132209  0.26546098870589663  0.5014066519690201  1.0000
  C   C3        1.0  0.3810791851104369  0.061354128304778  0.5250327915047706  1.0000
  C   C4        1.0  0.6217509374067659  0.9417999812557623  0.47695576441896737  1.0000
  C   C5        1.0  0.49611135261453393  0.12907242436510558  0.5009208839591395  1.0000
  C   C6        1.0  0.5066818077250659  0.8740663000301012  0.5009364555776656  1.0000
  C   C7        1.0  0.0789000504127841  0.43155602822394457  0.5528334205534903  1.0000
  C   C8        1.0  0.9217926067937298  0.5717216906549679  0.4488975327092674  1.0000
  C   C9        1.0  0.9348455535839051  0.43048423325767254  0.5577932291602608  1.0000
  C   C10       1.0  0.0659337642600804  0.5784415453598227  0.4475545189599756  1.0000
  C   C11       1.0  0.5122410224705476  0.5016839146972173  0.338836787703066  1.0000
  C   C12       1.0  0.4857112737229059  0.5003914698309869  0.6630641363506058  1.0000
  C   C13       1.0  0.626589291672083  0.5302067702547645  0.9743154815429733  1.0000
  C   C14       1.0  0.3721304886002414  0.4694306838629884  0.027422700989504292  1.0000
  C   C15       1.0  0.5301809551863812  0.6128303867349628  0.0275567014685691  1.0000
  C   C16       1.0  0.4687275341254064  0.3868650695096674  0.9742397717359309  1.0000
  C   C17       1.0  0.5074539278925556  0.5001014565680321  0.24920181006074668  1.0000
  C   C18       1.0  0.4909900546258256  0.5001292067620041  0.7526780509805562  1.0000
  C   C19       1.0  0.5940733765617736  0.41793456901824294  0.0310996589234875  1.0000
  C   C20       1.0  0.4048261251242948  0.5817243162550055  0.9707050632680136  1.0000
  C   C21       1.0  0.4991422593355637  0.49888956150199  0.08684892888312848  1.0000
  C   C22       1.0  0.4996977854298024  0.5007760587379765  0.9150054506256138  1.0000
  C   C23       1.0  0.5024592635785935  0.4986623935636416  0.1739846252724178  1.0000
  C   C24       1.0  0.4965431396753174  0.5009703218653243  0.8279124646179098  1.0000
  C   C25       1.0  0.38639232224949194  0.9345993745924869  0.5250481475702101  1.0000
  C   C26       1.0  0.6164587353906511  0.0685659292699725  0.4768545082375724  1.0000
  C   C27       1.0  0.9049660973845873  0.3661647697219763  0.6989813435001436  1.0000
  C   C28       1.0  0.9610233704895352  0.24486049300679721  0.7318793205640616  1.0000
  C   C29       1.0  0.9942262794610102  0.25181964249932076  0.8244765331226347  1.0000
  C   C30       1.0  0.09271428292583289  0.7786189566751462  0.38816804745908223  1.0000
  C   C31       1.0  0.0346128608043799  0.810560158173075  0.3028022883020753  1.0000
  C   C32       1.0  0.9972014223008119  0.9463579243333486  0.2971033545440277  1.0000
  I   I1        1.0  0.5746970892658821  0.7890749471195091  0.06877135366555358  1.0000
  I   I2        1.0  0.4246012449579197  0.21068807793686517  0.9326950603518398  1.0000
  I   I3        1.0  0.8250240952175858  0.574789929002165  0.9336960201559987  1.0000
  I   I4        1.0  0.17320344850539732  0.4250075137284099  0.0669983756135295  1.0000
  N   N1        1.0  0.8591447279654432  0.49907349226428716  0.50386665080034  1.0000
  N   N2        1.0  0.14162862017170852  0.5051562724845837  0.49855906771178127  1.0000
  O   O1        1.0  0.6292468669434683  0.6861410523929833  0.49952435694373065  1.0000
  O   O2        1.0  0.3747952854470639  0.31698627839681137  0.5104199432859886  1.0000
  O   O3        1.0  0.39540184966405423  0.6838153749151984  0.5016514735650404  1.0000
  O   O4        1.0  0.6062730214434211  0.31976989596265065  0.4927299688801909  1.0000
  O   O5        1.0  0.6303160238751175  0.5136181310967203  0.3726357012909389  1.0000
  O   O6        1.0  0.36682312286928453  0.5012513477518469  0.6291935285549783  1.0000
  O   O7        1.0  0.3967313790372629  0.4907627893964134  0.374279158168271  1.0000
  O   O8        1.0  0.6021404142314494  0.4998310479713765  0.6278459205511381  1.0000
  O   O9        1.0  0.8648671560484544  0.3612367380011392  0.6115230555269662  1.0000
  O   O10       1.0  0.1367258579167157  0.651391009813473  0.3965520213831155  1.0000
