data_image0
_chemical_formula_structural       Zn4H47C57BrN16
_chemical_formula_sum              "Zn4 H47 C57 Br1 N16"
_cell_length_a       14.906011130488425
_cell_length_b       15.022129890484717
_cell_length_c       14.7909231690982
_cell_angle_alpha    114.31272111394965
_cell_angle_beta     99.37513226747994
_cell_angle_gamma    114.70129419404061

_space_group_name_H-M_alt    "P 1"
_space_group_IT_number       1

loop_
  _space_group_symop_operation_xyz
  'x, y, z'

loop_
  _atom_site_type_symbol
  _atom_site_label
  _atom_site_symmetry_multiplicity
  _atom_site_fract_x
  _atom_site_fract_y
  _atom_site_fract_z
  _atom_site_occupancy
  Zn  Zn1       1.0  0.36005732039653543  0.8599211021766706  0.004522123432693132  1.0000
  Zn  Zn2       1.0  0.6400404463521385  0.14083183390002346  0.9985965506325134  1.0000
  Zn  Zn3       1.0  0.49579626306765334  0.1420393685157109  0.14200772723073388  1.0000
  Zn  Zn4       1.0  0.4977298756335743  0.8566219618077965  0.8549877039995694  1.0000
  H   H1        1.0  0.13481090075162436  0.8103371783447031  0.047118330049137666  1.0000
  H   H2        1.0  0.1433207653325895  0.7894531828407453  0.5209907929548268  1.0000
  H   H3        1.0  0.9712007586652618  0.6653678568271744  0.3782825454680678  1.0000
  H   H4        1.0  0.738763206714481  0.18984280893262467  0.8255770776794482  1.0000
  H   H5        1.0  0.010710325654379495  0.5657252733983427  0.327623941589259  1.0000
  H   H6        1.0  0.12360094877248444  0.5571359021854861  0.5713551787935887  1.0000
  H   H7        1.0  0.9823829050310382  0.4301647365777868  0.39770704314373256  1.0000
  H   H8        1.0  0.9901477993913094  0.7163854316045432  0.6840199553039102  1.0000
  H   H9        1.0  0.018719707810873707  0.7934502346554454  0.6184029682116688  1.0000
  H   H10       1.0  0.847865523433704  0.6414114790460275  0.4788491555861611  1.0000
  H   H11       1.0  0.8363642730847761  0.552965064866335  0.5318505807099146  1.0000
  H   H12       1.0  0.8665034183743145  0.391904751062512  0.17992714983887498  1.0000
  H   H13       1.0  0.03364019463408861  0.5585078798617218  0.6348843204054121  1.0000
  H   H14       1.0  0.8936410970464126  0.40876130388543436  0.4630283851984559  1.0000
  H   H15       1.0  0.31933323998706  0.16244285971855277  0.012595700175687325  1.0000
  H   H16       1.0  0.6260055722999526  0.8484133974011527  0.330653707880714  1.0000
  H   H17       1.0  0.7625131191055489  0.30162812406728534  0.5614033482180364  1.0000
  H   H18       1.0  0.6191888017188419  0.23080503217269668  0.518303818932239  1.0000
  H   H19       1.0  0.7772143637424238  0.2943942520101289  0.7285778203673063  1.0000
  H   H20       1.0  0.6339434090071238  0.22287574846929908  0.6848958441302033  1.0000
  H   H21       1.0  0.39097793078165227  0.38570150490038924  0.7217530944398904  1.0000
  H   H22       1.0  0.40469516359199553  0.23479118158530818  0.7333640642784619  1.0000
  H   H23       1.0  0.6757783810420152  0.19758940518131848  0.3460157381820609  1.0000
  H   H24       1.0  0.23148919103914525  0.2816682483352295  0.02942219019416832  1.0000
  H   H25       1.0  0.37292249439637004  0.38375592631153677  0.11411679150426578  1.0000
  H   H26       1.0  0.22174339782877442  0.4421728809263214  0.02140491428795599  1.0000
  H   H27       1.0  0.33061117694236947  0.8028169033172006  0.6440170364847193  1.0000
  H   H28       1.0  0.1597241443138984  0.17363317124979727  0.27445247233602293  1.0000
  H   H29       1.0  0.9941128108456143  0.17256208549278543  0.2547728420019909  1.0000
  H   H30       1.0  0.7583643529861989  0.7050521576487158  0.9956075774443395  1.0000
  H   H31       1.0  0.7734557278467307  0.7483736082850144  0.9002415152111144  1.0000
  H   H32       1.0  0.9290858193337783  0.7066208533266262  0.014201955059931534  1.0000
  H   H33       1.0  0.9438197171776893  0.7509201262750623  0.9195300262949293  1.0000
  H   H34       1.0  0.6508477437182664  0.8079108299045499  0.9804319509560245  1.0000
  H   H35       1.0  0.5167945842194684  0.17793908459534458  0.8271042224603209  1.0000
  H   H36       1.0  0.14397213383220034  0.801026984433662  0.8400233379868001  1.0000
  H   H37       1.0  0.5461965254536594  0.8146597452376126  0.6323663349733551  1.0000
  H   H38       1.0  0.3144475842406039  0.18547678782152136  0.22737789638473066  1.0000
  H   H39       1.0  0.2796301322134484  0.6027376180852926  0.974069540536988  1.0000
  H   H40       1.0  0.6925170110702228  0.8316499282290621  0.5684418825978457  1.0000
  H   H41       1.0  0.5580998609641769  0.7451408656059684  0.4696065732570178  1.0000
  H   H42       1.0  0.6662116353858639  0.7696731616171207  0.42806280873264785  1.0000
  H   H43       1.0  0.8454579069390961  0.1841097875056619  0.16895286214337088  1.0000
  H   H44       1.0  0.49333568681250034  0.821410311094006  0.16798959261784327  1.0000
  H   H45       1.0  0.4584905762225164  0.5902385407461354  0.770893803657181  1.0000
  H   H46       1.0  0.6719394137844433  0.4007179148573102  0.3666708119789704  1.0000
  H   H47       1.0  0.167380090556101  0.6764019355317643  0.4833730095649076  1.0000
  C   C1        1.0  0.19390469682062422  0.9027170570551135  0.08890031630620852  1.0000
  C   C2        1.0  0.5299283377387738  0.9127352518207488  0.1965655231115521  1.0000
  C   C3        1.0  0.4158725050963812  0.6093749915274741  0.821661674177655  1.0000
  C   C4        1.0  0.6880297991350022  0.09756554820667424  0.7925804292198891  1.0000
  C   C5        1.0  0.7049496098750013  0.38270382679736775  0.3058028627316106  1.0000
  C   C6        1.0  0.3609828656005548  0.5478904420246311  0.8657159101871205  1.0000
  C   C7        1.0  0.8116995120601588  0.4404600276410733  0.3162329337384549  1.0000
  C   C8        1.0  0.608547190327997  0.01160647120286047  0.29885548329156847  1.0000
  C   C9        1.0  0.7894103701172384  0.9948999632857324  0.09479996295510082  1.0000
  C   C10       1.0  0.10821246937260308  0.6993668395243875  0.49994283173879966  1.0000
  C   C11       1.0  0.9998628423056958  0.6165592975028531  0.39857026875547075  1.0000
  C   C12       1.0  0.6535591613255463  0.00321130417307102  0.6883065146297868  1.0000
  C   C13       1.0  0.054584283584382824  0.5673348564840452  0.569739364659988  1.0000
  C   C14       1.0  0.9982543982555329  0.7100082281154486  0.6093520542149095  1.0000
  C   C15       1.0  0.09126900547723701  0.6920247632145407  0.5973449370364821  1.0000
  C   C16       1.0  0.37574947446919554  0.1601328626977932  0.9749916505057786  1.0000
  C   C17       1.0  0.9123376876885704  0.5341735319714759  0.4179427450110185  1.0000
  C   C18       1.0  0.9583428873083477  0.475841862723236  0.4586373633644742  1.0000
  C   C19       1.0  0.8907399377399443  0.6085044512523368  0.5093920099595979  1.0000
  C   C20       1.0  0.6860281580498225  0.1082014130103416  0.5928989043578669  1.0000
  C   C21       1.0  0.6671864522421062  0.01002201922846529  0.5954074943850787  1.0000
  C   C22       1.0  0.65153467791626  0.9177676726981616  0.4977520966243817  1.0000
  C   C23       1.0  0.3970765671379298  0.19165852586304788  0.8997727512428998  1.0000
  C   C24       1.0  0.6419117905569963  0.9233284365390801  0.4044160999463602  1.0000
  C   C25       1.0  0.6473975889345667  0.017427297659608643  0.39941937939822497  1.0000
  C   C26       1.0  0.6774208212818922  0.11257246465304162  0.49993483958871143  1.0000
  C   C27       1.0  0.6899705808585426  0.2302485007711256  0.5530467807035894  1.0000
  C   C28       1.0  0.2993997690257972  0.8102867834364886  0.7064609648309105  1.0000
  C   C29       1.0  0.6994760322559233  0.2254258793347646  0.6585808795489784  1.0000
  C   C30       1.0  0.327677076871936  0.41521119612215085  0.9353712230119557  1.0000
  C   C31       1.0  0.35204023455207095  0.4456499536228621  0.8608361267528297  1.0000
  C   C32       1.0  0.3754586513861684  0.37213937736155606  0.7860684408717519  1.0000
  C   C33       1.0  0.3826108352839911  0.28472332997171895  0.792299318502508  1.0000
  C   C34       1.0  0.19364218122163387  0.7739888254299174  0.6990856920344231  1.0000
  C   C35       1.0  0.36586178039999623  0.2608808972788811  0.8734569301520668  1.0000
  C   C36       1.0  0.3332468749610413  0.32688390224087266  0.940553410631516  1.0000
  C   C37       1.0  0.30726669555181024  0.35100429716438  0.03991272616214311  1.0000
  C   C38       1.0  0.2991829199636201  0.4486725509146368  0.03220562261798686  1.0000
  C   C39       1.0  0.9818606303963054  0.8920336664603637  0.08186582132020019  1.0000
  C   C40       1.0  0.4755365741152176  0.16666092804793936  0.8793589404386285  1.0000
  C   C41       1.0  0.08456839026172959  0.9926181257228633  0.14994586129724752  1.0000
  C   C42       1.0  0.0831885660924456  0.0920358359520961  0.21517712180872914  1.0000
  C   C43       1.0  0.9880088633286948  0.09132182629380747  0.20396701917498927  1.0000
  C   C44       1.0  0.884991252067799  0.991201617056639  0.1264784458075356  1.0000
  C   C45       1.0  0.3251346215876368  0.6159899527256202  0.9255773105845366  1.0000
  C   C46       1.0  0.886778423362344  0.8911600393363344  0.07089897824452868  1.0000
  C   C47       1.0  0.8161791169879822  0.7643485658164906  0.9786921158410637  1.0000
  C   C48       1.0  0.9239699605543312  0.7656064821657297  0.9908229388349599  1.0000
  C   C49       1.0  0.204386753605185  0.8093154096587014  0.8062530027058231  1.0000
  C   C50       1.0  0.5909800998274549  0.9064546004441285  0.6941058424921  1.0000
  C   C51       1.0  0.285553937618289  0.09385890004042355  0.18172163935070534  1.0000
  C   C52       1.0  0.18271724812554882  0.9966764571199106  0.14458293834272953  1.0000
  C   C53       1.0  0.6417848004792007  0.8108291241941997  0.4909591396496823  1.0000
  C   C54       1.0  0.8038620541754684  0.3780841903742668  0.210863613809245  1.0000
  C   C55       1.0  0.6219885405831038  0.10478368411835973  0.2881148339737225  1.0000
  C   C56       1.0  0.6846600823223526  0.9003197138813235  0.01824657231741617  1.0000
  C   C57       1.0  0.7837289637265956  0.09228092338788947  0.11518640857248408  1.0000
  Br  Br1       1.0  0.4054477119269464  0.6067012152946134  0.1636347712200959  1.0000
  N   N1        1.0  0.2945771459316902  0.9409893012379414  0.09274517839089925  1.0000
  N   N2        1.0  0.4384903890974103  0.12260401107663924  0.9986009185860784  1.0000
  N   N3        1.0  0.36681117646119066  0.861074688442095  0.8099008495340386  1.0000
  N   N4        1.0  0.5000003769963758  0.12686074275870166  0.9401372964779928  1.0000
  N   N5        1.0  0.30836061065947734  0.8605299264634922  0.8712545446150914  1.0000
  N   N6        1.0  0.58857022502059  0.9409296539275405  0.7928915305518206  1.0000
  N   N7        1.0  0.3516398363227112  0.06009753978178622  0.15049385525720288  1.0000
  N   N8        1.0  0.35604310580654186  0.7092979144878769  0.917709156682932  1.0000
  N   N9        1.0  0.7007859886585664  0.2900960965972105  0.14331429654706096  1.0000
  N   N10       1.0  0.5552122403143472  0.0636484412357419  0.1881807516536114  1.0000
  N   N11       1.0  0.6235385636835248  0.9394094364739658  0.9942656186474753  1.0000
  N   N12       1.0  0.6843786252681598  0.05723362175162097  0.05362999266154859  1.0000
  N   N13       1.0  0.4984434628381394  0.945843863282164  0.13215681110630598  1.0000
  N   N14       1.0  0.4129036176382146  0.705548730638789  0.8530952869904171  1.0000
  N   N15       1.0  0.6389398421904248  0.2929101962843959  0.20249420869648557  1.0000
  N   N16       1.0  0.6493545609260923  0.06002199188244382  0.8542544640815851  1.0000
