data_image0
_chemical_formula_structural       Cd2H32C42N2O14
_chemical_formula_sum              "Cd2 H32 C42 N2 O14"
_cell_length_a       9.192180805433052
_cell_length_b       9.928669147526632
_cell_length_c       12.163149635274184
_cell_angle_alpha    108.19584975431175
_cell_angle_beta     93.98031609484568
_cell_angle_gamma    102.80612451430137

_space_group_name_H-M_alt    "P 1"
_space_group_IT_number       1

loop_
  _space_group_symop_operation_xyz
  'x, y, z'

loop_
  _atom_site_type_symbol
  _atom_site_label
  _atom_site_symmetry_multiplicity
  _atom_site_fract_x
  _atom_site_fract_y
  _atom_site_fract_z
  _atom_site_occupancy
  Cd  Cd1       1.0  0.5108212858909836  0.5011043608204628  0.25987115397118987  1.0000
  Cd  Cd2       1.0  0.48917376156034453  0.4988971731366404  0.7401280834451355  1.0000
  H   H1        1.0  0.5007116551250377  0.2597572776438568  0.29605772593112073  1.0000
  H   H2        1.0  0.4992914732136882  0.7402420364282348  0.7039388040064974  1.0000
  H   H3        1.0  0.584911741876553  0.35662589603497696  0.4281302470111965  1.0000
  H   H4        1.0  0.4150928407331095  0.6433789179377953  0.571866145271592  1.0000
  H   H5        1.0  0.7345143954033019  0.3725916332128845  0.9070287374322203  1.0000
  H   H6        1.0  0.26548178411024276  0.6274054169488179  0.09297841451900975  1.0000
  H   H7        1.0  0.05662571733349611  0.6526724070770696  0.21105112148722324  1.0000
  H   H8        1.0  0.9433737034406847  0.34732463999583263  0.7889545225642605  1.0000
  H   H9        1.0  0.5243747106875745  0.22878779999764015  0.9664255556730053  1.0000
  H   H10       1.0  0.475626951621159  0.7712180987498697  0.033574286844363116  1.0000
  H   H11       1.0  0.13127421043869703  0.7726809030718583  0.7614042650258098  1.0000
  H   H12       1.0  0.8687317304886406  0.22731611495571963  0.23860082555840015  1.0000
  H   H13       1.0  0.2501332715324622  0.7734796248113865  0.5655499264894529  1.0000
  H   H14       1.0  0.7498680252881866  0.22652076792413567  0.4344500982344285  1.0000
  H   H15       1.0  0.0776954491491608  0.258896093767177  0.0061672541196102874  1.0000
  H   H16       1.0  0.9223092524677695  0.7411010218426526  0.9938279425839835  1.0000
  H   H17       1.0  0.078215384153232  0.08799391122713729  0.7120877761166894  1.0000
  H   H18       1.0  0.921781525551573  0.9120020740050307  0.2879150157191716  1.0000
  H   H19       1.0  0.019538039677854578  0.8933849174504045  0.6704862293300095  1.0000
  H   H20       1.0  0.9804636720218269  0.10660887385328266  0.32951290059466476  1.0000
  H   H21       1.0  0.1522504180874335  0.9156663547425762  0.1296225527603808  1.0000
  H   H22       1.0  0.8477539500258261  0.08432968680388338  0.8703698808309779  1.0000
  H   H23       1.0  0.32729466972426025  0.20981770441827757  0.8081876039236773  1.0000
  H   H24       1.0  0.6727078919588508  0.7901794005464495  0.19180996600876196  1.0000
  H   H25       1.0  0.15601476463174888  0.1807443688824932  0.5679768208199574  1.0000
  H   H26       1.0  0.8439797161639645  0.8192549559672458  0.4320234565911888  1.0000
  H   H27       1.0  0.322947677465649  0.7687166096643522  0.9128834036434907  1.0000
  H   H28       1.0  0.6770559794326871  0.2312881113262222  0.08712361419395617  1.0000
  H   H29       1.0  0.37970225823005427  0.9523780999406524  0.2967256847542784  1.0000
  H   H30       1.0  0.6202978558884028  0.0476299820239703  0.7032771325519388  1.0000
  H   H31       1.0  0.27495910276225277  0.1628924322424297  0.386176512075103  1.0000
  H   H32       1.0  0.7250396141576091  0.8371145665249812  0.6138251391220136  1.0000
  C   C1        1.0  0.8828327724508469  0.5134993606472448  0.06715034763499256  1.0000
  C   C2        1.0  0.11716359568627151  0.4864944002324093  0.9328551257505138  1.0000
  C   C3        1.0  0.4423598489484775  0.9987933415274809  0.9542560655716696  1.0000
  C   C4        1.0  0.5576473074503809  0.0012124961731388  0.04574728281379239  1.0000
  C   C5        1.0  0.8507716138952259  0.4269090092816725  0.9481528978917664  1.0000
  C   C6        1.0  0.14922416249834214  0.5730825577357734  0.05185197393374352  1.0000
  C   C7        1.0  0.19044388731013848  0.9761386600898446  0.5756433807995264  1.0000
  C   C8        1.0  0.8095555403605346  0.02386283417683189  0.4243576763783849  1.0000
  C   C9        1.0  0.7579581396786351  0.5279349670797798  0.13919978078187967  1.0000
  C   C10       1.0  0.2420357744614563  0.4720621486626014  0.8608015366240874  1.0000
  C   C11       1.0  0.03276569549645108  0.586344856552529  0.11844905041248671  1.0000
  C   C12       1.0  0.9672325668785574  0.41364778755080067  0.8815570320738144  1.0000
  C   C13       1.0  0.32210185601657326  0.8500319126106672  0.42617833984464665  1.0000
  C   C14       1.0  0.6778956648722385  0.14997070605490848  0.5738212874550539  1.0000
  C   C15       1.0  0.44219539338171643  0.1238185069712259  0.9232573869215128  1.0000
  C   C16       1.0  0.5578058658070333  0.8761819086320272  0.0767401754701352  1.0000
  C   C17       1.0  0.12808874416305827  0.0978716727286013  0.07627256935529657  1.0000
  C   C18       1.0  0.87191735465246  0.90212652607844  0.9237237934573911  1.0000
  C   C19       1.0  0.3927377672236219  0.7271120644098586  0.37434565594817565  1.0000
  C   C20       1.0  0.6072599742731837  0.2728916969222864  0.6256493474670675  1.0000
  C   C21       1.0  0.22130122385672735  0.869511085321875  0.809653594073424  1.0000
  C   C22       1.0  0.7787031061605275  0.13048815403570296  0.19035036741257724  1.0000
  C   C23       1.0  0.2526981217470166  0.8586427300240657  0.5261567210950274  1.0000
  C   C24       1.0  0.7473015641635428  0.14135988404144934  0.4738421745306453  1.0000
  C   C25       1.0  0.042767647935264115  0.1452765294499443  0.0027439769436483972  1.0000
  C   C26       1.0  0.957234567700219  0.8547195090739946  0.9972500090991542  1.0000
  C   C27       1.0  0.11634996628623642  0.9870936118627966  0.6839571418251323  1.0000
  C   C28       1.0  0.8836491084403091  0.012902368769310604  0.31604491833670056  1.0000
  C   C29       1.0  0.08430343492504735  0.9518103122736646  0.07295344768321137  1.0000
  C   C30       1.0  0.9157059302390352  0.04818786819942031  0.9270430487845541  1.0000
  C   C31       1.0  0.2685491077718325  0.20145146518465396  0.15504066938337493  1.0000
  C   C32       1.0  0.7314512763455667  0.7985456520027086  0.8449568114456907  1.0000
  C   C33       1.0  0.3330075565436914  0.11733439797288976  0.8367941109640069  1.0000
  C   C34       1.0  0.6669975162087878  0.8826637688325714  0.16320631118404785  1.0000
  C   C35       1.0  0.19971048008089554  0.08675669358651558  0.5260677630159092  1.0000
  C   C36       1.0  0.8002867574801086  0.9132448205253781  0.4739323842812125  1.0000
  C   C37       1.0  0.32831014365559247  0.8705991385592424  0.8953153725106728  1.0000
  C   C38       1.0  0.6716961627598363  0.1294033854803303  0.10468953586702406  1.0000
  C   C39       1.0  0.3270311405834433  0.9592946477163261  0.37504707883651606  1.0000
  C   C40       1.0  0.6729672804646469  0.04071125411998369  0.6249542715806056  1.0000
  C   C41       1.0  0.2669908414443896  0.07737170181731301  0.4255023941803272  1.0000
  C   C42       1.0  0.733008196435179  0.9226363786360421  0.5745011993516085  1.0000
  N   N1        1.0  0.22477467629714448  0.9914053296483513  0.7815786778286619  1.0000
  N   N2        1.0  0.7752279104738946  0.008591760071219298  0.21842053365860173  1.0000
  O   O1        1.0  0.43445665759391977  0.7124069323994603  0.2740844644541837  1.0000
  O   O2        1.0  0.5655296043307985  0.2875946961836533  0.7259094918841524  1.0000
  O   O3        1.0  0.6301701674494423  0.4324978672962131  0.09819224098630736  1.0000
  O   O4        1.0  0.36982250048374254  0.5674948988346387  0.9018037694126091  1.0000
  O   O5        1.0  0.4103329886893476  0.6394222763059787  0.4292308174489035  1.0000
  O   O6        1.0  0.589672198207829  0.3605847239064204  0.5707669971713043  1.0000
  O   O7        1.0  0.7800218858238565  0.6298097124414921  0.23749282560149243  1.0000
  O   O8        1.0  0.2199652317317558  0.3701907749863125  0.7625049783955901  1.0000
  O   O9        1.0  0.3573271907597118  0.14620461829459688  0.20160375525354365  1.0000
  O   O10       1.0  0.6426737851012377  0.8537946927549739  0.7983943271355186  1.0000
  O   O11       1.0  0.2881922567477488  0.33719884663242533  0.16771042309043332  1.0000
  O   O12       1.0  0.7118052447006065  0.662799332461951  0.8322929703054313  1.0000
  O   O13       1.0  0.5874108282958092  0.3458337347873552  0.3439295160969492  1.0000
  O   O14       1.0  0.41259316257031037  0.6541688853232087  0.65606627462585  1.0000
