data_image0
_chemical_formula_structural       Mg6H42C66S6N12O18
_chemical_formula_sum              "Mg6 H42 C66 S6 N12 O18"
_cell_length_a       6.772254694424569
_cell_length_b       36.799029447033305
_cell_length_c       36.78540180032467
_cell_angle_alpha    119.64180005967869
_cell_angle_beta     93.50517980702139
_cell_angle_gamma    93.53784765935595

_space_group_name_H-M_alt    "P 1"
_space_group_IT_number       1

loop_
  _space_group_symop_operation_xyz
  'x, y, z'

loop_
  _atom_site_type_symbol
  _atom_site_label
  _atom_site_symmetry_multiplicity
  _atom_site_fract_x
  _atom_site_fract_y
  _atom_site_fract_z
  _atom_site_occupancy
  Mg  Mg1       1.0  0.3289870596584308  0.6902288531699413  0.3249163408499742  1.0000
  Mg  Mg2       1.0  0.6387227491536933  0.6346254365642069  0.30979066674214567  1.0000
  Mg  Mg3       1.0  0.003930506162113323  0.6751848413537969  0.3654480394010236  1.0000
  Mg  Mg4       1.0  0.32096117185317036  0.3089224833994564  0.6738910474237871  1.0000
  Mg  Mg5       1.0  0.012140664188578329  0.3649851567231224  0.6910516981546027  1.0000
  Mg  Mg6       1.0  0.6470848916994215  0.3260459983545943  0.6349633465988591  1.0000
  H   H1        1.0  0.7215094770672649  0.5027401350727985  0.09197694174449118  1.0000
  H   H2        1.0  0.21835517895430448  0.5892495692498655  0.49724738523249123  1.0000
  H   H3        1.0  0.6298949333640422  0.9080240626037224  0.410825203902107  1.0000
  H   H4        1.0  0.406000362126079  0.48951998358821663  0.003001971780164994  1.0000
  H   H5        1.0  0.9158789157919784  0.5134846576605909  0.5104675809296284  1.0000
  H   H6        1.0  0.40282759110077365  0.9969830643950742  0.48654778411608435  1.0000
  H   H7        1.0  0.510854314606398  0.41997468582557923  0.8938384806245313  1.0000
  H   H8        1.0  0.09115708226993749  0.4739981141730071  0.5800778328451346  1.0000
  H   H9        1.0  0.6168267663695064  0.1061261983551773  0.5260521477120437  1.0000
  H   H10       1.0  0.06727016254254167  0.4421963029820119  0.8681772791661405  1.0000
  H   H11       1.0  0.6251771895187022  0.4260852605780414  0.5579350653207273  1.0000
  H   H12       1.0  0.19848881526390727  0.1317517070491547  0.5738039239274431  1.0000
  H   H13       1.0  0.06892713129052906  0.3887496160868339  0.7960361054392282  1.0000
  H   H14       1.0  0.6803255390172183  0.40737704592596896  0.6113829141966323  1.0000
  H   H15       1.0  0.2723741978154095  0.20398047155934754  0.5927109301419125  1.0000
  H   H16       1.0  0.7865196866430961  0.4340370902034891  0.8098417136680214  1.0000
  H   H17       1.0  0.35244618935481503  0.37576778844132963  0.565852249082383  1.0000
  H   H18       1.0  0.9760035547862669  0.19011886068453518  0.6243047537584234  1.0000
  H   H19       1.0  0.6094374983313459  0.46245414950128344  0.8739962011327481  1.0000
  H   H20       1.0  0.14690403790244486  0.4116275802638683  0.5376119211918111  1.0000
  H   H21       1.0  0.7344135583119709  0.1260338217999646  0.5884766573928177  1.0000
  H   H22       1.0  0.6941475541880421  0.3839518149181061  0.9154661756494707  1.0000
  H   H23       1.0  0.31027804783421686  0.5316853386215854  0.6160616555018168  1.0000
  H   H24       1.0  0.7785448947938817  0.08440211732687428  0.4683550968740421  1.0000
  H   H25       1.0  0.8829805601487877  0.3831354933649109  0.9750968637237777  1.0000
  H   H26       1.0  0.5001260536752808  0.5920591858876776  0.6167854317875412  1.0000
  H   H27       1.0  0.908160766046116  0.024780016426611002  0.40795473167747803  1.0000
  H   H28       1.0  0.8246382865133909  0.43372059988665496  0.048722005697946755  1.0000
  H   H29       1.0  0.3909057654402445  0.6149839995335354  0.5661627722410076  1.0000
  H   H30       1.0  0.7762847340801924  0.9511740113980379  0.3850212170352594  1.0000
  H   H31       1.0  0.6031708358702516  0.5531031386366578  0.14011320377989744  1.0000
  H   H32       1.0  0.049547519935373326  0.5870778698486063  0.446911352750064  1.0000
  H   H33       1.0  0.46305640242277935  0.8598222349849677  0.4128604546116822  1.0000
  H   H34       1.0  0.5875944496766933  0.6027129134860374  0.20506793428381104  1.0000
  H   H35       1.0  0.984479385784901  0.6024655131833183  0.3973890251331795  1.0000
  H   H36       1.0  0.38253055755516374  0.794919154457588  0.3976068928227009  1.0000
  H   H37       1.0  0.8811342909871556  0.5529920600038596  0.1955961139345208  1.0000
  H   H38       1.0  0.32759351457114155  0.6425457287898624  0.44703821567576824  1.0000
  H   H39       1.0  0.6854330661922177  0.8044353439398507  0.35750024749756215  1.0000
  H   H40       1.0  0.06906319532585296  0.5162681150487882  0.1328623222642165  1.0000
  H   H41       1.0  0.5521703140842789  0.6165586541205386  0.48376538441998235  1.0000
  H   H42       1.0  0.9363620272998431  0.8670863162064818  0.3833522881711817  1.0000
  C   C1        1.0  0.41954244263339285  0.5071856271273134  0.09035282557550778  1.0000
  C   C2        1.0  0.9119239831272665  0.583168994263346  0.49280579939826225  1.0000
  C   C3        1.0  0.32931669876022324  0.9095710519718307  0.41677685488883054  1.0000
  C   C4        1.0  0.6115778359558348  0.46440975685099783  0.03009487289971712  1.0000
  C   C5        1.0  0.14688978065613154  0.5656783775754874  0.5355384807877501  1.0000
  C   C6        1.0  0.5816988333515382  0.9698471994883988  0.4343481716057201  1.0000
  C   C7        1.0  0.5069763784481937  0.4658401384407115  0.9969184405369095  1.0000
  C   C8        1.0  0.04086298904820033  0.5310637768937453  0.5341053211017626  1.0000
  C   C9        1.0  0.5102462383110123  0.0030269861743334996  0.4689672683574744  1.0000
  C   C10       1.0  0.5348254574803731  0.4361977976365949  0.9556762071714221  1.0000
  C   C11       1.0  0.09865307952301082  0.5195177287312092  0.5637616062182291  1.0000
  C   C12       1.0  0.5793472957023127  0.04423646318885229  0.4805115324943261  1.0000
  C   C13       1.0  0.2609779414942536  0.44783816537812265  0.914228610196155  1.0000
  C   C14       1.0  0.8131841553803839  0.4664726682715781  0.5522677571269059  1.0000
  C   C15       1.0  0.3465569015500449  0.08572048762785302  0.5334944653540961  1.0000
  C   C16       1.0  0.32631221620576406  0.42639239785727784  0.8394443326381026  1.0000
  C   C17       1.0  0.9000488763790387  0.4131570250545238  0.5737157486402256  1.0000
  C   C18       1.0  0.48633997411707947  0.16054651475872816  0.5868505959492725  1.0000
  C   C19       1.0  0.22698878815710793  0.39894847144842055  0.799513404140008  1.0000
  C   C20       1.0  0.8281744326594378  0.40068148311783597  0.6011593483341289  1.0000
  C   C21       1.0  0.4269779251200203  0.20046330935804949  0.5993512833620189  1.0000
  C   C22       1.0  0.3256565800350159  0.3825138491943391  0.7630155149827902  1.0000
  C   C23       1.0  0.9432382362165795  0.38054868826943533  0.6174905598527831  1.0000
  C   C24       1.0  0.5622494394596558  0.23693295260660116  0.6194224542668895  1.0000
  C   C25       1.0  0.5342998492009627  0.3951924704542408  0.7672787261028591  1.0000
  C   C26       1.0  0.13914243378712848  0.3720786985427722  0.604758584639079  1.0000
  C   C27       1.0  0.7666589533951936  0.23270067860966046  0.6278752008906283  1.0000
  C   C28       1.0  0.6297638475589623  0.42364497442555654  0.8077389189680492  1.0000
  C   C29       1.0  0.20617988796805511  0.38407406988081044  0.5763058616018955  1.0000
  C   C30       1.0  0.8215295826207764  0.19227081551618855  0.6159452664403562  1.0000
  C   C31       1.0  0.531725121332329  0.43923625280794454  0.8435741259888377  1.0000
  C   C32       1.0  0.09255032606637308  0.4043973374518046  0.5608240539623071  1.0000
  C   C33       1.0  0.6875887514721555  0.1564538164420242  0.5956237040860303  1.0000
  C   C34       1.0  0.6530259174049817  0.38047017969730484  0.7314928493106054  1.0000
  C   C35       1.0  0.2724667766220889  0.3510085331979979  0.6194731176352593  1.0000
  C   C36       1.0  0.9211713098470753  0.26849996753880834  0.6489823170459774  1.0000
  C   C37       1.0  0.6703202429781641  0.40636226782939394  0.9478101919828108  1.0000
  C   C38       1.0  0.26406035808238915  0.541543491283228  0.5936056597161115  1.0000
  C   C39       1.0  0.7226299836183117  0.052069284725547484  0.45847732583389006  1.0000
  C   C40       1.0  0.7755804820567389  0.4058470707179892  0.9811802432479838  1.0000
  C   C41       1.0  0.3698040203570087  0.5754228003102212  0.5941136227069993  1.0000
  C   C42       1.0  0.7945393019152363  0.018705050581289098  0.4245787250538983  1.0000
  C   C43       1.0  0.7447564677185027  0.43441262333255554  0.02246699506333277  1.0000
  C   C44       1.0  0.3101607821203273  0.5880879817548532  0.5655325149127963  1.0000
  C   C45       1.0  0.7224105906861737  0.9774421604113855  0.41191804966317874  1.0000
  C   C46       1.0  0.33947584970694317  0.5576914953452458  0.16434103387712187  1.0000
  C   C47       1.0  0.7812292581570262  0.6066833031032672  0.4423665190262371  1.0000
  C   C48       1.0  0.17513247426083453  0.8356104279822958  0.39330536125840637  1.0000
  C   C49       1.0  0.4307273940971471  0.591822270383105  0.20213451349546596  1.0000
  C   C50       1.0  0.8384209688054297  0.6103764120643759  0.40826386504999607  1.0000
  C   C51       1.0  0.22855702577341921  0.7978521774530591  0.38967658280143536  1.0000
  C   C52       1.0  0.3292667570695256  0.6126046107440216  0.2379450559683037  1.0000
  C   C53       1.0  0.7162669302237177  0.625387378761296  0.38747986124120376  1.0000
  C   C54       1.0  0.09115390956600304  0.7620679239198792  0.37471353409523556  1.0000
  C   C55       1.0  0.12312908370672193  0.5987128392675274  0.2348584629828994  1.0000
  C   C56       1.0  0.5240104021929779  0.6361629823187654  0.4013559864085254  1.0000
  C   C57       1.0  0.8881521924639344  0.7651655161156868  0.36390984370278584  1.0000
  C   C58       1.0  0.035945875464477625  0.5639809652878611  0.1966322149716363  1.0000
  C   C59       1.0  0.4714317868871447  0.6326279959374048  0.43605858165371836  1.0000
  C   C60       1.0  0.8392404794253422  0.8033769013157225  0.36739871322988205  1.0000
  C   C61       1.0  0.13826735076548854  0.543259283768286  0.16184528727686154  1.0000
  C   C62       1.0  0.5943695947465171  0.618560515077533  0.45678034805245477  1.0000
  C   C63       1.0  0.9764240308181085  0.8381312769720991  0.3814112305141465  1.0000
  C   C64       1.0  0.9988579163761528  0.6175524114207604  0.2695306017802538  1.0000
  C   C65       1.0  0.38108299506028936  0.6519799105517591  0.38250092695766835  1.0000
  C   C66       1.0  0.7292859482693075  0.73049425785549  0.34810415015515184  1.0000
  S   S1        1.0  0.19616894565280765  0.485869926416413  0.06434044219722078  1.0000
  S   S2        1.0  0.7098733403737467  0.5784560517588488  0.5141239231698196  1.0000
  S   S3        1.0  0.13210080079839753  0.9355849739438823  0.4214474253200679  1.0000
  S   S4        1.0  0.09209530679083136  0.46631755470551894  0.9481259045159194  1.0000
  S   S5        1.0  0.6256257110059096  0.4818591968973465  0.5338305658106038  1.0000
  S   S6        1.0  0.14386109228218658  0.051803774314294095  0.5180756540050029  1.0000
  N   N1        1.0  0.5935549848436067  0.49466039417665536  0.07241014154505625  1.0000
  N   N2        1.0  0.09847393544649201  0.5777357548371638  0.5053001383731514  1.0000
  N   N3        1.0  0.5213613046494814  0.9275434744283116  0.42230064136047235  1.0000
  N   N4        1.0  0.44031971434981176  0.43571112390393546  0.9201784550959363  1.0000
  N   N5        1.0  0.004737882728633653  0.4845409070554823  0.5643201514604858  1.0000
  N   N6        1.0  0.5201250135382622  0.079770642715971  0.5154686332842928  1.0000
  N   N7        1.0  0.21510886188399062  0.44134751785172444  0.8738529527443649  1.0000
  N   N8        1.0  0.7738913153920065  0.43262240606966873  0.5587965529116306  1.0000
  N   N9        1.0  0.3407635985966381  0.12611959336567927  0.5673310020138518  1.0000
  N   N10       1.0  0.46007313862731525  0.5393973882180558  0.13170510256966142  1.0000
  N   N11       1.0  0.9202150756538287  0.5923619587559725  0.46064182419767985  1.0000
  N   N12       1.0  0.32839693435107614  0.8682231268049705  0.4075788534205958  1.0000
  O   O1        1.0  0.8188603725274177  0.6024812888127472  0.26547404666083474  1.0000
  O   O2        1.0  0.21616345717194463  0.6630056590877517  0.3975542540594364  1.0000
  O   O3        1.0  0.5533790665975218  0.7345318084892156  0.3370805452641153  1.0000
  O   O4        1.0  0.07330380683687568  0.6503893189169432  0.30468399022823456  1.0000
  O   O5        1.0  0.4230889697672636  0.654313482139628  0.3496962675018482  1.0000
  O   O6        1.0  0.7686622921434817  0.6953547670710803  0.3457631064889456  1.0000
  O   O7        1.0  0.43172043098758905  0.6437961827623511  0.27327910265657374  1.0000
  O   O8        1.0  0.7878058289616375  0.6295146116560203  0.35630195477057935  1.0000
  O   O9        1.0  0.15831687235100836  0.726760618793712  0.3705905183004961  1.0000
  O   O10       1.0  0.8334930081557985  0.3955182267643593  0.7362120854961989  1.0000
  O   O11       1.0  0.4378260341470225  0.340636724628645  0.6044181466076355  1.0000
  O   O12       1.0  0.0968208237112123  0.26384521590988197  0.6594090900912167  1.0000
  O   O13       1.0  0.5717750747572268  0.35115013918161964  0.694807099647605  1.0000
  O   O14       1.0  0.22053547118875377  0.3436806335444303  0.648811012190578  1.0000
  O   O15       1.0  0.8766666054745186  0.3051518737504963  0.6562914320794564  1.0000
  O   O16       1.0  0.2206692227356228  0.35538714348931694  0.7261408876464518  1.0000
  O   O17       1.0  0.8653934023788851  0.3707762973271399  0.6446022170035662  1.0000
  O   O18       1.0  0.4942006061762783  0.273797933945211  0.6291698025030501  1.0000
