data_image0
_chemical_formula_structural       Hg4H36C48Br8N8Cl4
_chemical_formula_sum              "Hg4 H36 C48 Br8 N8 Cl4"
_cell_length_a       4.7419497460061235
_cell_length_b       16.48314615002295
_cell_length_c       17.613157035003976
_cell_angle_alpha    90.0000673266719
_cell_angle_beta     90.00003729778338
_cell_angle_gamma    90.00017966239687

_space_group_name_H-M_alt    "P 1"
_space_group_IT_number       1

loop_
  _space_group_symop_operation_xyz
  'x, y, z'

loop_
  _atom_site_type_symbol
  _atom_site_label
  _atom_site_symmetry_multiplicity
  _atom_site_fract_x
  _atom_site_fract_y
  _atom_site_fract_z
  _atom_site_occupancy
  Hg  Hg1       1.0  0.9753385620284121  0.1461124101832638  0.47483213367100763  1.0000
  Hg  Hg2       1.0  0.5246570794696696  0.8538894165663606  0.9748325650693982  1.0000
  Hg  Hg3       1.0  0.47534077843036454  0.353888083786295  0.525168437252681  1.0000
  Hg  Hg4       1.0  0.024655846971896298  0.6461109031412136  0.0251684729175494  1.0000
  H   H1        1.0  0.3727639814761545  0.9934649116270221  0.43788913841153476  1.0000
  H   H2        1.0  0.1272336272784003  0.0065376294121293  0.9378886607001461  1.0000
  H   H3        1.0  0.8727710006305499  0.5065363297746615  0.5621113937201938  1.0000
  H   H4        1.0  0.6272299840280978  0.49346254954539853  0.062110712807495395  1.0000
  H   H5        1.0  0.7358293884120285  0.9003566723124338  0.4932715817318822  1.0000
  H   H6        1.0  0.7641726235300865  0.09964457102524452  0.9932740690555447  1.0000
  H   H7        1.0  0.23583934255262307  0.599643231813815  0.5067277905346754  1.0000
  H   H8        1.0  0.2641677830912457  0.4003545184913051  0.006726464316884099  1.0000
  H   H9        1.0  0.60456661533766  0.0195048857103686  0.709073399500262  1.0000
  H   H10       1.0  0.8954347194711333  0.9804941790262518  0.20907500256404885  1.0000
  H   H11       1.0  0.1045612139500633  0.48049405937419465  0.2909265377332487  1.0000
  H   H12       1.0  0.39543182696414186  0.5195052628453639  0.7909255335971606  1.0000
  H   H13       1.0  0.25420059480440216  0.1089220819501193  0.6443468042280571  1.0000
  H   H14       1.0  0.2458005322347034  0.8910794820613931  0.14434544403911073  1.0000
  H   H15       1.0  0.7541923207996817  0.39107821190226133  0.3556548628862544  1.0000
  H   H16       1.0  0.7458030367345926  0.6089210377645458  0.855653362242819  1.0000
  H   H17       1.0  0.9413021121541972  0.9060566588117639  0.7027451229814828  1.0000
  H   H18       1.0  0.5586970987445239  0.09394361129940171  0.20274512815914386  1.0000
  H   H19       1.0  0.44129885225361676  0.5939428245665751  0.2972559890933226  1.0000
  H   H20       1.0  0.058694203740735404  0.4060565056384462  0.7972548009186439  1.0000
  H   H21       1.0  0.26882524563738025  0.8377860422393938  0.747428667637621  1.0000
  H   H22       1.0  0.23118245350495673  0.1622144384671174  0.24742593941532218  1.0000
  H   H23       1.0  0.7688226746435589  0.6622144984205961  0.2525712782529367  1.0000
  H   H24       1.0  0.7311703284591715  0.33778583455169553  0.7525723170611939  1.0000
  H   H25       1.0  0.6294928632426035  0.7403964493574834  0.7875497898623463  1.0000
  H   H26       1.0  0.870510767372693  0.2596021077082256  0.2875488962711685  1.0000
  H   H27       1.0  0.12949331013061988  0.7596051785795411  0.21245069901014796  1.0000
  H   H28       1.0  0.3705016526573814  0.24039586467306864  0.7124505204947197  1.0000
  H   H29       1.0  0.6611140670434068  0.6410463551723994  0.560746559749809  1.0000
  H   H30       1.0  0.8388869143752088  0.3589543424676124  0.06074747253843779  1.0000
  H   H31       1.0  0.1611140249567455  0.8589540880186135  0.4392539347449258  1.0000
  H   H32       1.0  0.338879369358878  0.14104542133915735  0.9392536418773216  1.0000
  H   H33       1.0  0.30143972032563227  0.740224441411172  0.5196619543077716  1.0000
  H   H34       1.0  0.19856110964676787  0.25977757197185275  0.019661030330610195  1.0000
  H   H35       1.0  0.8014408608980544  0.7597755220841974  0.4803385651397462  1.0000
  H   H36       1.0  0.6985569025387688  0.24022327821134576  0.980337788103533  1.0000
  C   C1        1.0  0.4315204931444043  0.9968666323753658  0.4977131735180578  1.0000
  C   C2        1.0  0.0684772581432043  0.0031353774613976006  0.9977138171501065  1.0000
  C   C3        1.0  0.9315231151258344  0.5031340555146002  0.502287936818547  1.0000
  C   C4        1.0  0.5684756181612869  0.4968647483276743  0.0022866814243017  1.0000
  C   C5        1.0  0.6323891024492739  0.9454942685477833  0.5285730482329213  1.0000
  C   C6        1.0  0.8676118023106552  0.05450578182026079  0.02857420069592109  1.0000
  C   C7        1.0  0.13238793784098138  0.5545037219276097  0.4714274411524498  1.0000
  C   C8        1.0  0.3676118596343585  0.4454946146637441  0.9714263510713792  1.0000
  C   C9        1.0  0.7022613340516414  0.9522630809812542  0.6058471094334832  1.0000
  C   C10       1.0  0.7977355371474388  0.047737673557897216  0.10584767430648158  1.0000
  C   C11       1.0  0.20226412946919228  0.5477367927651998  0.3941522568632933  1.0000
  C   C12       1.0  0.2977333750592948  0.45226205301135286  0.8941517295199759  1.0000
  C   C13       1.0  0.5619954047267584  0.011742353929406603  0.6486441340729029  1.0000
  C   C14       1.0  0.9380057861095921  0.9882578479259582  0.1486440499306099  1.0000
  C   C15       1.0  0.06199023166650619  0.4882577659921237  0.3513557955911963  1.0000
  C   C16       1.0  0.43800717089647634  0.5117410257901794  0.851355358285957  1.0000
  C   C17       1.0  0.36571139422937904  0.061699331752137716  0.6131133189753084  1.0000
  C   C18       1.0  0.13428965838784993  0.9383009794933274  0.11311255839503787  1.0000
  C   C19       1.0  0.8657058165797693  0.4383010630099449  0.3868878002109354  1.0000
  C   C20       1.0  0.6342938330441755  0.5616982260642231  0.8868867958146607  1.0000
  C   C21       1.0  0.9127230391474012  0.8991125442194204  0.6409481317027853  1.0000
  C   C22       1.0  0.5872781333541539  0.1008876479270313  0.14094928507702778  1.0000
  C   C23       1.0  0.41272421960941585  0.6008875199782366  0.35905127201859693  1.0000
  C   C24       1.0  0.0872732012949555  0.39911249487357037  0.859050649082917  1.0000
  C   C25       1.0  0.25260369894117923  0.7952273380533231  0.6300913594266645  1.0000
  C   C26       1.0  0.24740582948653161  0.20477481465747618  0.13009095169616805  1.0000
  C   C27       1.0  0.7526018699382674  0.7047737946076683  0.36990801582235366  1.0000
  C   C28       1.0  0.7473935215508689  0.2952242596822998  0.8699084431793194  1.0000
  C   C29       1.0  0.34898818999025133  0.7946522964994713  0.7057972730653218  1.0000
  C   C30       1.0  0.15102573647268966  0.20534752500630296  0.20579628106663958  1.0000
  C   C31       1.0  0.8489861868551924  0.7053477100215277  0.294202119322307  1.0000
  C   C32       1.0  0.6510111331030259  0.29465146211537535  0.7942025289127415  1.0000
  C   C33       1.0  0.5534734255004281  0.7394772574814894  0.7291655873106888  1.0000
  C   C34       1.0  0.9465342836900065  0.2605224392853885  0.22916357272958976  1.0000
  C   C35       1.0  0.05347191263660991  0.7605230883025696  0.270835455800416  1.0000
  C   C36       1.0  0.44651897157559256  0.23947681524852274  0.7708347220402911  1.0000
  C   C37       1.0  0.6618883797020134  0.6835425636385182  0.6770374896904696  1.0000
  C   C38       1.0  0.8381170964577008  0.3164576740412103  0.17703722031854593  1.0000
  C   C39       1.0  0.16188970764026317  0.8164584869344651  0.32296357269979836  1.0000
  C   C40       1.0  0.33810762727839716  0.18354087570639885  0.8229621906873277  1.0000
  C   C41       1.0  0.5726022322354964  0.6836231641057468  0.6015592471242142  1.0000
  C   C42       1.0  0.927400955261355  0.3163781917062424  0.10155899354149507  1.0000
  C   C43       1.0  0.07259952145751208  0.8163784123481295  0.3984412316315867  1.0000
  C   C44       1.0  0.4273937756256103  0.18362225887879188  0.8984410010996058  1.0000
  C   C45       1.0  0.3703481504814262  0.7394291519471636  0.5786746627154784  1.0000
  C   C46       1.0  0.12965492893080474  0.26057293589074965  0.07867429511290419  1.0000
  C   C47       1.0  0.8703449414254366  0.7605720872633912  0.4213253012283714  1.0000
  C   C48       1.0  0.6296484637416241  0.23942785193725064  0.9213256465827654  1.0000
  Br  Br1       1.0  0.8832408605969063  0.0688636901691453  0.35413310824792876  1.0000
  Br  Br2       1.0  0.6167566021638037  0.931137984300797  0.8541330728076771  1.0000
  Br  Br3       1.0  0.38323998624876765  0.4311367204575518  0.6458674462984817  1.0000
  Br  Br4       1.0  0.11675692672738341  0.5688624187502287  0.14586741379935114  1.0000
  Br  Br5       1.0  0.8713608455134504  0.23272454299993944  0.5920706655159973  1.0000
  Br  Br6       1.0  0.6286465370497323  0.7672768008422254  0.09206971676070448  1.0000
  Br  Br7       1.0  0.3713618414961033  0.26727585687709177  0.4079298869180477  1.0000
  Br  Br8       1.0  0.12864413121164378  0.7327236129667014  0.9079302042029906  1.0000
  N   N1        1.0  0.30179452047777733  0.054497961060000905  0.5391657485929854  1.0000
  N   N2        1.0  0.19820635596207134  0.9455034702505856  0.0391661427751302  1.0000
  N   N3        1.0  0.8017934149400004  0.4455035892244084  0.4608347914711074  1.0000
  N   N4        1.0  0.6982064108718903  0.5544963998258938  0.9608343583151109  1.0000
  N   N5        1.0  0.04940694056185179  0.8477790877383312  0.5998872449311676  1.0000
  N   N6        1.0  0.4506046247362789  0.15222242018599272  0.099886815820156  1.0000
  N   N7        1.0  0.5494025036705493  0.6522200410035953  0.40011322969851887  1.0000
  N   N8        1.0  0.9505950686199255  0.3477780513948261  0.9001120474320883  1.0000
  Cl  Cl1       1.0  0.9131370040914033  0.6133892188202594  0.7049887375183912  1.0000
  Cl  Cl2       1.0  0.5868685386582654  0.386609840764038  0.20498906800224145  1.0000
  Cl  Cl3       1.0  0.4131369188550522  0.8866120591134674  0.2950129373066943  1.0000
  Cl  Cl4       1.0  0.08685824063518768  0.11338787494265291  0.7950114338404503  1.0000
