data_image0
_chemical_formula_structural       La2H38C30N8O16
_chemical_formula_sum              "La2 H38 C30 N8 O16"
_cell_length_a       9.31584373031223
_cell_length_b       10.78507313703821
_cell_length_c       11.263943298843996
_cell_angle_alpha    75.0251628780025
_cell_angle_beta     66.49553552548879
_cell_angle_gamma    67.41401348058304

_space_group_name_H-M_alt    "P 1"
_space_group_IT_number       1

loop_
  _space_group_symop_operation_xyz
  'x, y, z'

loop_
  _atom_site_type_symbol
  _atom_site_label
  _atom_site_symmetry_multiplicity
  _atom_site_fract_x
  _atom_site_fract_y
  _atom_site_fract_z
  _atom_site_occupancy
  La  La1       1.0  0.6922082414769476  0.32669913964754477  0.3162692151032331  1.0000
  La  La2       1.0  0.3077942752313021  0.6732978862780569  0.6837312217795741  1.0000
  H   H1        1.0  0.7562339030811103  0.02711789550863841  0.5118382965782544  1.0000
  H   H2        1.0  0.2437654818453369  0.9728811445774354  0.4881626873531105  1.0000
  H   H3        1.0  0.603034348813516  0.942386161506633  0.7859668996020233  1.0000
  H   H4        1.0  0.39696189389614034  0.05761488968095561  0.21403374783586318  1.0000
  H   H5        1.0  0.7957529306185837  0.8554145358101551  0.6761798046260523  1.0000
  H   H6        1.0  0.2042437198510427  0.1445855063804657  0.3238218483305105  1.0000
  H   H7        1.0  0.6112870474512633  0.831391667049175  0.6882720150999121  1.0000
  H   H8        1.0  0.38871036382430196  0.16860938911409562  0.3117282368370411  1.0000
  H   H9        1.0  0.3590218372026044  0.012595781261502702  0.7251162171039454  1.0000
  H   H10       1.0  0.6409748028320408  0.9874042578701607  0.27488455231058845  1.0000
  H   H11       1.0  0.22202445453616096  0.30058047097844565  0.6246371315668  1.0000
  H   H12       1.0  0.7779741253053275  0.699420590160514  0.3753627248692267  1.0000
  H   H13       1.0  0.11189469749290744  0.1955707310091555  0.7465453695055472  1.0000
  H   H14       1.0  0.8881034745886041  0.8044313391267652  0.2534534814118032  1.0000
  H   H15       1.0  0.17518804816038624  0.17864376074698643  0.578319857411195  1.0000
  H   H16       1.0  0.8248116898120302  0.8213573023087049  0.4216787199818769  1.0000
  H   H17       1.0  0.9177267953312339  0.7317425002155318  0.9970685585007927  1.0000
  H   H18       1.0  0.08227293220620174  0.26825855978119506  0.002929135350242997  1.0000
  H   H19       1.0  0.6423699462172651  0.6448982382008593  0.06127818020090098  1.0000
  H   H20       1.0  0.35763018908013317  0.3551018127989068  0.9387205191688113  1.0000
  H   H21       1.0  0.6498375088993527  0.8139583798874598  0.00825982801454457  1.0000
  H   H22       1.0  0.3501630341580224  0.18604066211534592  0.9917398768738509  1.0000
  H   H23       1.0  0.5877579330586542  0.7536232231850306  0.17787059774471448  1.0000
  H   H24       1.0  0.4122422231087128  0.24637683393265772  0.8221298687090693  1.0000
  H   H25       1.0  0.1452144283381003  0.5796367397182325  0.058814737691513096  1.0000
  H   H26       1.0  0.8547868859602018  0.4203633193161807  0.941184449719316  1.0000
  H   H27       1.0  0.06324150834050361  0.4272383395892022  0.3204711990131486  1.0000
  H   H28       1.0  0.9367590217428089  0.5727637466160189  0.6795286279864072  1.0000
  H   H29       1.0  0.2614699542516732  0.4163600318037056  0.20099676662322705  1.0000
  H   H30       1.0  0.7385301914807131  0.5836400222550183  0.799002816288521  1.0000
  H   H31       1.0  0.14089318939905132  0.3257278910850161  0.19276609228607813  1.0000
  H   H32       1.0  0.859105808637388  0.6742721641159407  0.8072356532106678  1.0000
  H   H33       1.0  0.11593487889968664  0.870351473388112  0.4084429058392943  1.0000
  H   H34       1.0  0.8840660380736267  0.12964959770222614  0.5915561595948802  1.0000
  H   H35       1.0  0.1333574843208183  0.0022719777533808  0.008486443364901721  1.0000
  H   H36       1.0  0.8666473565451936  0.997728102326015  0.9915133246272133  1.0000
  H   H37       1.0  0.38668633563050053  0.5883688593323058  0.1257584929976332  1.0000
  H   H38       1.0  0.6133130492959467  0.4116301807537682  0.8742424909337315  1.0000
  C   C1        1.0  0.262824260646461  0.7196299780049529  0.27624880984342337  1.0000
  C   C2        1.0  0.7371828964814143  0.2803701059078918  0.7237484000627604  1.0000
  C   C3        1.0  0.15954114338005343  0.8490190821617251  0.30828800765180375  1.0000
  C   C4        1.0  0.8404602047622873  0.15097793878818783  0.6917128247319297  1.0000
  C   C5        1.0  0.11349156914542406  0.9509538930174627  0.21200839966751767  1.0000
  C   C6        1.0  0.8865043126223643  0.04904208488017051  0.7879927651134366  1.0000
  C   C7        1.0  0.169637044631827  0.9230501511848106  0.08333936184273931  1.0000
  C   C8        1.0  0.830362350729601  0.07694889196022811  0.9166625056306544  1.0000
  C   C9        1.0  0.2630320605176593  0.7912220646651279  0.05305130281947607  1.0000
  C   C10       1.0  0.7369684721047349  0.20877697427871314  0.9469475185268909  1.0000
  C   C11       1.0  0.3099755747274457  0.6903097654842227  0.14963362854118864  1.0000
  C   C12       1.0  0.6900264899418147  0.3096913044638754  0.8503632743079877  1.0000
  C   C13       1.0  0.3268948936738526  0.6135965269365258  0.37562158430878867  1.0000
  C   C14       1.0  0.6731111157580828  0.38640355811855903  0.6243777881824002  1.0000
  C   C15       1.0  0.9964993757299823  0.08646228195564733  0.249296535440088  1.0000
  C   C16       1.0  0.00350000919646478  0.9135367581304338  0.7507044484912769  1.0000
  C   C17       1.0  0.3038148828494016  0.7532576856189196  0.9219599118151152  1.0000
  C   C18       1.0  0.6961837074270676  0.246743378579005  0.07804082816294769  1.0000
  C   C19       1.0  0.509552371868317  0.10899398983016792  0.5737110754002046  1.0000
  C   C20       1.0  0.4904470000840674  0.8910080944583216  0.4262900306423207  1.0000
  C   C21       1.0  0.6645868957417561  0.905731324418284  0.6895954086337711  1.0000
  C   C22       1.0  0.33541052596880416  0.09426973480395161  0.3104057268452181  1.0000
  C   C23       1.0  0.20999332711391364  0.19897566359721006  0.6521949228356334  1.0000
  C   C24       1.0  0.7900052527275678  0.8010253975417498  0.3478049336003933  1.0000
  C   C25       1.0  0.9052747112197255  0.5730800577825264  0.14735217653075225  1.0000
  C   C26       1.0  0.0947250267526911  0.42692100527316507  0.8526464008623195  1.0000
  C   C27       1.0  0.671752397328653  0.7254438867118794  0.08083079310446815  1.0000
  C   C28       1.0  0.3282465902728049  0.2745561654301199  0.9191700688502493  1.0000
  C   C29       1.0  0.1361068189714132  0.4200981173511948  0.2166512429092506  1.0000
  C   C30       1.0  0.8638929398709722  0.5799029518224118  0.783349101567886  1.0000
  N   N1        1.0  0.6514648295319604  0.0162751111969683  0.5855492255522776  1.0000
  N   N2        1.0  0.34853258174361207  0.9837259449663095  0.4144510263846755  1.0000
  N   N3        1.0  0.3639537974760075  0.10043499115365512  0.6636962660928418  1.0000
  N   N4        1.0  0.636045169255482  0.8995650548704219  0.33630282877780343  1.0000
  N   N5        1.0  0.8426370377195839  0.6839552773726041  0.07227318511002782  1.0000
  N   N6        1.0  0.15736309757781436  0.31604477362715505  0.9277255142596914  1.0000
  N   N7        1.0  0.06562734507259901  0.5369368642767328  0.13572019905275567  1.0000
  N   N8        1.0  0.9343727902247992  0.4630631867230263  0.8642785003169563  1.0000
  O   O1        1.0  0.42937798362270746  0.5011326819476594  0.3378065223940823  1.0000
  O   O2        1.0  0.5706264390483469  0.49886840406973937  0.6621913565373134  1.0000
  O   O3        1.0  0.27807261151887264  0.6429219766296513  0.4903144249739811  1.0000
  O   O4        1.0  0.7219310946252692  0.3570750603895619  0.509687383491972  1.0000
  O   O5        1.0  0.9051318228969476  0.09639046627865612  0.36876493040819014  1.0000
  O   O6        1.0  0.09486640643765305  0.9036055246293131  0.6312363269129406  1.0000
  O   O7        1.0  0.9852120497673557  0.18959501360072306  0.16268210946117295  1.0000
  O   O8        1.0  0.014790495706769484  0.8104050687631386  0.8373219837009317  1.0000
  O   O9        1.0  0.31365767913626297  0.631850702706629  0.9186319350263615  1.0000
  O   O10       1.0  0.6863451488780186  0.36814833395273894  0.08136256115000857  1.0000
  O   O11       1.0  0.3218237461647249  0.8385073696450719  0.8196610387920701  1.0000
  O   O12       1.0  0.6781759839117856  0.1614906430902678  0.18033564940576952  1.0000
  O   O13       1.0  0.5134063131903447  0.20510134517261494  0.47967537093399676  1.0000
  O   O14       1.0  0.4865918901961235  0.7949007341401925  0.5203261306094548  1.0000
  O   O15       1.0  0.8131086016036876  0.5061374591526617  0.23101362556123922  1.0000
  O   O16       1.0  0.1868911572386978  0.4938636100209451  0.7689867189158903  1.0000
