data_image0
_chemical_formula_structural       Al2H48C54N6O12
_chemical_formula_sum              "Al2 H48 C54 N6 O12"
_cell_length_a       3.960030773657688
_cell_length_b       27.93433910126626
_cell_length_c       27.93450694212727
_cell_angle_alpha    119.99960079045788
_cell_angle_beta     90.00064109728328
_cell_angle_gamma    90.00140168190248

_space_group_name_H-M_alt    "P 1"
_space_group_IT_number       1

loop_
  _space_group_symop_operation_xyz
  'x, y, z'

loop_
  _atom_site_type_symbol
  _atom_site_label
  _atom_site_symmetry_multiplicity
  _atom_site_fract_x
  _atom_site_fract_y
  _atom_site_fract_z
  _atom_site_occupancy
  Al  Al1       1.0  0.9977925470590207  0.5000022927945978  0.500000899871516  1.0000
  Al  Al2       1.0  0.0269588386136519  0.16666610100243417  0.833336774338143  1.0000
  H   H1        1.0  0.4460669260255727  0.17774616757053957  0.6878865813805604  1.0000
  H   H2        1.0  0.44853707731008546  0.23431615008485818  0.6406175323732839  1.0000
  H   H3        1.0  0.44758275411482634  0.28452022791586984  0.5370196430172527  1.0000
  H   H4        1.0  0.5475454181659742  0.4327406711615324  0.6938658634863089  1.0000
  H   H5        1.0  0.44596943225145946  0.010136516869998509  0.8222503297662983  1.0000
  H   H6        1.0  0.44852166162630885  0.906293861420629  0.7656814295555064  1.0000
  H   H7        1.0  0.4475771313914975  0.7524975503618594  0.7154827221892717  1.0000
  H   H8        1.0  0.5475207109618124  0.7611239793826529  0.5672616417835243  1.0000
  H   H9        1.0  0.44600210478424174  0.3121138649597413  0.9898621834319385  1.0000
  H   H10       1.0  0.44850342333300125  0.3593833279107272  0.09370322730485006  1.0000
  H   H11       1.0  0.4474932090827366  0.4629828529524219  0.24749967714887325  1.0000
  H   H12       1.0  0.5474583725242043  0.30613482116481094  0.23887649500521488  1.0000
  H   H13       1.0  0.768296823244512  0.3539112170973197  0.8800341576955332  1.0000
  H   H14       1.0  0.459396272126753  0.30801187608250313  0.8798690609802335  1.0000
  H   H15       1.0  0.3360718626322878  0.37021746706836467  0.8818853756869557  1.0000
  H   H16       1.0  0.2804708927680366  0.41663444256951004  0.8348565366483314  1.0000
  H   H17       1.0  0.5254368290483598  0.419074677530425  0.7827618693228972  1.0000
  H   H18       1.0  0.7242679419324745  0.41506974006954783  0.8380737352847872  1.0000
  H   H19       1.0  0.704856134034351  0.3248883854211969  0.4525569531597498  1.0000
  H   H20       1.0  0.3038114483824828  0.3542851535101832  0.4568355526740149  1.0000
  H   H21       1.0  0.3370353644662316  0.28981135051409274  0.45512095829297994  1.0000
  H   H22       1.0  0.2996249731992506  0.5261247239925597  0.6655053302014622  1.0000
  H   H23       1.0  0.7043403123549438  0.5245653225527676  0.6383305149957436  1.0000
  H   H24       1.0  0.6618248347215001  0.5184882022190322  0.6986165131841628  1.0000
  H   H25       1.0  0.7683350512230689  0.026121630616430132  0.6460916814197831  1.0000
  H   H26       1.0  0.45941392032407447  0.07184892364341523  0.6919818507661617  1.0000
  H   H27       1.0  0.33612944496893965  0.011655314309869859  0.6297717713139049  1.0000
  H   H28       1.0  0.2807213025039985  0.9182116941877252  0.5833551247860526  1.0000
  H   H29       1.0  0.5256640987226219  0.8636814934021898  0.5809246148141084  1.0000
  H   H30       1.0  0.7244935822779724  0.9230039587756309  0.584938580494338  1.0000
  H   H31       1.0  0.7048784295208391  0.6276639796452841  0.6751111612213804  1.0000
  H   H32       1.0  0.3038226591436839  0.6025428162433641  0.6457108237324504  1.0000
  H   H33       1.0  0.3370500645872667  0.6653016473108837  0.710189378228378  1.0000
  H   H34       1.0  0.2996372281489528  0.6393776254474447  0.47387044080045365  1.0000
  H   H35       1.0  0.7043465849526385  0.6137648463963572  0.47544179192733776  1.0000
  H   H36       1.0  0.6618503496803854  0.6801297277672944  0.4815177092551436  1.0000
  H   H37       1.0  0.7683536208431221  0.11996975159955546  0.9738828280649088  1.0000
  H   H38       1.0  0.45944260448543167  0.12013312166714463  0.9281517298464408  1.0000
  H   H39       1.0  0.33613264614030663  0.11811553127303391  0.9883413596638917  1.0000
  H   H40       1.0  0.2806163054993718  0.1651446570575246  0.08178623366429598  1.0000
  H   H41       1.0  0.5255882273083969  0.21724628017584996  0.13632136384143934  1.0000
  H   H42       1.0  0.724412895187136  0.1619327865466573  0.077001669785318  1.0000
  H   H43       1.0  0.7048418249178638  0.5474435872935289  0.3723324816866764  1.0000
  H   H44       1.0  0.303792539394351  0.5431661072193137  0.39745145096446055  1.0000
  H   H45       1.0  0.33701973657954204  0.5448833440534955  0.3346921729380411  1.0000
  H   H46       1.0  0.2995988864879351  0.33449067328006526  0.3606201833368061  1.0000
  H   H47       1.0  0.7043036458229041  0.3616733518664361  0.3862350318495657  1.0000
  H   H48       1.0  0.6617835217310316  0.3013882585114942  0.3198733844101723  1.0000
  C   C1        1.0  0.4984312089501799  0.46245686809115233  0.4143878252613717  1.0000
  C   C2        1.0  0.49845791673146783  0.45193320341923043  0.5375480951712248  1.0000
  C   C3        1.0  0.4984496511373989  0.5856105247414406  0.5480676439253144  1.0000
  C   C4        1.0  0.5205508890617665  0.21299849559157025  0.7945142058898895  1.0000
  C   C5        1.0  0.5205342100258719  0.08150801301709269  0.7869999422359513  1.0000
  C   C6        1.0  0.5205526365044478  0.20548808506751481  0.9184894632494148  1.0000
  C   C7        1.0  0.4964243974052637  0.24902692157304074  0.7694208549907913  1.0000
  C   C8        1.0  0.4644276590001795  0.22271749356455925  0.7115708560334895  1.0000
  C   C9        1.0  0.4648333123012661  0.25352631299672623  0.6853960625576718  1.0000
  C   C10       1.0  0.4858267719064814  0.311510077579065  0.7169596031416033  1.0000
  C   C11       1.0  0.5012227279365645  0.33871171396908295  0.7753599677162554  1.0000
  C   C12       1.0  0.5091654297273819  0.30698630083761463  0.8018900781767968  1.0000
  C   C13       1.0  0.471132820999422  0.3294453969780093  0.5603076407427139  1.0000
  C   C14       1.0  0.4945159556583505  0.3554676696814525  0.6179163740756977  1.0000
  C   C15       1.0  0.5242062798444705  0.41318123139109286  0.6491208347253803  1.0000
  C   C16       1.0  0.5233039711602172  0.44495965196351506  0.6235787499878568  1.0000
  C   C17       1.0  0.499655576565786  0.4179744076861455  0.5652769739424812  1.0000
  C   C18       1.0  0.47580858062689657  0.35996867473707556  0.5331776589615984  1.0000
  C   C19       1.0  0.4963711357621676  0.02039017328954857  0.7509684246008915  1.0000
  C   C20       1.0  0.46437254656973437  0.988847945198984  0.7772763559815061  1.0000
  C   C21       1.0  0.4648386321638966  0.9318626699945157  0.7464678174957057  1.0000
  C   C22       1.0  0.48590964845010376  0.9054425229991525  0.6884868117709643  1.0000
  C   C23       1.0  0.5013101272689084  0.9366391972011598  0.6612820332616636  1.0000
  C   C24       1.0  0.5092431126549853  0.9948987757022395  0.6930114408426176  1.0000
  C   C25       1.0  0.47110107865946566  0.7308575441661277  0.6705531933667146  1.0000
  C   C26       1.0  0.49451167687615083  0.7624441401043281  0.6445336368417569  1.0000
  C   C27       1.0  0.5241785893172235  0.735939098349192  0.5868215684189053  1.0000
  C   C28       1.0  0.5232734061003866  0.6786193060000656  0.5550423521704246  1.0000
  C   C29       1.0  0.4996482242343419  0.6472986878695722  0.5820252258491224  1.0000
  C   C30       1.0  0.47581708509579096  0.673205019854592  0.6400310299558354  1.0000
  C   C31       1.0  0.4964235732784203  0.23057926398606562  0.9796107690066407  1.0000
  C   C32       1.0  0.4643928997336815  0.28842980019648934  0.01115188632861925  1.0000
  C   C33       1.0  0.4648065041605989  0.31460446972128153  0.06813343123781827  1.0000
  C   C34       1.0  0.4858905279543322  0.2830436184506624  0.09455775639947457  1.0000
  C   C35       1.0  0.5013083804074157  0.22464622535129314  0.06335933837534918  1.0000
  C   C36       1.0  0.5092153368815246  0.19811220860329834  0.005104087541035081  1.0000
  C   C37       1.0  0.47104743361685303  0.4396936760353115  0.2691412832013427  1.0000
  C   C38       1.0  0.4944147720677563  0.38208787055557286  0.23755512521651664  1.0000
  C   C39       1.0  0.5241098740820289  0.35088366699706347  0.2640624461340551  1.0000
  C   C40       1.0  0.5232406185789671  0.3764197979132292  0.3213818148608922  1.0000
  C   C41       1.0  0.49958797838492336  0.43472412281764866  0.3527004646236164  1.0000
  C   C42       1.0  0.4757439422320857  0.4668254684704466  0.32679596536510047  1.0000
  C   C43       1.0  0.5178470871361327  0.3358732664779537  0.8640814312391498  1.0000
  C   C44       1.0  0.5094515773422827  0.4007362180364781  0.8092905403315811  1.0000
  C   C45       1.0  0.45262196162968843  0.3307256230915741  0.4711597461293238  1.0000
  C   C46       1.0  0.5503584498479199  0.5068358650381699  0.6582848825017606  1.0000
  C   C47       1.0  0.5178883969534951  0.028198914851429804  0.6641207227000692  1.0000
  C   C48       1.0  0.5096637663498953  0.9085476428878678  0.5992619022274113  1.0000
  C   C49       1.0  0.4526363081457063  0.6404262485315256  0.6692710461013006  1.0000
  C   C50       1.0  0.5503567827725462  0.6514489307004326  0.4931679190923504  1.0000
  C   C51       1.0  0.5179023136057098  0.13592229370652117  0.9718001037669737  1.0000
  C   C52       1.0  0.5095918605512111  0.1907141986407481  0.09145311101356406  1.0000
  C   C53       1.0  0.45259167586834076  0.5288436249089727  0.35956858601313246  1.0000
  C   C54       1.0  0.5503117285942452  0.3417179773283864  0.3485536679317036  1.0000
  N   N1        1.0  0.49005347022126233  0.34554138846471716  0.6930515947980922  1.0000
  N   N2        1.0  0.487607311361849  0.320256988684406  0.640639645030788  1.0000
  N   N3        1.0  0.49014569671190594  0.8475036410133896  0.6544557285380248  1.0000
  N   N4        1.0  0.4875837767582922  0.8203791968339971  0.6797426960890434  1.0000
  N   N5        1.0  0.4900867735647338  0.3069478929265301  0.15249519681180598  1.0000
  N   N6        1.0  0.48753935574815443  0.3593601182502226  0.179618191456889  1.0000
  O   O1        1.0  0.7332842442083631  0.5590738534985675  0.5561507544181622  1.0000
  O   O2        1.0  0.7332617033136302  0.49707669827488843  0.4409278112036432  1.0000
  O   O3        1.0  0.7332595771389735  0.4438507246758619  0.502923580417395  1.0000
  O   O4        1.0  0.2624026533380501  0.5627730189086081  0.5125455647960564  1.0000
  O   O5        1.0  0.2624052342390327  0.4874517801123235  0.550231781575576  1.0000
  O   O6        1.0  0.2623949774230994  0.4497701908049905  0.4372239524979022  1.0000
  O   O7        1.0  0.766718654549507  0.17285048177470935  0.893950406987585  1.0000
  O   O8        1.0  0.7667327866940425  0.2210916838926664  0.8271501117157598  1.0000
  O   O9        1.0  0.7667133836487564  0.10605283213347859  0.7789042702909157  1.0000
  O   O10       1.0  0.2965646838361521  0.21898294549945532  0.8943710258125536  1.0000
  O   O11       1.0  0.29650921899469307  0.10562676793797018  0.8246170507479178  1.0000
  O   O12       1.0  0.29654127695953736  0.17538105553850167  0.7810166816738188  1.0000
