data_image0
_chemical_formula_structural       Ba4H32C24N8O28
_chemical_formula_sum              "Ba4 H32 C24 N8 O28"
_cell_length_a       7.427907217358457
_cell_length_b       9.536057776169645
_cell_length_c       13.743141389492868
_cell_angle_alpha    89.99987166129453
_cell_angle_beta     96.29221581481843
_cell_angle_gamma    89.9993522906419

_space_group_name_H-M_alt    "P 1"
_space_group_IT_number       1

loop_
  _space_group_symop_operation_xyz
  'x, y, z'

loop_
  _atom_site_type_symbol
  _atom_site_label
  _atom_site_symmetry_multiplicity
  _atom_site_fract_x
  _atom_site_fract_y
  _atom_site_fract_z
  _atom_site_occupancy
  Ba  Ba1       1.0  0.8288230369022997  0.4106618664016964  0.6831878486611416  1.0000
  Ba  Ba2       1.0  0.6711727581295078  0.9106579996958858  0.3168116310880649  1.0000
  Ba  Ba3       1.0  0.17117599728872082  0.5893387276621241  0.3168130511801337  1.0000
  Ba  Ba4       1.0  0.3288262687074166  0.08934259436910003  0.683188540692626  1.0000
  H   H1        1.0  0.09699425100492928  0.4271233241089192  0.8931356107916384  1.0000
  H   H2        1.0  0.4030042566815979  0.9271233260175933  0.10686448319514599  1.0000
  H   H3        1.0  0.9030047684779063  0.572877269957239  0.10686383292846809  1.0000
  H   H4        1.0  0.5969934230958599  0.07287726805227382  0.8931363403664461  1.0000
  H   H5        1.0  0.0414830335622725  0.2730473731856762  0.8584782812778399  1.0000
  H   H6        1.0  0.4585137249552531  0.7730446842428479  0.141520513693898  1.0000
  H   H7        1.0  0.958514631499078  0.7269542695378846  0.1415210861612834  1.0000
  H   H8        1.0  0.5414839474760386  0.22695486117682154  0.8584795818084315  1.0000
  H   H9        1.0  0.0071333073126851  0.20334632259262267  0.4999766729535792  1.0000
  H   H10       1.0  0.4928632164360138  0.7033474602748486  0.500028772871687  1.0000
  H   H11       1.0  0.9928630180908369  0.7966490282264688  0.5000240743349025  1.0000
  H   H12       1.0  0.5071371795702078  0.2966468418735743  0.4999729313177284  1.0000
  H   H13       1.0  0.11853608228859971  0.33281540918943614  0.544630406562618  1.0000
  H   H14       1.0  0.3814638728787613  0.8328134659249358  0.45537210783837156  1.0000
  H   H15       1.0  0.8814588886855148  0.667182038938421  0.4553702644435518  1.0000
  H   H16       1.0  0.6185378922571303  0.16717978756375376  0.5446311287532026  1.0000
  H   H17       1.0  0.8705911466770857  0.4291403498441043  0.4387741886214868  1.0000
  H   H18       1.0  0.6294030440700524  0.929136087648466  0.5612280808044828  1.0000
  H   H19       1.0  0.12940652575420586  0.5708591955755582  0.5612259068808427  1.0000
  H   H20       1.0  0.3705986989560159  0.07086345775190492  0.4387729715974729  1.0000
  H   H21       1.0  0.676408056881705  0.48424153594536545  0.4391891629291891  1.0000
  H   H22       1.0  0.8235866039860438  0.9842366248108619  0.5608079483313374  1.0000
  H   H23       1.0  0.3235869067383133  0.515755912183657  0.5608107800164034  1.0000
  H   H24       1.0  0.17641649346150254  0.0157618719320993  0.43919318035160865  1.0000
  H   H25       1.0  0.6737950675545221  0.8055311723338505  0.0062580285801062  1.0000
  H   H26       1.0  0.8262090591319832  0.3055246572600722  0.9937391836682891  1.0000
  H   H27       1.0  0.3262080151531492  0.19447151901690768  0.9937416439764276  1.0000
  H   H28       1.0  0.1737899603587749  0.6944748881547157  0.006260260053139197  1.0000
  H   H29       1.0  0.745450016003808  0.5722799990766915  0.9275335488384968  1.0000
  H   H30       1.0  0.7545603523036775  0.0722738330693744  0.0724651282956259  1.0000
  H   H31       1.0  0.2545544358176813  0.4277237409170453  0.072467656117567  1.0000
  H   H32       1.0  0.2454468083766272  0.9277257123068239  0.9275362292250547  1.0000
  C   C1        1.0  0.890043899112932  0.7904053893938682  0.7688020129741486  1.0000
  C   C2        1.0  0.6099645046745222  0.2904052375245172  0.2311940098724321  1.0000
  C   C3        1.0  0.10995919096468039  0.2095952046529916  0.2311983876455912  1.0000
  C   C4        1.0  0.39003993246254953  0.7095953565174613  0.7688057389664136  1.0000
  C   C5        1.0  0.849961310783044  0.9185664237120083  0.8121970173402956  1.0000
  C   C6        1.0  0.6500370000361996  0.4185660563129616  0.18779531455810877  1.0000
  C   C7        1.0  0.1500390483972467  0.08143521900179708  0.18780104653701804  1.0000
  C   C8        1.0  0.3499647209196652  0.5814345377422683  0.8122035536607867  1.0000
  C   C9        1.0  0.7378758175731406  0.799977880751385  0.9383685700841794  1.0000
  C   C10       1.0  0.7621297327270256  0.29997482818972543  0.0616272762287267  1.0000
  C   C11       1.0  0.2621272577804348  0.20002481060053873  0.0616303744117701  1.0000
  C   C12       1.0  0.23787063382320642  0.700024717220181  0.9383715157118003  1.0000
  C   C13       1.0  0.7762650899792405  0.6724533854126521  0.8948490928953134  1.0000
  C   C14       1.0  0.7237451186838229  0.17244738724981803  0.1051494095959526  1.0000
  C   C15       1.0  0.22373665301512347  0.32755035459317844  0.1051519595013843  1.0000
  C   C16       1.0  0.2762566243501681  0.8275511094991829  0.8948516428073106  1.0000
  C   C17       1.0  0.9780972056009459  0.7793334899446123  0.6744672258852376  1.0000
  C   C18       1.0  0.52190594787335  0.279333814781623  0.3255285195757978  1.0000
  C   C19       1.0  0.0219031756416186  0.22066815276569682  0.3255330221738291  1.0000
  C   C20       1.0  0.4780917024956679  0.7206657306415424  0.674469391744786  1.0000
  C   C21       1.0  0.8895014205042601  0.06198488203623499  0.7732492715336718  1.0000
  C   C22       1.0  0.6104819562957572  0.561979729346149  0.22674208130892737  1.0000
  C   C23       1.0  0.1104962371950791  0.9380178093398613  0.22674936784355276  1.0000
  C   C24       1.0  0.3895129999701794  0.43801771878403883  0.7732571335760807  1.0000
  N   N1        1.0  0.8476316595086005  0.6683708059604712  0.809728819530207  1.0000
  N   N2        1.0  0.6523799652550363  0.16836726447338887  0.19026976946404514  1.0000
  N   N3        1.0  0.15237007613959713  0.3316318853951615  0.19027150480722807  1.0000
  N   N4        1.0  0.3476258410196351  0.8316312322574859  0.8097315117782669  1.0000
  N   N5        1.0  0.7700228703795987  0.9222998423535743  0.8956491928667774  1.0000
  N   N6        1.0  0.7299794546174212  0.42229798671716895  0.10434408658134937  1.0000
  N   N7        1.0  0.22998019761988084  0.0777028489995146  0.104349023568588  1.0000
  N   N8        1.0  0.2700209045707922  0.577702607345266  0.8956539772972789  1.0000
  O   O1        1.0  0.9923238948141204  0.3630006887525639  0.8801223723124778  1.0000
  O   O2        1.0  0.5076753293976068  0.8629988655873935  0.11987737937907639  1.0000
  O   O3        1.0  0.007675132022811199  0.6369999053124218  0.11987779946822028  1.0000
  O   O4        1.0  0.4923237048013434  0.13700067982506425  0.8801235204635132  1.0000
  O   O5        1.0  0.0546789134285248  0.2461362356169587  0.5628845782958649  1.0000
  O   O6        1.0  0.44531559449917063  0.7461316932212088  0.4371192279520741  1.0000
  O   O7        1.0  0.9453160501835712  0.7538622611634338  0.43711536464841316  1.0000
  O   O8        1.0  0.5546820926799256  0.2538626089393007  0.5628823236779822  1.0000
  O   O9        1.0  0.7977766073319117  0.4940888333058951  0.47560410576423334  1.0000
  O   O10       1.0  0.7022152326505449  0.9940830000850411  0.5243964685746931  1.0000
  O   O11       1.0  0.20221972539400915  0.5059107121174833  0.5243973695795745  1.0000
  O   O12       1.0  0.29778651772961245  0.0059165453141645005  0.4756053118878398  1.0000
  O   O13       1.0  0.0071488191042874015  0.6563047616529759  0.645109157865747  1.0000
  O   O14       1.0  0.49284968180241867  0.15630716673856435  0.3548877453441079  1.0000
  O   O15       1.0  0.9928502077326372  0.343695832412017  0.3548910139149513  1.0000
  O   O16       1.0  0.5071506994480686  0.843693427320382  0.6451125027162661  1.0000
  O   O17       1.0  0.0175913096338292  0.8913546984874544  0.6307257529688497  1.0000
  O   O18       1.0  0.4824103813102454  0.3913550528425702  0.3692680306277508  1.0000
  O   O19       1.0  0.9824117804358538  0.10864694421076848  0.3692746476495757  1.0000
  O   O20       1.0  0.5175926866971636  0.6086465898591485  0.630730185808936  1.0000
  O   O21       1.0  0.04932437721250688  0.10812183973528991  0.7970810073411627  1.0000
  O   O22       1.0  0.45066938287858704  0.6081158823215491  0.2029106150288129  1.0000
  O   O23       1.0  0.9506732657707174  0.8918819002945004  0.20291617591358596  1.0000
  O   O24       1.0  0.5493282748524493  0.3918826144490808  0.7970880243536627  1.0000
  O   O25       1.0  0.7594164925084641  0.12778000582873972  0.7277513167636227  1.0000
  O   O26       1.0  0.7405713662814717  0.6277809139236298  0.2722460008658629  1.0000
  O   O27       1.0  0.2405784637257682  0.8722216369069077  0.2722478981161273  1.0000
  O   O28       1.0  0.2594208737636237  0.3722217774766392  0.7277523333926296  1.0000
