data_image0
_chemical_formula_structural       Cu4H40C30N4O14
_chemical_formula_sum              "Cu4 H40 C30 N4 O14"
_cell_length_a       7.020776103921947
_cell_length_b       9.333895563591451
_cell_length_c       15.36669205921545
_cell_angle_alpha    104.53386706565279
_cell_angle_beta     89.99667316587582
_cell_angle_gamma    112.09989222759795

_space_group_name_H-M_alt    "P 1"
_space_group_IT_number       1

loop_
  _space_group_symop_operation_xyz
  'x, y, z'

loop_
  _atom_site_type_symbol
  _atom_site_label
  _atom_site_symmetry_multiplicity
  _atom_site_fract_x
  _atom_site_fract_y
  _atom_site_fract_z
  _atom_site_occupancy
  Cu  Cu1       1.0  0.3926790542494699  0.9019128168380276  0.9031305422466648  1.0000
  Cu  Cu2       1.0  0.4906557630519898  0.0981959261856318  0.5968437392975833  1.0000
  Cu  Cu3       1.0  0.6073177049452737  0.0982864891067052  0.09698692403438264  1.0000
  Cu  Cu4       1.0  0.5091104759317489  0.9016734208240821  0.4031220497805706  1.0000
  H   H1        1.0  0.3921154650594899  0.714226665382476  0.7207724924892962  1.0000
  H   H2        1.0  0.678474347797568  0.2857924612335481  0.7791132893699244  1.0000
  H   H3        1.0  0.6080139192137963  0.2860242291105806  0.2793442531065723  1.0000
  H   H4        1.0  0.3213940889846469  0.7139565475297476  0.22080645907666974  1.0000
  H   H5        1.0  0.2652437680674352  0.41871510942276285  0.6370271432147308  1.0000
  H   H6        1.0  0.8472373481315569  0.5812981750187517  0.8629125921650388  1.0000
  H   H7        1.0  0.734905568626978  0.581504476675356  0.3630751429049185  1.0000
  H   H8        1.0  0.15281940704826263  0.418525500103101  0.13704113443490235  1.0000
  H   H9        1.0  0.14443490315746027  0.21687099949035374  0.7266012133304546  1.0000
  H   H10       1.0  0.9276149722357659  0.7832138698260562  0.7733939831800998  1.0000
  H   H11       1.0  0.8557836081071174  0.7833843724302697  0.27347520490832994  1.0000
  H   H12       1.0  0.07249736162356162  0.21654150994227453  0.2265703196184036  1.0000
  H   H13       1.0  0.13380619137999616  0.3149984175409344  0.8935728457482031  1.0000
  H   H14       1.0  0.8185749819898614  0.6851841063259553  0.6064884975718743  1.0000
  H   H15       1.0  0.8661863288258757  0.6853205733528042  0.10650921645457605  1.0000
  H   H16       1.0  0.18127439972742113  0.31455813679991  0.3934849001305808  1.0000
  H   H17       1.0  0.17136467618377071  0.5268587082629209  0.02177602524552211  1.0000
  H   H18       1.0  0.6443045762756938  0.4731663766825775  0.4781861208813043  1.0000
  H   H19       1.0  0.8287057747464246  0.4732971223265494  0.9783056323706136  1.0000
  H   H20       1.0  0.3555818226094373  0.5267353289969137  0.5217747607117148  1.0000
  H   H21       1.0  0.12799100334264327  0.691131251938849  0.9998902390330077  1.0000
  H   H22       1.0  0.4366908465382053  0.30887748480258637  0.5000961522717164  1.0000
  H   H23       1.0  0.8716444578672337  0.30882407715574794  0.0001756554753952992  1.0000
  H   H24       1.0  0.5630567814590676  0.6911226887157511  0.4998769028264649  1.0000
  H   H25       1.0  0.42270487511893856  0.7779592003523845  0.11452847710614834  1.0000
  H   H26       1.0  0.6445472254221515  0.2220621433426544  0.3854737970852826  1.0000
  H   H27       1.0  0.5766662314083961  0.2224643767384435  0.8855836021129665  1.0000
  H   H28       1.0  0.3547397976531314  0.7776606735848117  0.6144745662633541  1.0000
  H   H29       1.0  0.5501043357404853  0.6789419294339254  0.036523982658209816  1.0000
  H   H30       1.0  0.8710401932283816  0.3212074334615451  0.463445898931788  1.0000
  H   H31       1.0  0.4497491218702265  0.3215319516270582  0.9638715631208331  1.0000
  H   H32       1.0  0.1285147365620245  0.6784814382876402  0.5363086462159077  1.0000
  H   H33       1.0  0.985282514168773  0.9230758033336953  0.0380375856418596  1.0000
  H   H34       1.0  0.0618391733640138  0.07738375238055539  0.46138771938972695  1.0000
  H   H35       1.0  0.017716319840474185  0.07893646273166148  0.9591162773484856  1.0000
  H   H36       1.0  0.9386251188386936  0.9215177125688638  0.5402419573336206  1.0000
  H   H37       1.0  0.766408706468006  0.8504827016107157  0.9901982430999117  1.0000
  H   H38       1.0  0.915151895458905  0.1491345888845999  0.5097301517333721  1.0000
  H   H39       1.0  0.23399154604734917  0.1476780974719247  0.0095957728694316  1.0000
  H   H40       1.0  0.08600018082076125  0.8519536837542674  0.49037752117395444  1.0000
  C   C1        1.0  0.3257555419889399  0.6195142094419451  0.7544495933996489  1.0000
  C   C2        1.0  0.7066785449361247  0.38049842523293614  0.7454655911239529  1.0000
  C   C3        1.0  0.6743516294219986  0.38071505234011477  0.2456626049675493  1.0000
  C   C4        1.0  0.29324634416066425  0.619272328558999  0.2544723870604814  1.0000
  C   C5        1.0  0.2600787572201283  0.45741388588989906  0.7096003732958781  1.0000
  C   C6        1.0  0.8030335337313943  0.5426115161628857  0.790366480748155  1.0000
  C   C7        1.0  0.740098732094218  0.54283920800097  0.29049132194816724  1.0000
  C   C8        1.0  0.1969468057639503  0.4571533451705037  0.20958427869198465  1.0000
  C   C9        1.0  0.1893890477551778  0.34457001508519625  0.7591687935504299  1.0000
  C   C10       1.0  0.8448265887177084  0.6554904452570796  0.7408635257091735  1.0000
  C   C11       1.0  0.8107690299336595  0.6556698965527231  0.24092482852670125  1.0000
  C   C12       1.0  0.15523661366382405  0.34427207058716647  0.2590933884786538  1.0000
  C   C13       1.0  0.18452980658952362  0.39884721554062  0.8519462765984973  1.0000
  C   C14       1.0  0.7854740146413235  0.601325241510601  0.6480951308455334  1.0000
  C   C15       1.0  0.8155552859310903  0.6014176378730269  0.14811659828760787  1.0000
  C   C16       1.0  0.21444753365826583  0.3984445321149933  0.3518700324097353  1.0000
  C   C17       1.0  0.24468660165061343  0.5630276483912836  0.8927983161354907  1.0000
  C   C18       1.0  0.6815054108511375  0.4371097982006019  0.6071934423674324  1.0000
  C   C19       1.0  0.7553542229688831  0.437194260834886  0.10729520912048685  1.0000
  C   C20       1.0  0.3183438522514378  0.5626777734096605  0.39274771094596883  1.0000
  C   C21       1.0  0.23383017348118065  0.6274037815399396  0.9913712762666126  1.0000
  C   C22       1.0  0.606266468137143  0.37267775051395097  0.5086241517900734  1.0000
  C   C23       1.0  0.7660441591610196  0.3727700198163645  0.008708524756123388  1.0000
  C   C24       1.0  0.3934898270116705  0.6271831035484468  0.49132995081835434  1.0000
  C   C25       1.0  0.4432189290583891  0.7416365014422439  0.04268123055251751  1.0000
  C   C26       1.0  0.7014644041411485  0.258489466559645  0.45731241866926825  1.0000
  C   C27       1.0  0.5565086178757709  0.2587023477533067  0.9574845092117887  1.0000
  C   C28       1.0  0.2981265233699588  0.7412714082176635  0.5425928443574437  1.0000
  C   C29       1.0  0.3844379077601656  0.9999869085962911  0.7498386684941425  1.0000
  C   C30       1.0  0.6150642837321529  3.801314699100045e-05  0.25022920989570013  1.0000
  N   N1        1.0  0.31522914639474203  0.6711028847093203  0.8437039682035351  1.0000
  N   N2        1.0  0.644159368349527  0.3290047100215999  0.6562458332890346  1.0000
  N   N3        1.0  0.6848557787191965  0.3291274612653369  0.15639407628591337  1.0000
  N   N4        1.0  0.3556891420841809  0.6707984451614382  0.3436937537392242  1.0000
  O   O1        1.0  0.5288670109666427  0.8824088239029351  0.011466497258958052  1.0000
  O   O2        1.0  0.6464072590346746  0.1177006577088804  0.48852237185592184  1.0000
  O   O3        1.0  0.4709346656905566  0.11785894411903541  0.9886618946799008  1.0000
  O   O4        1.0  0.35320981038525173  0.882078314926943  0.5113953678916661  1.0000
  O   O5        1.0  0.26280108746810527  0.9565345188865991  0.8116106732881081  1.0000
  O   O6        1.0  0.3058889671567401  0.04365384297079089  0.6883095648059412  1.0000
  O   O7        1.0  0.7368716520492596  0.043851389064421695  0.18858880954896765  1.0000
  O   O8        1.0  0.6935545123542821  0.9560941643054334  0.3116373703920703  1.0000
  O   O9        1.0  0.5655189630542451  0.9997674384743219  0.7496051583747417  1.0000
  O   O10       1.0  0.4339626639657226  0.00017364258217610003  0.250480075241761  1.0000
  O   O11       1.0  0.8952716429639621  0.8298644673129658  0.9907316777406554  1.0000
  O   O12       1.0  0.06465771051257721  0.1696071872597145  0.5093517646604442  1.0000
  O   O13       1.0  0.10427058693717581  0.1673895558460003  0.009538657043314901  1.0000
  O   O14       1.0  0.9365378137951553  0.8320891285370069  0.49043260681800427  1.0000
