data_image0
_chemical_formula_structural       Zn4H36C64N28O4
_chemical_formula_sum              "Zn4 H36 C64 N28 O4"
_cell_length_a       8.485073153010823
_cell_length_b       12.60959689802502
_cell_length_c       15.61711225504009
_cell_angle_alpha    90.00020775433136
_cell_angle_beta     89.99984369301104
_cell_angle_gamma    90.00009443437067

_space_group_name_H-M_alt    "P 1"
_space_group_IT_number       1

loop_
  _space_group_symop_operation_xyz
  'x, y, z'

loop_
  _atom_site_type_symbol
  _atom_site_label
  _atom_site_symmetry_multiplicity
  _atom_site_fract_x
  _atom_site_fract_y
  _atom_site_fract_z
  _atom_site_occupancy
  Zn  Zn1       1.0  0.1877269781002227  0.4027546655088728  0.8012125951498277  1.0000
  Zn  Zn2       1.0  0.3122742419445713  0.5972475385989143  0.3012125396585717  1.0000
  Zn  Zn3       1.0  0.8122716654335633  0.902753319889243  0.6987873979442513  1.0000
  Zn  Zn4       1.0  0.6877261606160376  0.0972481876196198  0.19878734290272604  1.0000
  H   H1        1.0  0.9737883809593768  0.20916361017988555  0.7771093204634243  1.0000
  H   H2        1.0  0.5262184809649993  0.7908366626500297  0.2771089764983331  1.0000
  H   H3        1.0  0.0262156823582487  0.7091614985974392  0.7228894650078106  1.0000
  H   H4        1.0  0.47378475159460026  0.29084035409747605  0.22289083303085996  1.0000
  H   H5        1.0  0.7032000838171442  0.1518651332362495  0.8195289314876889  1.0000
  H   H6        1.0  0.7968077440893852  0.848132950783523  0.3195302744913207  1.0000
  H   H7        1.0  0.2968073751571866  0.6518663044091756  0.6804677651100663  1.0000
  H   H8        1.0  0.20319327134984633  0.34813456490949335  0.1804716239058308  1.0000
  H   H9        1.0  0.5394453751467196  0.2748533198103901  0.9115821030324158  1.0000
  H   H10       1.0  0.9605619915085131  0.725144384182663  0.41158412305693315  1.0000
  H   H11       1.0  0.4605635628156791  0.7748574322501228  0.5884149539700873  1.0000
  H   H12       1.0  0.03943636640179451  0.22514461014282017  0.08841805526075323  1.0000
  H   H13       1.0  0.6558546068567922  0.4479137351253686  0.9561231550845621  1.0000
  H   H14       1.0  0.8441466439225281  0.5520857547983625  0.4561235602396892  1.0000
  H   H15       1.0  0.3441441470023038  0.9479159321774944  0.5438756897011603  1.0000
  H   H16       1.0  0.15585246977124004  0.0520859103730444  0.04387683030410732  1.0000
  H   H17       1.0  0.9343276500306602  0.7371847133289152  0.9022862743025402  1.0000
  H   H18       1.0  0.5656726919696666  0.2628153280879388  0.40228624540090874  1.0000
  H   H19       1.0  0.0656646963309271  0.23718183798546022  0.5977145142583639  1.0000
  H   H20       1.0  0.43433282921743205  0.7628186600280669  0.09771348201302743  1.0000
  H   H21       1.0  0.8494538977319622  0.8576932800403583  0.020076040221262303  1.0000
  H   H22       1.0  0.6505448237851325  0.1423058395396239  0.5200741070823085  1.0000
  H   H23       1.0  0.15055185521405426  0.3576890417802333  0.4799265265024034  1.0000
  H   H24       1.0  0.34944846934843093  0.6423099989362838  0.9799264034574906  1.0000
  H   H25       1.0  0.7649002703078693  0.7840329819420974  0.15887694398399085  1.0000
  H   H26       1.0  0.7350989342606057  0.21596755345174048  0.6588763817585885  1.0000
  H   H27       1.0  0.23510765977438552  0.28402742189668123  0.3411254068837978  1.0000
  H   H28       1.0  0.2648910031932914  0.7159702030081905  0.8411256252844482  1.0000
  H   H29       1.0  0.7671439101681302  0.5879633285780843  0.1833190739552535  1.0000
  H   H30       1.0  0.7328587075479689  0.4120373164844722  0.6833190896176049  1.0000
  H   H31       1.0  0.23285646970462892  0.08795765636239851  0.3166807813905806  1.0000
  H   H32       1.0  0.267143494287545  0.9120398588663292  0.816680930681173  1.0000
  H   H33       1.0  0.8460437895128479  0.4673541780068151  0.06581055862317703  1.0000
  H   H34       1.0  0.6539523457549448  0.5326435606825797  0.565811044905665  1.0000
  H   H35       1.0  0.15394691031124813  0.9673531565137027  0.4341884875244944  1.0000
  H   H36       1.0  0.34605128634574106  0.03264567899006471  0.9341897845950771  1.0000
  C   C1        1.0  0.8994990601203343  0.25975131811519253  0.8169106620306864  1.0000
  C   C2        1.0  0.6005052452890638  0.7402475471989621  0.316910699806229  1.0000
  C   C3        1.0  0.10050276969982969  0.7597522827510446  0.6830882716876945  1.0000
  C   C4        1.0  0.3994943280668722  0.24025097745636978  0.18308896148020185  1.0000
  C   C5        1.0  0.747976401809858  0.22828160646434983  0.8410874132190429  1.0000
  C   C6        1.0  0.7520242468341324  0.7717173673251738  0.3410885988063583  1.0000
  C   C7        1.0  0.25202417259436055  0.7282818380710053  0.6589107879578793  1.0000
  C   C8        1.0  0.24797540339656626  0.27172052061362006  0.15891179502123987  1.0000
  C   C9        1.0  0.6588445376046935  0.2957620207072723  0.8922404410512215  1.0000
  C   C10       1.0  0.8411617474248347  0.7042355965043969  0.39224257714890604  1.0000
  C   C11       1.0  0.3411609158132692  0.7957652941063956  0.6077566772229872  1.0000
  C   C12       1.0  0.1588377379504351  0.20423762811336843  0.10775953989999461  1.0000
  C   C13       1.0  0.7237432671319726  0.39264229204309936  0.917477594865794  1.0000
  C   C14       1.0  0.7762593558224893  0.6073570244936591  0.4174801837900617  1.0000
  C   C15       1.0  0.27625888732561077  0.8926422078547775  0.582520447624738  1.0000
  C   C16       1.0  0.22373989288929147  0.10735901504080657  0.0825222896916245  1.0000
  C   C17       1.0  0.8754238507601428  0.4188747164013123  0.8903771199488943  1.0000
  C   C18       1.0  0.6245812650728412  0.5811260646335655  0.39037793632309814  1.0000
  C   C19       1.0  0.12457718923925401  0.9188729990400547  0.6096203590876783  1.0000
  C   C20       1.0  0.3754190981054749  0.081128345445201  0.10962253932189014  1.0000
  C   C21       1.0  0.9480868413567909  0.5259210355225649  0.9053691109690976  1.0000
  C   C22       1.0  0.5519134851948452  0.4740790197276114  0.40536972158579954  1.0000
  C   C23       1.0  0.05190734599660371  0.0259165449500927  0.5946297778597227  1.0000
  C   C24       1.0  0.44809019500366537  0.974083939227242  0.09463062491373363  1.0000
  C   C25       1.0  0.8932257013546234  0.5945538090419263  0.9758124931239751  1.0000
  C   C26       1.0  0.6067730936901227  0.4054465622665547  0.4758121808143373  1.0000
  C   C27       1.0  0.10676629657420018  0.09454906341790803  0.524188517795615  1.0000
  C   C28       1.0  0.393230418846727  0.9054503116573475  0.02418796456474581  1.0000
  C   C29       1.0  0.8970855856994718  0.7050957794565846  0.9637995478187096  1.0000
  C   C30       1.0  0.6029097339138759  0.29490215881142495  0.46379955763493547  1.0000
  C   C31       1.0  0.10291021789434042  0.20509346258101155  0.5362011467078318  1.0000
  C   C32       1.0  0.3970911514943297  0.7949051733483259  0.036200904131682414  1.0000
  C   C33       1.0  0.8502209990545566  0.7722123774474882  0.029636580780312706  1.0000
  C   C34       1.0  0.6497823887183641  0.2277883711262874  0.5296355395940254  1.0000
  C   C35       1.0  0.1497833665349546  0.27220888848265906  0.4703650951311077  1.0000
  C   C36       1.0  0.3502181844779671  0.7277901093339878  0.9703645811094788  1.0000
  C   C37       1.0  0.8030767844189627  0.7302865248333393  0.10844946035330592  1.0000
  C   C38       1.0  0.696926208447671  0.2697129912583733  0.6084478316777365  1.0000
  C   C39       1.0  0.1969286572871169  0.2302835277317499  0.3915540136692926  1.0000
  C   C40       1.0  0.3030673959200528  0.7697143234305771  0.8915536925317087  1.0000
  C   C41       1.0  0.8027454475941768  0.6207810713394579  0.12172832361258662  1.0000
  C   C42       1.0  0.6972492289489055  0.37922088347464483  0.621730216962938  1.0000
  C   C43       1.0  0.1972514768286828  0.12077642892133161  0.3782716279056189  1.0000
  C   C44       1.0  0.30274700001443483  0.8792221556937607  0.8782709878204503  1.0000
  C   C45       1.0  0.8459402085158275  0.5528287346351421  0.05537661665560022  1.0000
  C   C46       1.0  0.654055979040443  0.4471705433285394  0.5553749313441899  1.0000
  C   C47       1.0  0.15405772844075466  0.052824341894243815  0.44462633735260243  1.0000
  C   C48       1.0  0.3459427729985692  0.9471729543451702  0.9446258322337473  1.0000
  C   C49       1.0  0.33597863161507757  0.42023947795809846  0.9920153909554872  1.0000
  C   C50       1.0  0.16402045383675556  0.5797612030899587  0.4920148641005327  1.0000
  C   C51       1.0  0.6640224117097662  0.9202386974961672  0.5079859340211927  1.0000
  C   C52       1.0  0.8359775489154161  0.0797579887069446  0.007987528508337503  1.0000
  C   C53       1.0  0.40944052590042906  0.5083878722792008  0.11547953647209401  1.0000
  C   C54       1.0  0.0905604462475438  0.4916158776394469  0.6154825579714329  1.0000
  C   C55       1.0  0.5905561239760077  0.0083829021948176  0.3845136824591294  1.0000
  C   C56       1.0  0.9094407714362448  0.9916115081636934  0.8845189761594912  1.0000
  C   C57       1.0  0.5023502865867542  0.5415887420627001  0.7847825107648208  1.0000
  C   C58       1.0  0.9976565368929755  0.45841077214429765  0.28478049244417053  1.0000
  C   C59       1.0  0.49765101027927733  0.0415884603929868  0.7152196255933705  1.0000
  C   C60       1.0  0.0023364981719283004  0.9584149439687196  0.21521788717859644  1.0000
  C   C61       1.0  0.6790961977458921  0.6758151143789989  0.7568138971441201  1.0000
  C   C62       1.0  0.8209072302461707  0.3241834812982987  0.256814949626829  1.0000
  C   C63       1.0  0.32090660556310985  0.17581634774634844  0.7431873519023287  1.0000
  C   C64       1.0  0.17908901253273513  0.8241808377225013  0.24318239632398087  1.0000
  N   N1        1.0  0.9606877443265844  0.35282654548660736  0.8405726178421775  1.0000
  N   N2        1.0  0.539315263980356  0.6471748051346538  0.34057375440664833  1.0000
  N   N3        1.0  0.039313134322277704  0.8528233706783367  0.6594253079696912  1.0000
  N   N4        1.0  0.46068643909129037  0.14717819726650563  0.1594256341400779  1.0000
  N   N5        1.0  0.25656868483549294  0.384246883477914  0.9371877193216493  1.0000
  N   N6        1.0  0.2434342109555985  0.6157519654840016  0.4371884606323776  1.0000
  N   N7        1.0  0.7434275564155116  0.8842496094951929  0.5628102985756983  1.0000
  N   N8        1.0  0.7565650582741769  0.11575446010363073  0.0628101955108846  1.0000
  N   N9        1.0  0.43784934097925543  0.45332887800764615  0.04751616577880211  1.0000
  N   N10       1.0  0.06215079317617269  0.5466713947812566  0.5475155488731505  1.0000
  N   N11       1.0  0.5621519314461026  0.9533236342325822  0.452480277962458  1.0000
  N   N12       1.0  0.9378481590381682  0.0466734602102221  0.9524827604448307  1.0000
  N   N13       1.0  0.3989266724867235  0.5590819361389949  0.17854889691713544  1.0000
  N   N14       1.0  0.1010704480250268  0.4409228897969442  0.6785504736056255  1.0000
  N   N15       1.0  0.6010677441364507  0.0590790739225255  0.3214502334806754  1.0000
  N   N16       1.0  0.8989294672769431  0.940918225667794  0.8214528329460935  1.0000
  N   N17       1.0  0.38162999411761694  0.49588301497319537  0.7866151385777089  1.0000
  N   N18       1.0  0.1183783703032475  0.504117537555807  0.2866176594736346  1.0000
  N   N19       1.0  0.6183712339969534  0.9958815192284974  0.7133851274152436  1.0000
  N   N20       1.0  0.8816241618242631  0.0041160885401723  0.21338451147012455  1.0000
  N   N21       1.0  0.6408606326052038  0.5835076865545972  0.7855367701025245  1.0000
  N   N22       1.0  0.8591461870936997  0.4164934171331467  0.2855361153210154  1.0000
  N   N23       1.0  0.3591407666506683  0.0835048683444697  0.7144693310295837  1.0000
  N   N24       1.0  0.14084674556268345  0.9164882230292762  0.21446150113127527  1.0000
  N   N25       1.0  0.7284913369287908  0.7573220536171236  0.7321346413668763  1.0000
  N   N26       1.0  0.7715110361980207  0.24268198264993404  0.23213232676248916  1.0000
  N   N27       1.0  0.271509308413961  0.25732334278247754  0.7678655658806834  1.0000
  N   N28       1.0  0.2284897216421058  0.7426802977993676  0.2678660610028914  1.0000
  O   O1        1.0  0.0529739193468401  0.5562457408959176  0.8553989940967812  1.0000
  O   O2        1.0  0.4470246721150631  0.44375670632356196  0.35539572738051123  1.0000
  O   O3        1.0  0.9470179849969755  0.05624088381370033  0.6446031852121907  1.0000
  O   O4        1.0  0.5529777554749558  0.9437619666758084  0.1446026092949637  1.0000
