data_image0
_chemical_formula_structural       Cd2H36C44S4N8
_chemical_formula_sum              "Cd2 H36 C44 S4 N8"
_cell_length_a       7.83503617512173
_cell_length_b       12.519459762568196
_cell_length_c       12.519236504733131
_cell_angle_alpha    95.77957350644886
_cell_angle_beta     101.3018099792439
_cell_angle_gamma    101.3015607049499

_space_group_name_H-M_alt    "P 1"
_space_group_IT_number       1

loop_
  _space_group_symop_operation_xyz
  'x, y, z'

loop_
  _atom_site_type_symbol
  _atom_site_label
  _atom_site_symmetry_multiplicity
  _atom_site_fract_x
  _atom_site_fract_y
  _atom_site_fract_z
  _atom_site_occupancy
  Cd  Cd1       1.0  0.7499980502058037  0.8816537132829013  0.11834483207994848  1.0000
  Cd  Cd2       1.0  0.2500059629969016  0.11835015149937078  0.8816602681501421  1.0000
  H   H1        1.0  0.35170136193695367  0.7721557841332753  0.067244134351327  1.0000
  H   H2        1.0  0.14829801541105056  0.9327492870991915  0.22784051531279195  1.0000
  H   H3        1.0  0.6483036477906197  0.2278472334091646  0.9327602271786901  1.0000
  H   H4        1.0  0.851691504165842  0.0672503675272935  0.7721552245801887  1.0000
  H   H5        1.0  0.009414956505160924  0.5274280521384682  0.2386610615786395  1.0000
  H   H6        1.0  0.49059014714911325  0.7613328907927366  0.4725729581530587  1.0000
  H   H7        1.0  0.9905836572082406  0.4725715571614514  0.7613358294834214  1.0000
  H   H8        1.0  0.5094158395292183  0.2386694039086024  0.5274362647570426  1.0000
  H   H9        1.0  0.9032702259489083  0.6935673658622504  0.1932566254556889  1.0000
  H   H10       1.0  0.5967383538704709  0.8067356869080695  0.3064345079829636  1.0000
  H   H11       1.0  0.09673158577157889  0.3064339475589292  0.8067440008403466  1.0000
  H   H12       1.0  0.4032590017558349  0.1932608614446281  0.693572370662565  1.0000
  H   H13       1.0  0.12211897319018311  0.6010489820362465  0.054212269449742195  1.0000
  H   H14       1.0  0.3778790492806365  0.9457859731312368  0.39895259477343353  1.0000
  H   H15       1.0  0.8778817011325585  0.39895968666584025  0.9457855917145038  1.0000
  H   H16       1.0  0.6221181271938364  0.054220132913734204  0.6010398279925795  1.0000
  H   H17       1.0  0.22038845227986315  0.4269644912717255  0.09846926623413312  1.0000
  H   H18       1.0  0.2796158287780983  0.9015335110095322  0.5730390052459455  1.0000
  H   H19       1.0  0.7796106146504298  0.5730433786834723  0.9015291273474944  1.0000
  H   H20       1.0  0.720389602958697  0.09846678228014129  0.42695401115238946  1.0000
  H   H21       1.0  0.4703148160252369  0.3349143061055672  0.15436304395149852  1.0000
  H   H22       1.0  0.029683366762142744  0.8456374437858966  0.6650921325642187  1.0000
  H   H23       1.0  0.5296730131394085  0.6650878837651886  0.8456350764944531  1.0000
  H   H24       1.0  0.9703328961912803  0.15435716596801538  0.33490820646350977  1.0000
  H   H25       1.0  0.710325438885306  0.24613451868420103  0.21643234258932154  1.0000
  H   H26       1.0  0.7896615100872565  0.7835677617802334  0.7538732811939964  1.0000
  H   H27       1.0  0.28966148236686706  0.7538651488927357  0.7835630683982089  1.0000
  H   H28       1.0  0.21034815446046196  0.21643033873967704  0.246133683785871  1.0000
  H   H29       1.0  0.8945933067141282  0.3334905370554679  0.3135927260384719  1.0000
  H   H30       1.0  0.6053942025482683  0.6864088382807055  0.6665088391140301  1.0000
  H   H31       1.0  0.10539101341703376  0.6665091612431625  0.6864031560550571  1.0000
  H   H32       1.0  0.39461379955022124  0.31359161977100314  0.33349250630428173  1.0000
  H   H33       1.0  0.9083888293249344  0.3030589305556219  0.1749557358797844  1.0000
  H   H34       1.0  0.5916121265061989  0.8250466091067211  0.6969388468343212  1.0000
  H   H35       1.0  0.09160947056577134  0.696939909064689  0.8250434520752775  1.0000
  H   H36       1.0  0.4083925749912893  0.17495560321360404  0.3030662115657918  1.0000
  C   C1        1.0  0.6242328924252547  0.6109112013163838  0.14798997496582442  1.0000
  C   C2        1.0  0.8757667197799321  0.8520104894566816  0.38908751322054513  1.0000
  C   C3        1.0  0.3757663069890071  0.38909021391147997  0.8520143224820274  1.0000
  C   C4        1.0  0.1242264776663546  0.1479849709883752  0.6109059687422018  1.0000
  C   C5        1.0  0.39220309845677537  0.6969389239719702  0.08855326438740718  1.0000
  C   C6        1.0  0.10780070943521036  0.9114421122138907  0.3030623247086339  1.0000
  C   C7        1.0  0.6078012369575417  0.30306565717617673  0.911447138915328  1.0000
  C   C8        1.0  0.8921959056358446  0.08855922710818478  0.6969376437765006  1.0000
  C   C9        1.0  0.5008282891744286  0.5079068115754239  0.1396572519310624  1.0000
  C   C10       1.0  0.9991743003986071  0.8603419841687411  0.4920967133686034  1.0000
  C   C11       1.0  0.49917346189668177  0.4920976936669276  0.8603388224089557  1.0000
  C   C12       1.0  0.0008201962100287071  0.1396534698010967  0.5078969330468723  1.0000
  C   C13       1.0  0.8666228504272693  0.5223423714055427  0.2107206441889247  1.0000
  C   C14       1.0  0.6333856517258027  0.7892808852968046  0.4776588761180705  1.0000
  C   C15       1.0  0.13337828418364953  0.4776605233925864  0.7892768238912922  1.0000
  C   C16       1.0  0.3666232526925483  0.21072213059121478  0.522346778781575  1.0000
  C   C17       1.0  0.808550038324789  0.6154138651583311  0.1848103384918005  1.0000
  C   C18       1.0  0.6914590885832081  0.8151794654063165  0.3845812089629844  1.0000
  C   C19       1.0  0.19145277830948254  0.38458654770927575  0.8151871490697999  1.0000
  C   C20       1.0  0.3085416450712941  0.18481203022910364  0.6154217085880447  1.0000
  C   C21       1.0  0.47389443701624134  0.0609359180475195  0.11868445376045138  1.0000
  C   C22       1.0  0.026107913315577505  0.8813327670523563  0.9390593057756291  1.0000
  C   C23       1.0  0.5260958007454803  0.9390590877795759  0.8813245963845374  1.0000
  C   C24       1.0  0.9738760790113755  0.1186662504228977  0.06094287326816065  1.0000
  C   C25       1.0  0.7463651879383022  0.4190520596852919  0.20084519828601796  1.0000
  C   C26       1.0  0.7536394338062705  0.7991518308795165  0.5809457009262573  1.0000
  C   C27       1.0  0.2536304306078847  0.5809501268766156  0.7991555088991973  1.0000
  C   C28       1.0  0.24637003069788216  0.20084197048591076  0.41905291268503214  1.0000
  C   C29       1.0  0.2623099560285098  0.5993724833982554  0.08079028534223201  1.0000
  C   C30       1.0  0.23769121321755896  0.9192114449507257  0.4006322856903139  1.0000
  C   C31       1.0  0.7376872782990347  0.40063044859680014  0.9192074893912476  1.0000
  C   C32       1.0  0.7623080720128073  0.08078661851474317  0.599369363610485  1.0000
  C   C33       1.0  0.3164211399273142  0.5048496123369047  0.10551919295016891  1.0000
  C   C34       1.0  0.18358239913830957  0.8944761789691286  0.4951528409234243  1.0000
  C   C35       1.0  0.6835822073510373  0.49515576273732614  0.8944795490182925  1.0000
  C   C36       1.0  0.8164114670286365  0.10551775341271957  0.5048461992895099  1.0000
  C   C37       1.0  0.565858076895708  0.41341366048984435  0.16507175669467963  1.0000
  C   C38       1.0  0.9341505570835906  0.8349290487745124  0.586592556676294  1.0000
  C   C39       1.0  0.434140165141919  0.5865883531803887  0.834922079292916  1.0000
  C   C40       1.0  0.06586013195202159  0.16506802679309368  0.41340566948896645  1.0000
  C   C41       1.0  0.8173879176279755  0.3199378537753077  0.2280934369554544  1.0000
  C   C42       1.0  0.682603764702421  0.771907902412508  0.6800615251661455  1.0000
  C   C43       1.0  0.18260091645044696  0.6800634355418749  0.7719015447560623  1.0000
  C   C44       1.0  0.31740294103001077  0.22809254434316978  0.3199388557879885  1.0000
  S   S1        1.0  0.5358321468222371  0.9916165501949193  0.21761097963041456  1.0000
  S   S2        1.0  0.9641761809754709  0.7824019122097777  0.008371843708147244  1.0000
  S   S3        1.0  0.4641700888344998  0.008379220348523102  0.7823996537304652  1.0000
  S   S4        1.0  0.03583725137165321  0.21760260584055402  0.9916289107522189  1.0000
  N   N1        1.0  0.4322636570187654  0.11442075182574028  0.049450702287955985  1.0000
  N   N2        1.0  0.06773635029584568  0.950568259125745  0.8855695423252783  1.0000
  N   N3        1.0  0.5677294085529567  0.8855643634761778  0.9505587324358514  1.0000
  N   N4        1.0  0.9322610485926145  0.049442003903742204  0.11442483171769167  1.0000
  N   N5        1.0  0.5662992145900961  0.7033297382026406  0.1209301028191803  1.0000
  N   N6        1.0  0.9337021902961592  0.8790638852734742  0.2966674874129112  1.0000
  N   N7        1.0  0.4336964897721955  0.2966690965968581  0.8790679562189752  1.0000
  N   N8        1.0  0.06630108662628939  0.12093075369017471  0.7033296070646459  1.0000
