data_image0
_chemical_formula_structural       K4H16C16N12O20
_chemical_formula_sum              "K4 H16 C16 N12 O20"
_cell_length_a       6.6000226439482175
_cell_length_b       6.654506262197373
_cell_length_c       17.419794971023798
_cell_angle_alpha    90.00015156526821
_cell_angle_beta     90.00005900572128
_cell_angle_gamma    96.48473703065892

_space_group_name_H-M_alt    "P 1"
_space_group_IT_number       1

loop_
  _space_group_symop_operation_xyz
  'x, y, z'

loop_
  _atom_site_type_symbol
  _atom_site_label
  _atom_site_symmetry_multiplicity
  _atom_site_fract_x
  _atom_site_fract_y
  _atom_site_fract_z
  _atom_site_occupancy
  K   K1        1.0  0.6832110359444316  0.6795768012662791  0.4300502628856932  1.0000
  K   K2        1.0  0.31679001809814633  0.8204103356545503  0.9300463843393204  1.0000
  K   K3        1.0  0.31678770286418984  0.3204282584331822  0.5699472061450805  1.0000
  K   K4        1.0  0.6832179064116987  0.17956900949179305  0.06994764032433658  1.0000
  H   H1        1.0  0.36491412175603  0.26982937461325207  0.3808255636315606  1.0000
  H   H2        1.0  0.6350891695300901  0.23017952304500963  0.8808257396798069  1.0000
  H   H3        1.0  0.6350790358634839  0.7301666118928268  0.6191770719303021  1.0000
  H   H4        1.0  0.3649208655741348  0.7698315833346284  0.119176895891826  1.0000
  H   H5        1.0  0.2446535155630585  0.6957833786166462  0.4320542320794799  1.0000
  H   H6        1.0  0.7553600510114933  0.8042204083659076  0.9320545174856818  1.0000
  H   H7        1.0  0.7553480807977095  0.304220167823857  0.5679478294277017  1.0000
  H   H8        1.0  0.24465704162000182  0.1957861585986151  0.06794524778738517  1.0000
  H   H9        1.0  0.22359806430122836  0.7844746868514465  0.5154966961907235  1.0000
  H   H10       1.0  0.7764118728243832  0.7155211411844392  0.015495473975356297  1.0000
  H   H11       1.0  0.7764079047001646  0.21552734588107111  0.4845053653165862  1.0000
  H   H12       1.0  0.22360353205644407  0.2844839137880157  0.9845031431775904  1.0000
  H   H13       1.0  0.789612664583892  0.9875476358546893  0.2679767543660034  1.0000
  H   H14       1.0  0.2103836071171017  0.5124548079226656  0.7679765829464953  1.0000
  H   H15       1.0  0.21038793462550132  0.012460448252006994  0.7320212887260168  1.0000
  H   H16       1.0  0.7896071721425529  0.4875336169118611  0.23202260825417642  1.0000
  C   C1        1.0  0.09171029678329033  0.1356025995659209  0.2984662761487725  1.0000
  C   C2        1.0  0.9082911637706842  0.3644056219106986  0.7984638002602222  1.0000
  C   C3        1.0  0.9082838967412176  0.8644024614405196  0.7015352112981644  1.0000
  C   C4        1.0  0.09170350893730733  0.6355903641463599  0.20153424282536747  1.0000
  C   C5        1.0  0.24841089609643066  0.20735166307537875  0.24775448815262988  1.0000
  C   C6        1.0  0.7515847889150751  0.2926470685815871  0.747753039768696  1.0000
  C   C7        1.0  0.7515884945633787  0.7926458341275835  0.7522481474110376  1.0000
  C   C8        1.0  0.24841074704890803  0.7073564795630319  0.2522450033203967  1.0000
  C   C9        1.0  0.07127926652800912  0.1333249253266686  0.3835585473290592  1.0000
  C   C10       1.0  0.9287136022025921  0.36668551021324447  0.8835589512008679  1.0000
  C   C11       1.0  0.9287120694498444  0.8666816489505249  0.6164412179393108  1.0000
  C   C12       1.0  0.07128461865353589  0.6333150122360393  0.11643909188737209  1.0000
  C   C13       1.0  0.45704461431641635  0.3066933116918947  0.2647231969422704  1.0000
  C   C14       1.0  0.5429573687629274  0.193307070058502  0.7647204364852839  1.0000
  C   C15       1.0  0.5429593216363103  0.6933041842229529  0.7352800126817981  1.0000
  C   C16       1.0  0.4570336219147323  0.8066964793883856  0.23528047690082587  1.0000
  N   N1        1.0  0.935850055065913  0.0630169360851909  0.2524474865701051  1.0000
  N   N2        1.0  0.06414616588636332  0.43698637138261637  0.7524470634320932  1.0000
  N   N3        1.0  0.06414699599533691  0.9369866116292797  0.7475505565192647  1.0000
  N   N4        1.0  0.9358453039758816  0.5630081031172479  0.24755097965224582  1.0000
  N   N5        1.0  0.9874148621716616  0.08592493431768132  0.1783134533119792  1.0000
  N   N6        1.0  0.012583586911567583  0.41407322600387875  0.6783118429858844  1.0000
  N   N7        1.0  0.012592449271402007  0.9140755855577325  0.8216863119566256  1.0000
  N   N8        1.0  0.9874051980585251  0.5859242741913208  0.32168620009930027  1.0000
  N   N9        1.0  0.1763480697657585  0.17399017421547566  0.1748069885964085  1.0000
  N   N10       1.0  0.8236501932275859  0.32600644488067587  0.6748050219414381  1.0000
  N   N11       1.0  0.8236605841244826  0.8260088328146225  0.8251933507313394  1.0000
  N   N12       1.0  0.17633724929643085  0.6739925681621985  0.3251930211441659  1.0000
  O   O1        1.0  0.576062822044726  0.356735549910212  0.20989251506388476  1.0000
  O   O2        1.0  0.4239387394914617  0.1432492567923092  0.7098908150534697  1.0000
  O   O3        1.0  0.4239439326878412  0.6432468205390405  0.7901106945540093  1.0000
  O   O4        1.0  0.5760471879407805  0.8567497566925082  0.2901100983297126  1.0000
  O   O5        1.0  0.5038517203340193  0.3392739687934778  0.33593243917369614  1.0000
  O   O6        1.0  0.49614750545178055  0.160726998822426  0.8359307809439399  1.0000
  O   O7        1.0  0.496144467482239  0.660722016857001  0.6640713445078601  1.0000
  O   O8        1.0  0.5038554333528609  0.8392750347656913  0.1640701324436762  1.0000
  O   O9        1.0  0.2316844149249206  0.2084309776645056  0.42167042460626186  1.0000
  O   O10       1.0  0.768314832901666  0.2915812816651027  0.9216695554307605  1.0000
  O   O11       1.0  0.7683026823033077  0.791565010557484  0.5783310628353602  1.0000
  O   O12       1.0  0.23169234465590455  0.7084313379852958  0.07833135796231258  1.0000
  O   O13       1.0  0.9067350943910812  0.0633873412295074  0.41298324000866415  1.0000
  O   O14       1.0  0.09326546259010374  0.43662333388703445  0.9129828271601566  1.0000
  O   O15       1.0  0.09325221424414565  0.9366237715812602  0.5870142290227063  1.0000
  O   O16       1.0  0.9067404676312807  0.5633650866223405  0.0870106234475756  1.0000
  O   O17       1.0  0.2920031314805059  0.686144818450032  0.48561629050806226  1.0000
  O   O18       1.0  0.7080121554610845  0.8138594081295949  0.9856171412428195  1.0000
  O   O19       1.0  0.7080033554733804  0.31386175153266993  0.5143851969417736  1.0000
  O   O20       1.0  0.29200307677184884  0.18614413443242478  0.014383198088132996  1.0000
