data_image0
_chemical_formula_structural       Gd4H32C32N4O36
_chemical_formula_sum              "Gd4 H32 C32 N4 O36"
_cell_length_a       7.156004023
_cell_length_b       11.948503332214734
_cell_length_c       13.505
_cell_angle_alpha    96.23138868539264
_cell_angle_beta     90.0
_cell_angle_gamma    90.0

_space_group_name_H-M_alt    "P 1"
_space_group_IT_number       1

loop_
  _space_group_symop_operation_xyz
  'x, y, z'

loop_
  _atom_site_type_symbol
  _atom_site_label
  _atom_site_symmetry_multiplicity
  _atom_site_fract_x
  _atom_site_fract_y
  _atom_site_fract_z
  _atom_site_occupancy
  Gd  Gd1       1.0  0.7337544784943759  0.7179421195922728  0.292200401088472  1.0000
  Gd  Gd2       1.0  0.2337547595870006  0.282058101069488  0.20780391480820976  1.0000
  Gd  Gd3       1.0  0.2662449593203675  0.2820555753720697  0.7077999699231299  1.0000
  Gd  Gd4       1.0  0.7662474730836237  0.7179395938948616  0.7921957157368951  1.0000
  H   H1        1.0  0.9739290220631034  0.5629282824533135  0.16500430068777658  1.0000
  H   H2        1.0  0.4739279057277841  0.43707109630931024  0.3349962320255599  1.0000
  H   H3        1.0  0.0260732106075281  0.4370719382084545  0.8349955724099373  1.0000
  H   H4        1.0  0.5260687372310571  0.5629265986550323  0.6650041389860419  1.0000
  H   H5        1.0  0.9007652845474112  0.6360968947575785  0.077977655275312  1.0000
  H   H6        1.0  0.4007641682120919  0.3639041678033266  0.42202377960625626  1.0000
  H   H7        1.0  0.0992327558393811  0.3639041678033266  0.9220237796062561  1.0000
  H   H8        1.0  0.5992352696026444  0.6360943690601601  0.5779774127227029  1.0000
  H   H9        1.0  0.0534334523528841  0.8794057460380172  0.30458087593151356  1.0000
  H   H10       1.0  0.5534373635440843  0.12059363272460637  0.19542187818130688  1.0000
  H   H11       1.0  0.9465631906059643  0.1205944746237435  0.6954182566997102  1.0000
  H   H12       1.0  0.446563471698596  0.8794049041388803  0.8045785736811623  1.0000
  H   H13       1.0  0.1611108652670481  0.765396606482497  0.30187426464406997  1.0000
  H   H14       1.0  0.6611147764582554  0.23460361417927084  0.1981270893866309  1.0000
  H   H15       1.0  0.8388871751197442  0.23460445607840794  0.6981256893045115  1.0000
  H   H16       1.0  0.338886058784432  0.7653957645833599  0.8018712219272287  1.0000
  H   H17       1.0  0.8407806899859267  0.9356555532373321  0.4177265636360231  1.0000
  H   H18       1.0  0.3407851633623906  0.064345509323573  0.08227487124554499  1.0000
  H   H19       1.0  0.15921735040086563  0.0643438255252988  0.5822717476778293  1.0000
  H   H20       1.0  0.6592156718802897  0.9356547113381878  0.9177227804526851  1.0000
  H   H21       1.0  0.7172676235931166  0.873653891117783  0.493655307681493  1.0000
  H   H22       1.0  0.2172720969695874  0.1263471714431219  0.006346127200082196  1.0000
  H   H23       1.0  0.2827304167936759  0.1263463295439777  0.5063453058827179  1.0000
  H   H24       1.0  0.7827315331289884  0.8736530492186461  0.9936500435651608  1.0000
  H   H25       1.0  0.2199914917515713  0.5220145099769269  0.0234335767893725  1.0000
  H   H26       1.0  0.7199912106589395  0.4779873944831152  0.4765649770770963  1.0000
  H   H27       1.0  0.7799995614954938  0.4779873944831152  0.976569419876057  1.0000
  H   H28       1.0  0.2800124194396361  0.5220170356743452  0.5234345598084715  1.0000
  H   H29       1.0  0.3027457772573712  0.8775948209892163  0.9999041889629083  1.0000
  H   H30       1.0  0.8027413038809001  0.1224070834708257  0.5000936244370564  1.0000
  H   H31       1.0  0.6972648399809318  0.1224045577734074  9.338188445439535e-05  1.0000
  H   H32       1.0  0.197255339077941  0.8775965047874976  0.49990435066465005  1.0000
  C   C1        1.0  0.4266557131867047  0.6095947517490714  0.1182663160417547  1.0000
  C   C2        1.0  0.9266540346661288  0.3904063108118265  0.3817321569738397  1.0000
  C   C3        1.0  0.5733465194839198  0.390402943215271  0.88173405496984  1.0000
  C   C4        1.0  0.0733454031486076  0.6095955936482156  0.618269358758603  1.0000
  C   C5        1.0  0.2883955896848178  0.6023401068650499  0.045131267939083786  1.0000
  C   C6        1.0  0.788393911164242  0.39766348139327323  0.4548696690285965  1.0000
  C   C7        1.0  0.7116024507019746  0.3976617975949921  0.9548717287263455  1.0000
  C   C8        1.0  0.2116055266505015  0.6023392649659058  0.5451319275547064  1.0000
  C   C9        1.0  0.2409249623754732  0.7001948857341701  0.00263971526948129  1.0000
  C   C10       1.0  0.7409246812828414  0.2998070187258719  0.49735957906347744  1.0000
  C   C11       1.0  0.7590744754392631  0.2998053349275906  0.9973608982947297  1.0000
  C   C12       1.0  0.2590803462436782  0.7001940438350331  0.5026425962845877  1.0000
  C   C13       1.0  0.3344911478957684  0.8006309273646366  0.032970653363527384  1.0000
  C   C14       1.0  0.8344880719472486  0.19937181899454967  0.46702872182029864  1.0000
  C   C15       1.0  0.6655124822028071  0.1993701351962684  0.9670293005850538  1.0000
  C   C16       1.0  0.165512763295439  0.8006300854654924  0.5329713129791499  1.0000
  C   C17       1.0  0.4680684903522163  0.8005602078369236  0.10799162938405259  1.0000
  C   C18       1.0  0.9680682092595846  0.19944169662311845  0.3920061840159191  1.0000
  C   C19       1.0  0.531929550034576  0.19944001282483728  0.8920104651131452  1.0000
  C   C20       1.0  0.0319312285551518  0.8005593659377865  0.6079937699326621  1.0000
  C   C21       1.0  0.4785394179480065  0.512493472609691  0.17532412139055958  1.0000
  C   C22       1.0  0.9785391368553747  0.4875084318503511  0.3246781348083799  1.0000
  C   C23       1.0  0.521461417294681  0.4875033804555144  0.8246761687701749  1.0000
  C   C24       1.0  0.0214630958152568  0.5124901050131356  0.6753186147216255  1.0000
  C   C25       1.0  0.0827626700734712  0.7029377931302675  0.9304751377672529  1.0000
  C   C26       1.0  0.5827637864087905  0.2970641113297745  0.5695256374986926  1.0000
  C   C27       1.0  0.9172395625971532  0.2970624275314933  0.0695247353304609  1.0000
  C   C28       1.0  0.417238446261841  0.7029403188276857  0.4304761207863591  1.0000
  C   C29       1.0  0.5720231552195116  0.9041862053064945  0.15215945566366426  1.0000
  C   C30       1.0  0.0720220388841994  0.0958131734561292  0.3478418175161694  1.0000
  C   C31       1.0  0.4279734877393296  0.0958156991535475  0.8478428005352683  1.0000
  C   C32       1.0  0.9279760015025929  0.9041870472056316  0.6521573151150547  1.0000
  N   N1        1.0  0.5120217915226846  0.7069418654371518  0.1489218636857714  1.0000
  N   N2        1.0  0.0120220726153164  0.2930591971237462  0.351076609329823  1.0000
  N   N3        1.0  0.4879748514361637  0.2930583552246091  0.8510794903449294  1.0000
  N   N4        1.0  0.9879759677714759  0.7069418654371518  0.6489233446187583  1.0000
  O   O1        1.0  0.5710868784960184  0.5360186602613481  0.2555788944244384  1.0000
  O   O2        1.0  0.0710857621606991  0.46398408609783093  0.2444204807593876  1.0000
  O   O3        1.0  0.4289111618907739  0.46398408609783093  0.7444234426253614  1.0000
  O   O4        1.0  0.9289178679378693  0.5360152926647928  0.7555770900879749  1.0000
  O   O5        1.0  0.4223809811013552  0.4151320466362449  0.1424435784006164  1.0000
  O   O6        1.0  0.9223820974366745  0.5848698578237972  0.3575557159323424  1.0000
  O   O7        1.0  0.5776184567133811  0.5848690159246601  0.8575563755479649  1.0000
  O   O8        1.0  0.077622930089845  0.41513373043451907  0.6424392973033903  1.0000
  O   O9        1.0  0.923460911810615  0.666726027347309  0.9556654809667363  1.0000
  O   O10       1.0  0.4234611929032468  0.3332767190118702  0.5443338942170897  1.0000
  O   O11       1.0  0.0765427182879606  0.3332750352135889  0.044333732515355  1.0000
  O   O12       1.0  0.5765396423394407  0.6667243435490349  0.4556668001979888  1.0000
  O   O13       1.0  0.1069898783649705  0.7452112327167555  0.8492404861708424  1.0000
  O   O14       1.0  0.6069937895561779  0.254793197440712  0.6507605316477125  1.0000
  O   O15       1.0  0.893012354305661  0.2547881460458754  0.1507585656095074  1.0000
  O   O16       1.0  0.3930140328262368  0.7452120746158925  0.3492420479546965  1.0000
  O   O17       1.0  0.695759810083608  0.8884258534173242  0.216599278006619  1.0000
  O   O18       1.0  0.1957698731718551  0.11157605104271788  0.2834007567928367  1.0000
  O   O19       1.0  0.3042368328752403  0.11157184154702549  0.7834062762704403  1.0000
  O   O20       1.0  0.804225372359042  0.8884199601233502  0.7166016739165072  1.0000
  O   O21       1.0  0.5324815340730567  0.9977675041441287  0.12129378684114298  1.0000
  O   O22       1.0  0.0324762254539053  0.0022369260133317  0.3787027881784438  1.0000
  O   O23       1.0  0.4675151088857916  0.0022285070219326  0.8787064224687169  1.0000
  O   O24       1.0  0.9675148277931598  0.9977599270518809  0.6212960210493036  1.0000
  O   O25       1.0  0.8748583678654  0.6140298764153229  0.1455770958799221  1.0000
  O   O26       1.0  0.3748586489580319  0.3859695023473008  0.3544219559004275  1.0000
  O   O27       1.0  0.1251396725213922  0.3859703442464451  0.8544227772177919  1.0000
  O   O28       1.0  0.6251393914287605  0.6140290345161787  0.6455784959620416  1.0000
  O   O29       1.0  0.0430701267088978  0.7979242216315328  0.2795637352206128  1.0000
  O   O30       1.0  0.5430726404721611  0.20207431523195393  0.22043671664185638  1.0000
  O   O31       1.0  0.9569293111058386  0.2020759990302352  0.7204361378771011  1.0000
  O   O32       1.0  0.4569281947705264  0.7979242216315328  0.7795615138211289  1.0000
  O   O33       1.0  0.7438928182391251  0.8765011940071616  0.423554809741077  1.0000
  O   O34       1.0  0.24389868904354023  0.1234965009571809  0.0764477826700016  1.0000
  O   O35       1.0  0.2561052221476672  0.1234965009571809  0.5764455612705248  1.0000
  O   O36       1.0  0.7561021461991404  0.8765020359063058  0.9235497073264864  1.0000
