data_image0
_chemical_formula_structural       Zr6H18C52N10Cl2O52
_chemical_formula_sum              "Zr6 H18 C52 N10 Cl2 O52"
_cell_length_a       14.777443820973717
_cell_length_b       14.769760177607779
_cell_length_c       14.775016680793875
_cell_angle_alpha    59.95322470168381
_cell_angle_beta     60.010467130025184
_cell_angle_gamma    60.16849199840498

_space_group_name_H-M_alt    "P 1"
_space_group_IT_number       1

loop_
  _space_group_symop_operation_xyz
  'x, y, z'

loop_
  _atom_site_type_symbol
  _atom_site_label
  _atom_site_symmetry_multiplicity
  _atom_site_fract_x
  _atom_site_fract_y
  _atom_site_fract_z
  _atom_site_occupancy
  Zr  Zr1       1.0  0.8778570356914485  0.8812257507809492  0.6209937126336199  1.0000
  Zr  Zr2       1.0  0.11914745949047048  0.11960029438201042  0.38102217832937413  1.0000
  Zr  Zr3       1.0  0.1181623954123124  0.8789789976335456  0.6215035357732505  1.0000
  Zr  Zr4       1.0  0.8790435271547422  0.1202725316215592  0.3820028195416256  1.0000
  Zr  Zr5       1.0  0.11801605062193218  0.8806668859427235  0.3818056347708351  1.0000
  Zr  Zr6       1.0  0.8804200841202102  0.11923149304595157  0.6211147337338617  1.0000
  H   H1        1.0  0.09244864470513658  0.7165953467720313  0.5963342618666658  1.0000
  H   H2        1.0  0.09418815458712258  0.09544797569851234  0.2181181812969726  1.0000
  H   H3        1.0  0.09555966812110482  0.09241662862135769  0.5951661206376286  1.0000
  H   H4        1.0  0.7165704688911348  0.09459330233849525  0.5960578366251924  1.0000
  H   H5        1.0  0.15654470131872264  0.5726649343975223  0.37719407619553647  1.0000
  H   H6        1.0  0.8332911330867461  0.43796739650836275  0.611447900929754  1.0000
  H   H7        1.0  0.5895632594453986  0.14111532625349812  0.917272425792895  1.0000
  H   H8        1.0  0.41354212613336455  0.853571114300756  0.09105577673443561  1.0000
  H   H9        1.0  0.8426824776722698  0.12771637663136196  0.10288666130094272  1.0000
  H   H10       1.0  0.14564557813979928  0.8580560609185496  0.9115395770433851  1.0000
  H   H11       1.0  0.5893497214975764  0.4123905384715486  0.35756310829940213  1.0000
  H   H12       1.0  0.41604022022213644  0.5943591943255199  0.6390628053802985  1.0000
  H   H13       1.0  0.0021952589795901814  0.5726706029488469  0.7368340958107141  1.0000
  H   H14       1.0  0.02153305274111242  0.39997563085586296  0.7317483638130472  1.0000
  H   H15       1.0  0.005614368878660548  0.234606211096299  0.07258609214706982  1.0000
  H   H16       1.0  0.023662725014624058  0.23051849288821552  0.8998625371776187  1.0000
  H   H17       1.0  0.5816655645154113  0.8617191400005737  0.6488190412635999  1.0000
  H   H18       1.0  0.41893357639320783  0.1352811025901559  0.3491589263639909  1.0000
  C   C1        1.0  0.9916196556500337  0.7034922029921945  0.4949689284459637  1.0000
  C   C2        1.0  0.30521411558215317  0.9968613250201201  0.20101438201325553  1.0000
  C   C3        1.0  0.9999957444884372  0.304079413117485  0.498394026010722  1.0000
  C   C4        1.0  0.6980469568960147  0.9979986971686613  0.8074055088662886  1.0000
  C   C5        1.0  0.9906862734257302  0.7028869381951425  0.8102132504382028  1.0000
  C   C6        1.0  0.6965794740368594  0.9997810337067964  0.4985586561342431  1.0000
  C   C7        1.0  0.9913587912480042  0.30900060425722115  0.20415782931405596  1.0000
  C   C8        1.0  0.3068166540592827  0.9939086067690538  0.4971900708882798  1.0000
  C   C9        1.0  0.30505933225317966  0.6990536139557834  0.4975597501788159  1.0000
  C   C10       1.0  0.9958701969572481  0.9943324443893218  0.8088182370144495  1.0000
  C   C11       1.0  0.6994819907576756  0.30713685470839625  0.49945351533047955  1.0000
  C   C12       1.0  0.9952160455793262  0.9956112491657194  0.2021313003115494  1.0000
  C   C13       1.0  0.00020196938523739114  0.40587199854203965  0.4970806769465881  1.0000
  C   C14       1.0  0.9899947829552646  0.6041616939922533  0.49272376741149065  1.0000
  C   C15       1.0  0.09024228266263619  0.4454626171968598  0.4320571192067746  1.0000
  C   C16       1.0  0.8999250312803327  0.5646918052833172  0.5573577307986356  1.0000
  C   C17       1.0  0.0856970179259946  0.5433312276680623  0.428288573526821  1.0000
  C   C18       1.0  0.9041955770807703  0.4671929205021358  0.5606467974655018  1.0000
  C   C19       1.0  0.4065445417189293  0.9980735622255567  0.10024235380248558  1.0000
  C   C20       1.0  0.5968560132547155  0.9964152588212161  0.9084082218534065  1.0000
  C   C21       1.0  0.4571435255445381  0.07878916930324924  0.04925997705992562  1.0000
  C   C22       1.0  0.5453068499258222  0.916626797958216  0.9583846462856302  1.0000
  C   C23       1.0  0.5508286857560093  0.07836366799413941  0.9553665072609194  1.0000
  C   C24       1.0  0.4523700265893709  0.9162580607228962  0.05306985163808506  1.0000
  C   C25       1.0  0.9931497523454954  0.994487335728372  0.9113072348267083  1.0000
  C   C26       1.0  0.9958982658220281  0.9922173806406323  0.10232528455933487  1.0000
  C   C27       1.0  0.9090455849474637  0.07028398714312832  0.9661034143761783  1.0000
  C   C28       1.0  0.08028556998504398  0.916579637788189  0.04736399404455224  1.0000
  C   C29       1.0  0.9091900349313279  0.06919835544908186  0.06041032283960136  1.0000
  C   C30       1.0  0.0792999144384795  0.9166821391986201  0.9539558642105208  1.0000
  C   C31       1.0  0.4067315122059014  0.598524918246561  0.4962429770904677  1.0000
  C   C32       1.0  0.59794918951512  0.40782394041836045  0.5008506979431574  1.0000
  C   C33       1.0  0.45687702852792705  0.5455509293352705  0.41797293754705583  1.0000
  C   C34       1.0  0.5465883140860939  0.45950623272761243  0.5803909030327787  1.0000
  C   C35       1.0  0.5512050587704138  0.452668232781825  0.4189123112029521  1.0000
  C   C36       1.0  0.4537299920361806  0.5538880799317168  0.5779718780488423  1.0000
  C   C37       1.0  0.986497086769255  0.6025758411390781  0.9130112326313267  1.0000
  C   C38       1.0  0.9975987530144291  0.5035467904941557  0.9075044409642958  1.0000
  C   C39       1.0  0.9717823249206888  0.6065043343736818  0.01135076061517276  1.0000
  C   C40       1.0  0.007381169029940794  0.4981316485764395  0.8094351063171744  1.0000
  C   C41       1.0  0.017015148070790003  0.40171849802214865  0.8068458114076763  1.0000
  C   C42       1.0  0.9873955409669363  0.4115848249957639  0.10354855580371947  1.0000
  C   C43       1.0  0.9719469384063756  0.5100825706842187  0.10773782520300304  1.0000
  C   C44       1.0  0.9982542130231308  0.4061709605953538  0.004533156183143016  1.0000
  C   C45       1.0  0.00903125911850815  0.30794196925126016  0.9985650316157121  1.0000
  C   C46       1.0  0.018015387169185524  0.3058285525631136  0.9021441234898405  1.0000
  C   C47       1.0  0.4073099819312206  0.993734982257003  0.49864823778089107  1.0000
  C   C48       1.0  0.5946425483758375  0.0017997781576610972  0.498210764050576  1.0000
  C   C49       1.0  0.45428852604214126  0.9180665991142264  0.582616038052045  1.0000
  C   C50       1.0  0.5463766806862084  0.07883630339748748  0.41536167532129303  1.0000
  C   C51       1.0  0.5459282772468159  0.9214492737136978  0.5833872136077289  1.0000
  C   C52       1.0  0.455085973995544  0.07509665043132692  0.41425276506593894  1.0000
  N   N1        1.0  0.1979218621392107  0.3813989995846897  0.369283587814337  1.0000
  N   N2        1.0  0.7927670243652756  0.6279041878076723  0.6212985510778636  1.0000
  N   N3        1.0  0.4138368661388299  0.16993273482726323  0.09175285818277248  1.0000
  N   N4        1.0  0.585234311327248  0.8291348433051271  0.9122233709680287  1.0000
  N   N5        1.0  0.8156155819736238  0.1576284164564469  0.9262699301928169  1.0000
  N   N6        1.0  0.17691438888149946  0.8334053379894685  0.08388640874322559  1.0000
  N   N7        1.0  0.41136602243356896  0.5841536996224548  0.3304138641290209  1.0000
  N   N8        1.0  0.5866170848868321  0.41513783905045204  0.6736268855928246  1.0000
  N   N9        1.0  0.4092074066464092  0.8292914144852475  0.6757395620850345  1.0000
  N   N10       1.0  0.5885780328648879  0.17054724498255786  0.32509919016874284  1.0000
  Cl  Cl1       1.0  0.9479714311609015  0.5184695040057079  0.23041999821386125  1.0000
  Cl  Cl2       1.0  0.9485175228372285  0.7289839549312944  0.019665088098740482  1.0000
  O   O1        1.0  0.9164840575376803  0.740408440956237  0.5737779834416726  1.0000
  O   O2        1.0  0.26468355783879355  0.0740167081700919  0.24008621921426956  1.0000
  O   O3        1.0  0.0757449595486861  0.2653498945574313  0.42121317690074994  1.0000
  O   O4        1.0  0.7372445210865731  0.9221980086837361  0.7670916018148475  1.0000
  O   O5        1.0  0.07123647765347821  0.7375806656677424  0.7694815328947159  1.0000
  O   O6        1.0  0.738103717551894  0.07503180236862067  0.42073109382388213  1.0000
  O   O7        1.0  0.9150044425426104  0.2683556416359138  0.2443971458562828  1.0000
  O   O8        1.0  0.26635411341190707  0.9177563074233674  0.5745436942251629  1.0000
  O   O9        1.0  0.2653728942146997  0.7386247535592005  0.42106497397772097  1.0000
  O   O10       1.0  0.9198119736301039  0.071102913761834  0.7689062087275929  1.0000
  O   O11       1.0  0.74078325395611  0.26870485786263704  0.5744520941393815  1.0000
  O   O12       1.0  0.07181372499178458  0.9199562736138701  0.24160535088479668  1.0000
  O   O13       1.0  0.07447260377892909  0.9191365007947353  0.7688862034909788  1.0000
  O   O14       1.0  0.7354363075666156  0.2673850866850884  0.42417223128074966  1.0000
  O   O15       1.0  0.9196619177153594  0.07453613811728133  0.238238449758029  1.0000
  O   O16       1.0  0.265512571388953  0.7359490081957175  0.5760035901914407  1.0000
  O   O17       1.0  0.9151724831378799  0.7430350937430246  0.7691261049216606  1.0000
  O   O18       1.0  0.2681683897639502  0.07115490080067836  0.4203890368765927  1.0000
  O   O19       1.0  0.07104128268692013  0.2683300236361248  0.23939016170668034  1.0000
  O   O20       1.0  0.734048174310921  0.9235038610980908  0.5765302237321066  1.0000
  O   O21       1.0  0.7365306194849239  0.07544592955132151  0.7684768592035667  1.0000
  O   O22       1.0  0.07074702436063511  0.7400906129913523  0.42046572808800425  1.0000
  O   O23       1.0  0.2660061273391818  0.9201726336429062  0.2392578024156009  1.0000
  O   O24       1.0  0.9233434344443125  0.2650981364676852  0.5763690920103386  1.0000
  O   O25       1.0  0.7968043284578243  0.06840646096539155  0.5686778195826322  1.0000
  O   O26       1.0  0.06782519058847203  0.0661214992341144  0.5687656368505857  1.0000
  O   O27       1.0  0.06605213266367115  0.06797054391896039  0.29855578632144397  1.0000
  O   O28       1.0  0.06542075218275285  0.7969466117050531  0.5689553253230316  1.0000
  O   O29       1.0  0.14730084221426415  0.9499062418731867  0.45190285860464036  1.0000
  O   O30       1.0  0.9488908531896314  0.9508710066990886  0.4516310897370417  1.0000
  O   O31       1.0  0.9500760729671216  0.14846060461766092  0.452012987088118  1.0000
  O   O32       1.0  0.9494923849875077  0.9503352220685458  0.6498195052700949  1.0000
  O   O33       1.0  0.2526455878589714  0.2971554882161129  0.42598726455624103  1.0000
  O   O34       1.0  0.22600503611189982  0.41901638767459554  0.26752233858418617  1.0000
  O   O35       1.0  0.7681143776973156  0.592376779437238  0.7228024132165631  1.0000
  O   O36       1.0  0.7350698972181604  0.709142000740414  0.5659693533357667  1.0000
  O   O37       1.0  0.3464079214839941  0.2564931101940431  0.053533911574639596  1.0000
  O   O38       1.0  0.4530572004633412  0.1525931654336503  0.157905674029081  1.0000
  O   O39       1.0  0.5474993575460089  0.8540707103316406  0.8415771390183764  1.0000
  O   O40       1.0  0.6480820152895533  0.7384526125559603  0.95143308490416  1.0000
  O   O41       1.0  0.8289260763954615  0.2477775552319271  0.8616898441680548  1.0000
  O   O42       1.0  0.73110700668677  0.13425595350052777  0.9653602953278835  1.0000
  O   O43       1.0  0.25621252857308713  0.8645076955431676  0.046759897162459735  1.0000
  O   O44       1.0  0.17162345098181206  0.7396451575280311  0.1436645482589823  1.0000
  O   O45       1.0  0.34081609618043984  0.5460708378162733  0.35574923586593593  1.0000
  O   O46       1.0  0.45136073502636975  0.6462966852748693  0.23892990214203982  1.0000
  O   O47       1.0  0.55074701182032  0.34356408435206015  0.7573729392811616  1.0000
  O   O48       1.0  0.6477725120496345  0.45724445543879705  0.6615394349699456  1.0000
  O   O49       1.0  0.33946002936918507  0.8515444936026954  0.7605704776116086  1.0000
  O   O50       1.0  0.4485309145080548  0.7393985814005503  0.6622953067839388  1.0000
  O   O51       1.0  0.5526276174622637  0.255885759148768  0.34588904857976394  1.0000
  O   O52       1.0  0.6522285435733437  0.15565676512635934  0.23564330769569614  1.0000
