data_image0
_chemical_formula_structural       Zn4H66C91N16O8
_chemical_formula_sum              "Zn4 H66 C91 N16 O8"
_cell_length_a       19.389259990330945
_cell_length_b       19.494589491189146
_cell_length_c       20.244472349487914
_cell_angle_alpha    107.79399908148818
_cell_angle_beta     104.99799401339601
_cell_angle_gamma    113.55194964898004

_space_group_name_H-M_alt    "P 1"
_space_group_IT_number       1

loop_
  _space_group_symop_operation_xyz
  'x, y, z'

loop_
  _atom_site_type_symbol
  _atom_site_label
  _atom_site_symmetry_multiplicity
  _atom_site_fract_x
  _atom_site_fract_y
  _atom_site_fract_z
  _atom_site_occupancy
  Zn  Zn1       1.0  0.10054864002712091  0.08928251842705491  0.48936866360117665  1.0000
  Zn  Zn2       1.0  0.8793023081107949  0.886430836719889  0.5047506901073222  1.0000
  Zn  Zn3       1.0  0.9836287495396335  0.8844788529896307  0.39693157975229115  1.0000
  Zn  Zn4       1.0  0.006756074869940696  0.09137891150464128  0.5996487437479489  1.0000
  H   H1        1.0  0.18912847874444344  0.12329868271582002  0.37364756568676694  1.0000
  H   H2        1.0  0.7212325473036644  0.3977692745979412  0.44664603203040815  1.0000
  H   H3        1.0  0.7244638978104594  0.8710434543139204  0.5527224157517383  1.0000
  H   H4        1.0  0.7400350855984997  0.282453255952241  0.4557186160888025  1.0000
  H   H5        1.0  0.8221920780092519  0.21131322211157066  0.45460985953079114  1.0000
  H   H6        1.0  0.10278458380603452  0.4492818134566436  0.42048924823807016  1.0000
  H   H7        1.0  0.08295943943952015  0.5639984424919078  0.40958878520632436  1.0000
  H   H8        1.0  0.44983955885425797  0.07175384009659068  0.44598998969151904  1.0000
  H   H9        1.0  0.5849477094277021  0.08519215939689671  0.4674599223451923  1.0000
  H   H10       1.0  0.6989998734692834  0.06724291873513978  0.5316401927462451  1.0000
  H   H11       1.0  0.8792493337955919  0.9084859769314166  0.2651566916188133  1.0000
  H   H12       1.0  0.810513378421405  0.6897047513674722  0.48409783720017446  1.0000
  H   H13       1.0  0.6852889241657467  0.9656218546753622  0.6920593430591853  1.0000
  H   H14       1.0  0.5701538681149644  0.940188110091647  0.7326948726378081  1.0000
  H   H15       1.0  0.43553205785116245  0.9321161360265011  0.7160152885083167  1.0000
  H   H16       1.0  0.2046473162620616  0.43605503832292675  0.7834130241026717  1.0000
  H   H17       1.0  0.6201273704649072  0.7815188554609808  0.27142920204121895  1.0000
  H   H18       1.0  0.50631878248074  0.5605613377556224  0.8492958623256188  1.0000
  H   H19       1.0  0.6227011681705648  0.8306812047055557  0.04586045637051944  1.0000
  H   H20       1.0  0.40478937068947124  0.4182380334530791  0.7408069944175326  1.0000
  H   H21       1.0  0.8958993738594574  0.16285895347100884  0.5363408103247594  1.0000
  H   H22       1.0  0.5436071232892845  0.6746098788143586  0.9604955401049867  1.0000
  H   H23       1.0  0.14777216051570724  0.1018715547052693  0.7341074738830715  1.0000
  H   H24       1.0  0.30603899347605107  0.5765776504498917  0.8934162387462412  1.0000
  H   H25       1.0  0.4897987881417337  0.7015427308093791  0.1512995092951074  1.0000
  H   H26       1.0  0.11753030789913065  0.8574818424218621  0.17203792540913562  1.0000
  H   H27       1.0  0.22644901217469032  0.085776322996395  0.8297122649336404  1.0000
  H   H28       1.0  0.046238895909340265  0.818480094993852  0.7124835166695721  1.0000
  H   H29       1.0  0.13882409464303458  0.8851420884556092  0.96904749942798  1.0000
  H   H30       1.0  0.2719597242877327  0.13173740060786804  0.17371118136493646  1.0000
  H   H31       1.0  0.2714378013438008  0.07975103792194463  0.9515851119248144  1.0000
  H   H32       1.0  0.22104205677197095  0.1263122888822892  0.2722606467460268  1.0000
  H   H33       1.0  0.16811656940976172  0.8632241777811843  0.07322999780172529  1.0000
  H   H34       1.0  0.9903697798214568  0.8293184182971063  0.5998010778883018  1.0000
  H   H35       1.0  0.09043574803401112  0.812963510926082  0.8348787764679958  1.0000
  H   H36       1.0  0.03006678064971884  0.17224980056294475  0.39506808653531084  1.0000
  H   H37       1.0  0.8803898884603356  0.14239370068369792  0.6579993824684538  1.0000
  H   H38       1.0  0.03262434762935856  0.8512952808346556  0.24251088314047575  1.0000
  H   H39       1.0  0.2762256174628775  0.29092469763775614  0.6043192656092204  1.0000
  H   H40       1.0  0.21403799458699535  0.8125417881089093  0.5086018216048488  1.0000
  H   H41       1.0  0.21840340523553456  0.833202303909616  0.42848114586374236  1.0000
  H   H42       1.0  0.13936834003384058  0.7328961244459224  0.41173205559069725  1.0000
  H   H43       1.0  0.11926796815441072  0.33192650306296667  0.5501130963594536  1.0000
  H   H44       1.0  0.15580184427751217  0.4312028592397469  0.5473488787994756  1.0000
  H   H45       1.0  0.26324351178953986  0.11501022115656669  0.6035652909896003  1.0000
  H   H46       1.0  0.19119121529906383  0.3626085560660783  0.5093726428127783  1.0000
  H   H47       1.0  0.25650891983353574  0.009115619028449401  0.6851588189270574  1.0000
  H   H48       1.0  0.36173557199096973  0.05165132459679712  0.7535690752618083  1.0000
  H   H49       1.0  0.27595936650316594  0.9602903758821953  0.743861999818684  1.0000
  H   H50       1.0  0.34227789182306634  0.041019502096304415  0.4336956611521431  1.0000
  H   H51       1.0  0.7257680735766243  0.9701439552281031  0.09900390323059584  1.0000
  H   H52       1.0  0.7556577568342888  0.8963050300572135  0.06045974292032246  1.0000
  H   H53       1.0  0.8341601726799797  0.0020544202530601006  0.13363514643200602  1.0000
  H   H54       1.0  0.4329432981253591  0.7854740338443379  0.11055346447331273  1.0000
  H   H55       1.0  0.3234657113490871  0.7071062516716894  0.05657848614216481  1.0000
  H   H56       1.0  0.14141498624049834  0.2854956697853482  0.7446890663251795  1.0000
  H   H57       1.0  0.3756583114523267  0.7704075246634547  0.016777265608233383  1.0000
  H   H58       1.0  0.656643340434485  0.9313125688805997  0.3400756463094866  1.0000
  H   H59       1.0  0.7403750647474469  0.007709787861969602  0.43476118752109033  1.0000
  H   H60       1.0  0.6437973694030178  0.9280527458051608  0.42414324039224044  1.0000
  H   H61       1.0  0.40721782539086604  0.0650136872635656  0.09242101639128464  1.0000
  H   H62       1.0  0.3864853791409147  0.10477790942557162  0.17277644467456818  1.0000
  H   H63       1.0  0.42816938376221714  0.1710743474695633  0.13101895929288798  1.0000
  H   H64       1.0  0.9521971978898591  0.6990377528716181  0.3501397708161633  1.0000
  H   H65       1.0  0.0017892938340154797  0.6339526652004538  0.41030417856386264  1.0000
  H   H66       1.0  0.7707289491008568  0.5281753711014263  0.4304244166828398  1.0000
  C   C1        1.0  0.14481877990900222  0.0563034838357481  0.34980272823766273  1.0000
  C   C2        1.0  0.21723576352970045  0.048395469084106  0.5658748591769297  1.0000
  C   C3        1.0  0.1634882623936563  0.27296249784065213  0.7007777877430147  1.0000
  C   C4        1.0  0.7746550025814116  0.9362479789421273  0.5783858678251549  1.0000
  C   C5        1.0  0.9178079582613211  0.7088174451358358  0.38299904998011425  1.0000
  C   C6        1.0  0.2357813233719028  0.32704588799507656  0.6979654466763352  1.0000
  C   C7        1.0  0.8793584182944799  0.6603680070758955  0.4158876826920024  1.0000
  C   C8        1.0  0.23009550712431107  0.980395590793002  0.5452931484838363  1.0000
  C   C9        1.0  0.0904859581531596  0.9613989538077449  0.6947575274609293  1.0000
  C   C10       1.0  0.9540631773484238  0.583981695122084  0.4147566325181346  1.0000
  C   C11       1.0  0.8846284821294861  0.5885013640731316  0.41870877627314973  1.0000
  C   C12       1.0  0.7732582004149792  0.010077651322184503  0.6107615060656502  1.0000
  C   C13       1.0  0.8254093243225001  0.5258841388823969  0.4278749661153898  1.0000
  C   C14       1.0  0.8343861400158519  0.45937087060953985  0.4330632889415897  1.0000
  C   C15       1.0  0.9052766017165866  0.4554004440897047  0.42874288589252546  1.0000
  C   C16       1.0  0.8535225814083988  0.9064712571592822  0.30663807939065907  1.0000
  C   C17       1.0  0.9656923850622123  0.5190478335427215  0.4194907009981464  1.0000
  C   C18       1.0  0.7752155616663289  0.3947163953092243  0.44290452829206134  1.0000
  C   C19       1.0  0.7857033125539203  0.33086501183368716  0.44800025626550194  1.0000
  C   C20       1.0  0.8564247101452835  0.325704762010787  0.444019001861655  1.0000
  C   C21       1.0  0.9164975823170212  0.3894840303751793  0.4346304998363239  1.0000
  C   C22       1.0  0.9887005983778396  0.38755165699780764  0.4322307264060047  1.0000
  C   C23       1.0  0.7734534159910212  0.8898458213587902  0.2990628474066526  1.0000
  C   C24       1.0  0.048531561905868235  0.45221087053766956  0.4230546384384797  1.0000
  C   C25       1.0  0.03717442963942131  0.5150552308595452  0.416726452184186  1.0000
  C   C26       1.0  0.8690888134502617  0.26113444801080726  0.4491633279910874  1.0000
  C   C27       1.0  0.9398318058677547  0.25815540809760773  0.4473766083244116  1.0000
  C   C28       1.0  0.9311087487542127  0.1550011469793873  0.5037094556960185  1.0000
  C   C29       1.0  0.9996950803593024  0.32282952007424365  0.439962934343008  1.0000
  C   C30       1.0  0.35089570284534943  0.9689190765754178  0.6169476380959653  1.0000
  C   C31       1.0  0.3126296363991943  0.9885375550361247  0.5624348496825251  1.0000
  C   C32       1.0  0.3539050431080142  0.0156989296827703  0.5192773088921926  1.0000
  C   C33       1.0  0.4326725608802918  0.0250728652071999  0.5301064549292392  1.0000
  C   C34       1.0  0.9542557209944745  0.19331846810096923  0.45812004819934066  1.0000
  C   C35       1.0  0.4696305917275793  0.0033888896714984  0.584983972915545  1.0000
  C   C36       1.0  0.4286568334602167  0.9748271723850481  0.6287046505312975  1.0000
  C   C37       1.0  0.47639321584370714  0.054372151378835616  0.48815674530910524  1.0000
  C   C38       1.0  0.5525185045202862  0.06256210535023851  0.4999248415535933  1.0000
  C   C39       1.0  0.5906627145548031  0.04037363887027821  0.5537927199319699  1.0000
  C   C40       1.0  0.7776329961672134  0.8961746376322425  0.3716830746070487  1.0000
  C   C41       1.0  0.5479775069653742  0.009842128859588701  0.5958347458220035  1.0000
  C   C42       1.0  0.584103056375895  0.9849059855633657  0.6480777825691393  1.0000
  C   C43       1.0  0.541716781575147  0.9575872477744838  0.6917139084280141  1.0000
  C   C44       1.0  0.46740125205758454  0.9531436823908948  0.6827135927158354  1.0000
  C   C45       1.0  0.23312295290164542  0.2754514552383398  0.6300829652916351  1.0000
  C   C46       1.0  0.6668042965705255  0.04454598608933221  0.5641693983546932  1.0000
  C   C47       1.0  0.6999355574010269  0.015497421349245104  0.6117800279469281  1.0000
  C   C48       1.0  0.6588163159112244  0.9868198009314073  0.6538667244858448  1.0000
  C   C49       1.0  0.2968834744787047  0.4147788755876647  0.7553862416099977  1.0000
  C   C50       1.0  0.2711758682520938  0.4627955450890227  0.798442589158846  1.0000
  C   C51       1.0  0.3280963521862149  0.5425546742153459  0.8600845250643164  1.0000
  C   C52       1.0  0.0005913053615174122  0.16051355210413482  0.43242329328388973  1.0000
  C   C53       1.0  0.4148384636259622  0.5790598888242684  0.8818181065018111  1.0000
  C   C54       1.0  0.43975893876692146  0.5333812597472161  0.8346922038603568  1.0000
  C   C55       1.0  0.3824918319321641  0.45318359306518374  0.7732579564511115  1.0000
  C   C56       1.0  0.8451864472946726  0.7036394432671429  0.4507947260312904  1.0000
  C   C57       1.0  0.6227889743243297  0.820987358107061  0.09605994731953169  1.0000
  C   C58       1.0  0.696241076510738  0.8677147912741106  0.16491533589513116  1.0000
  C   C59       1.0  0.6205683706346294  0.7944805872558051  0.22279719994446626  1.0000
  C   C60       1.0  0.5470977492997164  0.749342000484006  0.15533597872325083  1.0000
  C   C61       1.0  0.5480776787468289  0.7596894946767564  0.08988137569851778  1.0000
  C   C62       1.0  0.47960400957243376  0.6555043882453903  0.9523150092327914  1.0000
  C   C63       1.0  0.47352884311729343  0.6985957289566259  0.015444504868050043  1.0000
  C   C64       1.0  0.8532639778171075  0.07450614762638712  0.6300988889518139  1.0000
  C   C65       1.0  0.6972152463640172  0.8532436027917784  0.2295634782401736  1.0000
  C   C66       1.0  0.16335370097945662  0.9911492170165203  0.229242902142751  1.0000
  C   C67       1.0  0.1486052429960766  0.9104947073884517  0.4942365021155981  1.0000
  C   C68       1.0  0.1508959334126915  0.9180466238896586  0.17256643037735145  1.0000
  C   C69       1.0  0.1796520115880469  0.9212320709089284  0.11671161482851743  1.0000
  C   C70       1.0  0.2224356006512948  0.9978398048163938  0.11484010823244256  1.0000
  C   C71       1.0  0.23933441313312906  0.07169311541796473  0.1741865347393557  1.0000
  C   C72       1.0  0.21013905915280873  0.06822487891552953  0.2295651511580133  1.0000
  C   C73       1.0  0.2226606287070041  0.022237040665885402  0.8992536207241888  1.0000
  C   C74       1.0  0.19658657116478656  0.02519378424578631  0.8300652469948422  1.0000
  C   C75       1.0  0.0961194853356917  0.8762059606663686  0.7645432205803433  1.0000
  C   C76       1.0  0.06579054252224395  0.9176989703069227  0.28352232270626854  1.0000
  C   C77       1.0  0.12125564792707187  0.8730666559904565  0.8337720921913816  1.0000
  C   C78       1.0  0.10215667583373293  0.036478547399575206  0.6919616167328544  1.0000
  C   C79       1.0  0.18212387120607337  0.9465365957148181  0.9039006801561134  1.0000
  C   C80       1.0  0.24110062716768252  0.003299042590576601  0.04991152530351432  1.0000
  C   C81       1.0  0.18950715355581585  0.9423931463638978  0.975669373588737  1.0000
  C   C82       1.0  0.12974753720439486  0.9535565677128447  0.7618319829764747  1.0000
  C   C83       1.0  0.1276635224523376  0.9880599765671364  0.28426675761669895  1.0000
  C   C84       1.0  0.17683732028157825  0.8008455750467152  0.45086577451765947  1.0000
  C   C85       1.0  0.13791098613751276  0.3649503389296029  0.5166227061634603  1.0000
  C   C86       1.0  0.3007523314190907  0.9935434432763729  0.7129265828898287  1.0000
  C   C87       1.0  0.7706889282616417  0.9496921858376055  0.11282864215414176  1.0000
  C   C88       1.0  0.3822292322561582  0.7386059246321609  0.05253523757255616  1.0000
  C   C89       1.0  0.0216112595401157  0.8974991224959936  0.6236870198473741  1.0000
  C   C90       1.0  0.6881710979634335  0.9418760969765927  0.39897630920287974  1.0000
  C   C91       1.0  0.3861459584432368  0.1063297553370788  0.11878376224370876  1.0000
  N   N1        1.0  0.09731024273521881  0.028733892424568804  0.3846250058385935  1.0000
  N   N2        1.0  0.8991035012799955  0.9182963479205526  0.3763380221889748  1.0000
  N   N3        1.0  0.9627220611108813  0.10497333150789252  0.505871869597492  1.0000
  N   N4        1.0  0.8524701929591388  0.912755018737016  0.41689369633505907  1.0000
  N   N5        1.0  0.005145569401761908  0.1082495899340472  0.4617351703550627  1.0000
  N   N6        1.0  0.8986627842799351  0.0414535173999511  0.61094397893406  1.0000
  N   N7        1.0  0.0478453295263463  0.9423275422291227  0.34325874450884447  1.0000
  N   N8        1.0  0.16435494438291443  0.19753208175508524  0.5952803479062896  1.0000
  N   N9        1.0  0.8631431988641014  0.772807804520035  0.44034863594643553  1.0000
  N   N10       1.0  0.09300021685696437  0.9358646876391957  0.4866824381117782  1.0000
  N   N11       1.0  0.04378952115695261  0.017696611371128802  0.6254923341621538  1.0000
  N   N12       1.0  0.9944097937308529  0.9325423107053866  0.5834792142164462  1.0000
  N   N13       1.0  0.13562055352780794  0.021367774945638  0.5308594897929455  1.0000
  N   N14       1.0  0.12150138714666532  0.19617135816821477  0.6397454060848278  1.0000
  N   N15       1.0  0.9084243257179312  0.7756761572296326  0.3977628036612232  1.0000
  N   N16       1.0  0.8493206361589289  0.9551426086628539  0.5779147325836295  1.0000
  O   O1        1.0  0.11757475079761556  0.8270854033490523  0.452012778889362  1.0000
  O   O2        1.0  0.07168935563483106  0.32398176668684203  0.4401383802571462  1.0000
  O   O3        1.0  0.31099925404691237  0.9366662199692329  0.6568283556283705  1.0000
  O   O4        1.0  0.31213996491198515  0.0304354341680195  0.464643796084495  1.0000
  O   O5        1.0  0.7708048248870797  0.9283438289041472  0.17428684997068453  1.0000
  O   O6        1.0  0.3965581261411871  0.673081926013424  0.016340938723182357  1.0000
  O   O7        1.0  0.7188137798200743  0.8855193553454941  0.39888715481959747  1.0000
  O   O8        1.0  0.30472074381909664  0.0807277215814182  0.06560283163918976  1.0000
