data_image0
_chemical_formula_structural       Zn4H43C68IN16
_chemical_formula_sum              "Zn4 H43 C68 I1 N16"
_cell_length_a       17.00746121368741
_cell_length_b       17.011218564628958
_cell_length_c       18.77655883162385
_cell_angle_alpha    106.12993949545853
_cell_angle_beta     115.78030303270378
_cell_angle_gamma    102.3667975752322

_space_group_name_H-M_alt    "P 1"
_space_group_IT_number       1

loop_
  _space_group_symop_operation_xyz
  'x, y, z'

loop_
  _atom_site_type_symbol
  _atom_site_label
  _atom_site_symmetry_multiplicity
  _atom_site_fract_x
  _atom_site_fract_y
  _atom_site_fract_z
  _atom_site_occupancy
  Zn  Zn1       1.0  0.6002472248704648  0.0946072453664044  0.993495185353801  1.0000
  Zn  Zn2       1.0  0.38940294368466477  0.8858733040580375  0.9993766974320905  1.0000
  Zn  Zn3       1.0  0.6175522090729614  0.9879633889851361  0.11645592292065024  1.0000
  Zn  Zn4       1.0  0.36804810763874213  0.002504559787823305  0.8852236301459513  1.0000
  H   H1        1.0  0.64536211643734  0.9760556774221952  0.8617968979836945  1.0000
  H   H2        1.0  0.33252092269993466  0.036422887199016395  0.5846936953765153  1.0000
  H   H3        1.0  0.5972015894881436  0.2622501155835337  0.7616190171330857  1.0000
  H   H4        1.0  0.3957785797743865  0.7149679790575616  0.8762694829527575  1.0000
  H   H5        1.0  0.5950021815988149  0.2855147721398552  0.6371634700701349  1.0000
  H   H6        1.0  0.6213028882522806  0.22397138010314419  0.5311015551525601  1.0000
  H   H7        1.0  0.6299270945368532  0.193231567014294  0.40008885551717543  1.0000
  H   H8        1.0  0.32539119417358353  0.09492777023655209  0.24107528432350725  1.0000
  H   H9        1.0  0.3173108177223725  0.1277010946573327  0.37289761938992433  1.0000
  H   H10       1.0  0.24092846891399927  0.4482669982072167  0.6222660624419163  1.0000
  H   H11       1.0  0.3417610241596588  0.5873320746150198  0.7545524000202944  1.0000
  H   H12       1.0  0.333043005768161  0.006136624195647801  0.12227056626012711  1.0000
  H   H13       1.0  0.3031897974919031  0.7342468906032095  0.5965501413866647  1.0000
  H   H14       1.0  0.20002764147145055  0.5950469897749784  0.46464980817441415  1.0000
  H   H15       1.0  0.15269626033634148  0.45602269342456475  0.3589501363856087  1.0000
  H   H16       1.0  0.6717604590652969  0.8460074451321588  0.21005930024253416  1.0000
  H   H17       1.0  0.006068877258499573  0.3328589275842546  0.23317280359580653  1.0000
  H   H18       1.0  0.9369006099379006  0.2629899266602677  0.4083811651048349  1.0000
  H   H19       1.0  0.08310707093190924  0.3850874579757927  0.5335279647030617  1.0000
  H   H20       1.0  0.6700611802988662  0.7010060343157036  0.16225715057721155  1.0000
  H   H21       1.0  0.33668774529824924  0.4514407811561511  0.12800233651948636  1.0000
  H   H22       1.0  0.6916936282220406  0.5636462867388162  0.16812925056493105  1.0000
  H   H23       1.0  0.8338050648282191  0.11972788993138289  0.28827349673770203  1.0000
  H   H24       1.0  0.34538678603725254  0.30496181949107637  0.10146215686983605  1.0000
  H   H25       1.0  0.6192229573309761  0.4089726148234405  0.13444361061326046  1.0000
  H   H26       1.0  0.02900853409046495  0.8076672864010063  0.9454367415917699  1.0000
  H   H27       1.0  0.32045914147005305  0.0545392147116388  0.7139579088752939  1.0000
  H   H28       1.0  0.9717208504212138  0.9151650181960777  0.7537408451174842  1.0000
  H   H29       1.0  0.9113690170332233  0.7682543309113468  0.9868148554938613  1.0000
  H   H30       1.0  0.8210045671970148  0.9110794930704883  0.7425013281085882  1.0000
  H   H31       1.0  0.7785449240123935  0.7919732878224791  0.9975292262400826  1.0000
  H   H32       1.0  0.7208165074344776  0.9002955033648802  0.8063564298422392  1.0000
  H   H33       1.0  0.3688429383926106  0.7036031169869901  0.03450818866132723  1.0000
  H   H34       1.0  0.13722477912290273  0.9702988664199238  0.8079678467364744  1.0000
  H   H35       1.0  0.6265069166474573  0.17076815003365203  0.8545291575452652  1.0000
  H   H36       1.0  0.35910576745889916  0.8653108558081186  0.7197905878280578  1.0000
  H   H37       1.0  0.6711332475193859  0.8346031623597554  0.02541974929078348  1.0000
  H   H38       1.0  0.6356782374656973  0.27360292688869947  0.1365157489329718  1.0000
  H   H39       1.0  0.1680945268812192  0.8086504883927433  0.9525497360106883  1.0000
  H   H40       1.0  0.8194401329534244  0.26290652026461453  0.12817603066711306  1.0000
  H   H41       1.0  0.32859895515364446  0.16160096792376777  0.9929030716495929  1.0000
  H   H42       1.0  0.6384213893673447  0.14671424382571263  0.2761034898642833  1.0000
  H   H43       1.0  0.33033127949008173  0.05937424734774769  0.4606438153125651  1.0000
  C   C1        1.0  0.6442614466947061  0.9480933515106215  0.9069491699374694  1.0000
  C   C2        1.0  0.8084122036273199  0.21660582044939491  0.1560317283900686  1.0000
  C   C3        1.0  0.4037615108064046  0.17556717171226674  0.021747336926637235  1.0000
  C   C4        1.0  0.3901569019181397  0.763437120296892  0.848916557700065  1.0000
  C   C5        1.0  0.5645556163248528  0.1043556996607222  0.22761621906187202  1.0000
  C   C6        1.0  0.48229605183775703  0.25593662995709815  0.08291389786237599  1.0000
  C   C7        1.0  0.48300974544895325  0.09861476213657737  0.2320539465352239  1.0000
  C   C8        1.0  0.8678448333371592  0.2205720428333322  0.23852036792005288  1.0000
  C   C9        1.0  0.10891666413911574  0.8799421178787696  0.8698196418278242  1.0000
  C   C10       1.0  0.3881593728184427  0.10564307505170233  0.5266247333696371  1.0000
  C   C11       1.0  0.38954708800204674  0.09240258618982011  0.5968183740427405  1.0000
  C   C12       1.0  0.3664031268302707  0.754861985749379  0.7644920604020627  1.0000
  C   C13       1.0  0.46634524470785255  0.1459763241782426  0.6826722565585968  1.0000
  C   C14       1.0  0.5388140380496933  0.2169589688175009  0.6954230995151747  1.0000
  C   C15       1.0  0.5373918615077286  0.23011349525453537  0.6250037027110055  1.0000
  C   C16       1.0  0.5964583000019061  0.8227962477250941  0.16316400102941475  1.0000
  C   C17       1.0  0.46352977905273457  0.17299101917051024  0.5386185336934943  1.0000
  C   C18       1.0  0.5559384670303942  0.19733482604548414  0.4677607914994086  1.0000
  C   C19       1.0  0.5607101172990383  0.1793562880067583  0.3932060602691719  1.0000
  C   C20       1.0  0.4781714752604812  0.1370471217727527  0.309357016735575  1.0000
  C   C21       1.0  0.39099179167163806  0.12328401097184377  0.30456801855397236  1.0000
  C   C22       1.0  0.3862716566161524  0.1413953208151639  0.37922612399349026  1.0000
  C   C23       1.0  0.5229037098820726  0.7421215770672374  0.13292379214415456  1.0000
  C   C24       1.0  0.4683138694170594  0.17429450614794462  0.4623393261361812  1.0000
  C   C25       1.0  0.25351717029853654  0.5110890185124859  0.6162618055211553  1.0000
  C   C26       1.0  0.311284874002048  0.5899966100831192  0.6911894841252462  1.0000
  C   C27       1.0  0.3265727483721789  0.672774062934053  0.6867681091640137  1.0000
  C   C28       1.0  0.39625159828558737  0.0784909930710853  0.7592889423087357  1.0000
  C   C29       1.0  0.2903726488379943  0.6717751425034918  0.6031629618001871  1.0000
  C   C30       1.0  0.23237738096320726  0.5927430660720107  0.5281471417465582  1.0000
  C   C31       1.0  0.20818517619468924  0.5108362343241309  0.5330636541311122  1.0000
  C   C32       1.0  0.10538555082164433  0.41404405475928735  0.37031269421564167  1.0000
  C   C33       1.0  0.022374410284378032  0.3445989807763253  0.29916820559483165  1.0000
  C   C34       1.0  0.4714767179430977  0.12454534665310753  0.754277889183207  1.0000
  C   C35       1.0  0.9593147631180657  0.2891788972178447  0.310993849535734  1.0000
  C   C36       1.0  0.9851752970808078  0.3037910239675128  0.3970635925577992  1.0000
  C   C37       1.0  0.06803482757018026  0.37266276454921154  0.4678397993829649  1.0000
  C   C38       1.0  0.1292416088933237  0.4308697975773512  0.4563718541996877  1.0000
  C   C39       1.0  0.5324294555207133  0.6638694579610913  0.14815193867381277  1.0000
  C   C40       1.0  0.441893236315309  0.7505902760218673  0.07456994623992597  1.0000
  C   C41       1.0  0.48270523850064256  0.34501611105299906  0.11382584316233847  1.0000
  C   C42       1.0  0.39888431456295587  0.4424758057123697  0.1295601193855447  1.0000
  C   C43       1.0  0.4038601640917819  0.3601085263664672  0.11447660931600012  1.0000
  C   C44       1.0  0.5577025966223275  0.41776015409297423  0.13484575001631063  1.0000
  C   C45       1.0  0.5603361393638622  0.2331482319860783  0.09398134657356388  1.0000
  C   C46       1.0  0.5540470113474569  0.5024077358535024  0.14878973251227026  1.0000
  C   C47       1.0  0.471231090512525  0.515753962901897  0.1433820023918813  1.0000
  C   C48       1.0  0.46501837220500863  0.5989746822485742  0.14680316579762834  1.0000
  C   C49       1.0  0.6160562406636884  0.649723386695328  0.15907478415330434  1.0000
  C   C50       1.0  0.6277016518317992  0.5730456923211378  0.16126919454161026  1.0000
  C   C51       1.0  0.013395830393143474  0.8643129844929122  0.8531217738936762  1.0000
  C   C52       1.0  0.5521600824658888  0.1389631956525363  0.831566900829209  1.0000
  C   C53       1.0  0.7421406758983691  0.8520407674948629  0.905305676039518  1.0000
  C   C54       1.0  0.8696103651954699  0.7973196326526804  0.9473972023834633  1.0000
  C   C55       1.0  0.7950401727399022  0.8103704571709469  0.9529425456203312  1.0000
  C   C56       1.0  0.4088099369246052  0.03321817026006359  0.14898119161730244  1.0000
  C   C57       1.0  0.7616425557588753  0.8707405502813117  0.8458016209582907  1.0000
  C   C58       1.0  0.8389205326139759  0.8597483621488777  0.8397516378186936  1.0000
  C   C59       1.0  0.897230982759737  0.8259050711259877  0.8944950119254644  1.0000
  C   C60       1.0  0.9831539702592733  0.8289066287782842  0.8994560921780631  1.0000
  C   C61       1.0  0.9510736758491021  0.8908105410103317  0.7935235241398645  1.0000
  C   C62       1.0  0.8665723103140408  0.8882106436312893  0.7867930156817166  1.0000
  C   C63       1.0  0.371416193652365  0.84008576806972  0.7691761842794094  1.0000
  C   C64       1.0  0.6580976067688126  0.8765035241428123  0.990807901319222  1.0000
  C   C65       1.0  0.6798973281515687  0.8850379921549064  0.9283199162266274  1.0000
  C   C66       1.0  0.8150573589244133  0.14446269895457678  0.23817774336506398  1.0000
  C   C67       1.0  0.15976786489898123  0.9333418485892437  0.8464567870464279  1.0000
  C   C68       1.0  0.17564823950065978  0.8516175883149515  0.9206358540325894  1.0000
  I   I1        1.0  0.3497525836133946  0.6232325966230761  0.15206872844514402  1.0000
  N   N1        1.0  0.6066441382753494  0.9754737203966002  0.9543812045719875  1.0000
  N   N2        1.0  0.5618471858441367  0.8747044480350965  0.12640644052884661  1.0000
  N   N3        1.0  0.42948928779244955  0.0669675176812561  0.8333901287037263  1.0000
  N   N4        1.0  0.4655358407226729  0.8293824147948288  0.07112050772341413  1.0000
  N   N5        1.0  0.5267075356811045  0.10418113213200539  0.8783173059917501  1.0000
  N   N6        1.0  0.3941928178924952  0.8933338149618492  0.8492108473385969  1.0000
  N   N7        1.0  0.6150067629327792  0.9313772999270922  0.005938828656453993  1.0000
  N   N8        1.0  0.5298389419132903  0.1468737561682403  0.04216438370482226  1.0000
  N   N9        1.0  0.4444384282778628  0.002201503994505999  0.10078707032935333  1.0000
  N   N10       1.0  0.7316834425876451  0.09925828067070337  0.16201030160277696  1.0000
  N   N11       1.0  0.24900175421760176  0.9364145436284161  0.8807358223189823  1.0000
  N   N12       1.0  0.25853606476758945  0.8852529097683897  0.9267709072625435  1.0000
  N   N13       1.0  0.7270762024560897  0.14418776526588317  0.11072902446309743  1.0000
  N   N14       1.0  0.4336005341345907  0.1114244678904086  0.9974955196187876  1.0000
  N   N15       1.0  0.5400397384067402  0.0458253949705707  0.1490653700517796  1.0000
  N   N16       1.0  0.4056631286148472  0.8461921563598479  0.8980552301336503  1.0000
