data_image0
_chemical_formula_structural       Cd2H56C56S8N20
_chemical_formula_sum              "Cd2 H56 C56 S8 N20"
_cell_length_a       11.003232118104092
_cell_length_b       12.750989593043068
_cell_length_c       13.75734771871525
_cell_angle_alpha    69.44743406266274
_cell_angle_beta     66.44832146045658
_cell_angle_gamma    64.44750527931613

_space_group_name_H-M_alt    "P 1"
_space_group_IT_number       1

loop_
  _space_group_symop_operation_xyz
  'x, y, z'

loop_
  _atom_site_type_symbol
  _atom_site_label
  _atom_site_symmetry_multiplicity
  _atom_site_fract_x
  _atom_site_fract_y
  _atom_site_fract_z
  _atom_site_occupancy
  Cd  Cd1       1.0  0.7364081921350306  0.7499943058049396  0.24986410454976501  1.0000
  Cd  Cd2       1.0  0.2635906067336506  0.2500080689084569  0.7501345465146656  1.0000
  H   H1        1.0  0.8162583665266891  0.6911010314713479  0.018598644653927642  1.0000
  H   H2        1.0  0.5265825999929205  0.80888697775233  0.4812782494852357  1.0000
  H   H3        1.0  0.18374001583904934  0.3089004440248075  0.9814019507560872  1.0000
  H   H4        1.0  0.47341996909982237  0.1911109354940095  0.5187232592895796  1.0000
  H   H5        1.0  0.4346745447698693  0.8886032049764626  0.20294901002319674  1.0000
  H   H6        1.0  0.5264017907644674  0.6114741849207803  0.2969806691385982  1.0000
  H   H7        1.0  0.5653246566231545  0.1113965004008648  0.7970498391703559  1.0000
  H   H8        1.0  0.4735975753335354  0.388526393459294  0.7030214609136964  1.0000
  H   H9        1.0  0.4557692874406455  0.8456197657526874  0.8984209584182636  1.0000
  H   H10       1.0  0.20023435635506112  0.6546657110712246  0.6015106019733096  1.0000
  H   H11       1.0  0.544231989125386  0.15437994015493933  0.10157779874077029  1.0000
  H   H12       1.0  0.7997647009484866  0.345335762854063  0.39849031110549055  1.0000
  H   H13       1.0  0.31388087779521356  0.9264932559789186  0.06890663954843032  1.0000
  H   H14       1.0  0.3094868687520672  0.5736882841492488  0.431082019771118  1.0000
  H   H15       1.0  0.6861207649141576  0.07350734390305293  0.9310912183058803  1.0000
  H   H16       1.0  0.6905128634892819  0.4263131882051708  0.5689192109764606  1.0000
  H   H17       1.0  0.7188921386093908  0.5237909809455417  0.966167195501413  1.0000
  H   H18       1.0  0.20900952627339808  0.9762908088919956  0.5337865916525075  1.0000
  H   H19       1.0  0.2811105381918325  0.4762087270632591  0.03383115195431691  1.0000
  H   H20       1.0  0.79099061548159  0.023709778403009807  0.4662137659868364  1.0000
  H   H21       1.0  0.7369405820458182  0.17397793992959273  0.1255870714111965  1.0000
  H   H22       1.0  0.03636152752276441  0.3261063251185305  0.3745490896348613  1.0000
  H   H23       1.0  0.26305951633887054  0.8260244263991723  0.8744132600316661  1.0000
  H   H24       1.0  0.9636344638862225  0.6738942611158762  0.62545145207352  1.0000
  H   H25       1.0  0.6425604999414747  0.7307124997441932  0.7318574118139338  1.0000
  H   H26       1.0  0.10589297844872227  0.7691378317714662  0.7680156991491528  1.0000
  H   H27       1.0  0.3574388731458241  0.2692898629125438  0.26814364700101123  1.0000
  H   H28       1.0  0.8941078816143747  0.23086097491891874  0.23198500235546507  1.0000
  H   H29       1.0  0.9302582690094069  0.3711869496436436  0.8190995889335895  1.0000
  H   H30       1.0  0.12052032855068978  0.1289715446575315  0.6810707911067978  1.0000
  H   H31       1.0  0.06974335972137888  0.6288100816850175  0.18090041139542734  1.0000
  H   H32       1.0  0.8794809913856338  0.8710263822163427  0.3189279922487174  1.0000
  H   H33       1.0  0.7789570768744413  0.7816079805971154  0.7820296697868444  1.0000
  H   H34       1.0  0.34333420558365896  0.7185813174422082  0.7178118183877159  1.0000
  H   H35       1.0  0.22104519041314322  0.21839261247109215  0.21796955077712  1.0000
  H   H36       1.0  0.656665519668387  0.28141837063555636  0.28219048359721205  1.0000
  H   H37       1.0  0.8357312069012227  0.6380035111884083  0.8621687456127848  1.0000
  H   H38       1.0  0.3362508181267146  0.862320545097937  0.6377335505899495  1.0000
  H   H39       1.0  0.1642703784592641  0.36199529917400497  0.13783122851974383  1.0000
  H   H40       1.0  0.6637506735038771  0.1376800390553399  0.36226744238696545  1.0000
  H   H41       1.0  0.6225519060680398  0.3661741069841824  0.9220354554878369  1.0000
  H   H42       1.0  0.9109132475199855  0.133697773693072  0.5781714953310201  1.0000
  H   H43       1.0  0.3774497366413386  0.6338264928977962  0.07796240236648097  1.0000
  H   H44       1.0  0.08908599724333756  0.8663001526505028  0.42182738005901393  1.0000
  H   H45       1.0  0.6026095380735086  0.375732137890317  0.05468372128078879  1.0000
  H   H46       1.0  0.032962226022803555  0.1242571038029538  0.4454003052108674  1.0000
  H   H47       1.0  0.3973910705440175  0.6242693538648396  0.9453136469721031  1.0000
  H   H48       1.0  0.9670372771753862  0.8757399217525119  0.5546008321935361  1.0000
  H   H49       1.0  0.9790032227558428  0.026842794122039507  0.12510355498720566  1.0000
  H   H50       1.0  0.13079684130313035  0.47329302380058647  0.3749558583005452  1.0000
  H   H51       1.0  0.02099583454769798  0.9731586798032482  0.8748973580915871  1.0000
  H   H52       1.0  0.8691996169683875  0.5267084668939646  0.6250416940213839  1.0000
  H   H53       1.0  0.18484105549279684  0.05961214804309381  0.966655940692611  1.0000
  H   H54       1.0  0.21117653678915382  0.4404967869809652  0.5333978752126214  1.0000
  H   H55       1.0  0.8151580451810433  0.9403875468484345  0.033344998582670614  1.0000
  H   H56       1.0  0.78882058943087  0.5595029178660625  0.46660106601544277  1.0000
  C   C1        1.0  0.7051282312707484  0.7435701631744889  0.026304990607748525  1.0000
  C   C2        1.0  0.47546682189929595  0.7565369477160219  0.47358168766307074  1.0000
  C   C3        1.0  0.2948715947004883  0.2564295353890742  0.9736952212954507  1.0000
  C   C4        1.0  0.5245353880393963  0.24346185583262786  0.5264196491791111  1.0000
  C   C5        1.0  0.6474240946001828  0.7609889347681147  0.9456931873038811  1.0000
  C   C6        1.0  0.3545703505511284  0.739229115960555  0.5541829112164507  1.0000
  C   C7        1.0  0.35257573137105425  0.2390107637954486  0.05430702459931786  1.0000
  C   C8        1.0  0.6454307749361233  0.26077057421837674  0.4458189810651804  1.0000
  C   C9        1.0  0.49223034299359375  0.8534446708540101  0.12925390174792997  1.0000
  C   C10       1.0  0.4751802233190786  0.6466623051351306  0.3706709062480655  1.0000
  C   C11       1.0  0.5077705170694956  0.1465541358363751  0.870746799756688  1.0000
  C   C12       1.0  0.5248191931385194  0.35333827848784694  0.629330178763368  1.0000
  C   C13       1.0  0.504452827916488  0.8284146235891185  0.9601987496411224  1.0000
  C   C14       1.0  0.29345895884693385  0.6718178875199925  0.5397029853235651  1.0000
  C   C15       1.0  0.49554808949548595  0.1715859726208251  0.03979983558527787  1.0000
  C   C16       1.0  0.7065421666403113  0.3281818026589391  0.46029890695806597  1.0000
  C   C17       1.0  0.8603739939332584  0.49011268029921234  0.1853770727168539  1.0000
  C   C18       1.0  0.5359771471885537  0.009818708696713  0.3145945548558445  1.0000
  C   C19       1.0  0.13962735182092703  0.5098994458164512  0.8146280889807613  1.0000
  C   C20       1.0  0.46401265329551233  0.9901880860508141  0.6854094652253834  1.0000
  C   C21       1.0  0.42575682970169026  0.8744025583816963  0.05349616827214018  1.0000
  C   C22       1.0  0.35396414855946284  0.6257407232936245  0.4464631233902452  1.0000
  C   C23       1.0  0.5742450714425477  0.1255971407121663  0.94650395159654  1.0000
  C   C24       1.0  0.6460352175385324  0.37425985508644993  0.5535390066620567  1.0000
  C   C25       1.0  0.828765426734712  0.1851662110171404  0.0575890776548534  1.0000
  C   C26       1.0  0.07144185138155731  0.3149152651514484  0.4425222670755744  1.0000
  C   C27       1.0  0.17123372429871642  0.8148334891172835  0.9424108165795672  1.0000
  C   C28       1.0  0.9285520648544291  0.6850853205526589  0.5574783666673255  1.0000
  C   C29       1.0  0.6486185636649253  0.5693495303597088  0.8334160771192599  1.0000
  C   C30       1.0  0.051827886314605394  0.9305217791425378  0.6665683090225443  1.0000
  C   C31       1.0  0.3513823537470556  0.43065106585022755  0.16658250810714048  1.0000
  C   C32       1.0  0.9481733329025346  0.0694761372455375  0.3334325644147071  1.0000
  C   C33       1.0  0.9348402810091091  0.2945868375996028  0.8873333536053992  1.0000
  C   C34       1.0  0.11675704421756458  0.20551861835560453  0.6127768794523121  1.0000
  C   C35       1.0  0.06515954496212839  0.7054128609639605  0.11266685829779993  1.0000
  C   C36       1.0  0.883245360170207  0.7944784218879944  0.3872213484637542  1.0000
  C   C37       1.0  0.8133107372248246  0.28403653858249106  0.9710495325937673  1.0000
  C   C38       1.0  0.06836624778488001  0.21603399839419524  0.5290488188153687  1.0000
  C   C39       1.0  0.1866891391060079  0.7159631652239752  0.02894963426856385  1.0000
  C   C40       1.0  0.9316325874648044  0.7839648130087866  0.4709509296828927  1.0000
  C   C41       1.0  0.7410231371694992  0.711310989390988  0.8451017277310058  1.0000
  C   C42       1.0  0.29797751156787183  0.7888806105872985  0.6547949369144349  1.0000
  C   C43       1.0  0.25897907975848966  0.28868959843431696  0.15489853787382665  1.0000
  C   C44       1.0  0.70202433921677  0.21111908326366796  0.3452062279951137  1.0000
  C   C45       1.0  0.672022196745431  0.3789987206146179  0.9706787368949534  1.0000
  C   C46       1.0  0.02176355259688027  0.12098468753165999  0.529413029079059  1.0000
  C   C47       1.0  0.3279784118720883  0.6210027711405317  0.029318631357945477  1.0000
  C   C48       1.0  0.9782355914472589  0.8790132283261158  0.470587936392704  1.0000
  C   C49       1.0  0.9624975166738209  0.10289604011352077  0.05782585926721856  1.0000
  C   C50       1.0  0.12318776126100774  0.39721140533769267  0.4422337409575833  1.0000
  C   C51       1.0  0.03750163435961479  0.8971036600209104  0.9421740349671949  1.0000
  C   C52       1.0  0.876808690021214  0.602788301080203  0.5577648826017025  1.0000
  C   C53       1.0  0.07768044051036357  0.1209388943877485  0.9709286747577435  1.0000
  C   C54       1.0  0.16955245297130966  0.37917566032661654  0.5291504537719972  1.0000
  C   C55       1.0  0.9223192917309788  0.8790625779666782  0.029072555989834853  1.0000
  C   C56       1.0  0.8304432800028112  0.6208258266958993  0.4708478259220146  1.0000
  S   S1        1.0  0.8769494105576996  0.4138756528258867  0.10503621470934396  1.0000
  S   S2        1.0  0.3959091422106907  0.0859815928798184  0.394893006677087  1.0000
  S   S3        1.0  0.12305998801677044  0.5861196136468791  0.8949610359275793  1.0000
  S   S4        1.0  0.6040791800737966  0.9140207686962751  0.6051081946416589  1.0000
  S   S5        1.0  0.578057435134667  0.5346255758312851  0.7646224243045339  1.0000
  S   S6        1.0  0.8778340155635644  0.9650222429321502  0.7354315645268841  1.0000
  S   S7        1.0  0.4219442145640001  0.46537680832734923  0.23537436231242737  1.0000
  S   S8        1.0  0.12216548763462505  0.034974782623315506  0.2645695728775194  1.0000
  N   N1        1.0  0.8491059147614235  0.5452726623213521  0.24458966627457826  1.0000
  N   N2        1.0  0.6391783082088195  0.9547472125690107  0.25539160305903863  1.0000
  N   N3        1.0  0.15090293933854346  0.45471997990027535  0.7553987868269587  1.0000
  N   N4        1.0  0.36081285092706866  0.04525158989901  0.7446098762869439  1.0000
  N   N5        1.0  0.6296789615904712  0.7890580245514304  0.11564140491002926  1.0000
  N   N6        1.0  0.5347141070916095  0.7110163907040601  0.38427296086482  1.0000
  N   N7        1.0  0.3703215393185674  0.21094167244127252  0.8843591246619482  1.0000
  N   N8        1.0  0.4652884620011336  0.28898152254227943  0.6157285479099955  1.0000
  N   N9        1.0  0.6827984253559478  0.49673206198028896  0.924609795182299  1.0000
  N   N10       1.0  0.104369316513136  0.003292891847962702  0.5754406882088502  1.0000
  N   N11       1.0  0.31720461758862945  0.5032685400028498  0.07538765296871477  1.0000
  N   N12       1.0  0.8956312277662021  0.9967050261109803  0.4245598675596156  1.0000
  N   N13       1.0  0.06368621801092915  0.2148113077782909  0.8871966876168215  1.0000
  N   N14       1.0  0.1656304073524524  0.28534257858432  0.6129024629421167  1.0000
  N   N15       1.0  0.9363146490414564  0.78518928318875  0.1128029426504398  1.0000
  N   N16       1.0  0.8343681191027772  0.7146571283638821  0.38709606858265055  1.0000
  N   N17       1.0  0.6717646506224993  0.6742389769162429  0.7991754033104357  1.0000
  N   N18       1.0  0.14578544390236206  0.8257281669590097  0.7007405694699003  1.0000
  N   N19       1.0  0.3282379828084317  0.32576251012631013  0.20082291794881266  1.0000
  N   N20       1.0  0.8542160910985288  0.1742706381605075  0.29926044970349625  1.0000
