data_image0
_chemical_formula_structural       Mn4H40C20O28
_chemical_formula_sum              "Mn4 H40 C20 O28"
_cell_length_a       7.017994229906276
_cell_length_b       9.536424544663527
_cell_length_c       12.21029883890016
_cell_angle_alpha    102.18040440324123
_cell_angle_beta     95.21793389495235
_cell_angle_gamma    94.57423148517768

_space_group_name_H-M_alt    "P 1"
_space_group_IT_number       1

loop_
  _space_group_symop_operation_xyz
  'x, y, z'

loop_
  _atom_site_type_symbol
  _atom_site_label
  _atom_site_symmetry_multiplicity
  _atom_site_fract_x
  _atom_site_fract_y
  _atom_site_fract_z
  _atom_site_occupancy
  Mn  Mn1       1.0  0.5455338909431262  0.21410502296681946  0.4167424360361379  1.0000
  Mn  Mn2       1.0  0.45423650355374423  0.785730652223144  0.5832357005649698  1.0000
  Mn  Mn3       1.0  0.1801463272929169  0.26064320595012447  0.21581260779213807  1.0000
  Mn  Mn4       1.0  0.8195094230204774  0.7390306646910999  0.7842406152077569  1.0000
  H   H1        1.0  0.7025036353966031  0.1649161626330411  0.6166211623513431  1.0000
  H   H2        1.0  0.2974618212710212  0.8350456012764622  0.3833434869569102  1.0000
  H   H3        1.0  0.8813579351530976  0.15734443276443238  0.537398086733674  1.0000
  H   H4        1.0  0.11857517036781928  0.842671318276821  0.462536016141719  1.0000
  H   H5        1.0  0.17526458306689108  0.12120662106059393  0.400856861768112  1.0000
  H   H6        1.0  0.825110193787019  0.8791646456912755  0.5992118466898332  1.0000
  H   H7        1.0  0.2821404140173911  0.016101712006310696  0.3006343855953375  1.0000
  H   H8        1.0  0.7182639482216687  0.9841995028895381  0.6993621487505662  1.0000
  H   H9        1.0  0.9874192187281496  0.42073047830965027  0.38319486555900534  1.0000
  H   H10       1.0  0.012449421329854696  0.5793003269431054  0.6168200687525099  1.0000
  H   H11       1.0  0.2054827912994952  0.46156815492653885  0.4346273400819385  1.0000
  H   H12       1.0  0.7944612403870579  0.5382879596673786  0.5652973991082462  1.0000
  H   H13       1.0  0.4238108378074798  0.13847215601207094  0.05662776823962899  1.0000
  H   H14       1.0  0.576082616467147  0.861512218453967  0.9434169062862664  1.0000
  H   H15       1.0  0.29267447957882814  0.002782093135934399  0.0705926478529761  1.0000
  H   H16       1.0  0.7072992122965117  0.9970999290426117  0.9292962327615581  1.0000
  H   H17       1.0  0.1575127292950711  0.4847783024823613  0.09119380632434829  1.0000
  H   H18       1.0  0.8425102721402808  0.5151034093074144  0.9089475323680742  1.0000
  H   H19       1.0  0.9801547726748795  0.36550334891543196  0.04521153794021867  1.0000
  H   H20       1.0  0.01987911527144347  0.6344118610006076  0.9548687716999777  1.0000
  H   H21       1.0  0.7971149403944224  0.17587727064843503  0.11298357345020085  1.0000
  H   H22       1.0  0.20291351947618347  0.8239798457647535  0.8869607250265544  1.0000
  H   H23       1.0  0.8108768649404466  0.1166157248414095  0.22688894692846867  1.0000
  H   H24       1.0  0.18889523673906436  0.8832415415786625  0.7730715532752652  1.0000
  H   H25       1.0  0.7780083572875468  0.47617640168927244  0.18036256302215747  1.0000
  H   H26       1.0  0.22197604917338512  0.5238511259929624  0.819621354670886  1.0000
  H   H27       1.0  0.9722586619659807  0.6337594834158576  0.3269133320924808  1.0000
  H   H28       1.0  0.027748395814882098  0.36627771697421707  0.67308899088313  1.0000
  H   H29       1.0  0.9450736447978798  0.876872871788194  0.28083666976681326  1.0000
  H   H30       1.0  0.05495262110601119  0.12312445551083327  0.7191208195884327  1.0000
  H   H31       1.0  0.94915975294316  0.73143792141164  0.1648514395933844  1.0000
  H   H32       1.0  0.05077208649240821  0.2685486943465278  0.8350941650074971  1.0000
  H   H33       1.0  0.7221892616366931  0.8800608961153172  0.1121399388973501  1.0000
  H   H34       1.0  0.2777451281921799  0.11991489994434089  0.8878343232776585  1.0000
  H   H35       1.0  0.6361101256817463  0.630931339996941  0.04098156214548248  1.0000
  H   H36       1.0  0.36385825355681334  0.3690357292818048  0.9590611089311734  1.0000
  H   H37       1.0  0.43950095294163555  0.4722087586599526  0.12928604483649755  1.0000
  H   H38       1.0  0.5604373356047815  0.5278132807734647  0.8708115416657022  1.0000
  H   H39       1.0  0.41417661772429426  0.6153191927640832  0.24323828302639322  1.0000
  H   H40       1.0  0.5858646556067627  0.38473298673756057  0.7568543914100089  1.0000
  C   C1        1.0  0.6944780537309754  0.5368005389300946  0.24379544291198835  1.0000
  C   C2        1.0  0.3055515443898287  0.4632247625423531  0.7562241761374295  1.0000
  C   C3        1.0  0.8303376160469328  0.6692597778529077  0.3065902824995135  1.0000
  C   C4        1.0  0.16967710100603736  0.3307698814389468  0.6933989331038716  1.0000
  C   C5        1.0  0.8616432447676416  0.7781773972183216  0.23095334150158914  1.0000
  C   C6        1.0  0.1383491813846263  0.22182425636091804  0.7690136441057545  1.0000
  C   C7        1.0  0.6755122872815279  0.8174664042526985  0.17280030505429522  1.0000
  C   C8        1.0  0.3244421890958904  0.18253200233662167  0.8271992702167592  1.0000
  C   C9        1.0  0.5507812566158776  0.68046207725245  0.10799061951496469  1.0000
  C   C10       1.0  0.4491815828441474  0.31952657671413925  0.8920446616507147  1.0000
  C   C11       1.0  0.5116310458010034  0.5729743146126721  0.18182442844517507  1.0000
  C   C12       1.0  0.4883538038776649  0.4270401901714679  0.8182310736359496  1.0000
  C   C13       1.0  0.6432600971180735  0.43069584594289967  0.3157666930163856  1.0000
  C   C14       1.0  0.3567931718271283  0.5693035594065277  0.6842466806056746  1.0000
  C   C15       1.0  0.7707109428735707  0.743148054177908  0.41943541694624986  1.0000
  C   C16       1.0  0.22931061883378592  0.256980870831363  0.5805222376224107  1.0000
  C   C17       1.0  0.5637613930188933  0.9179786034690591  0.2512912885985584  1.0000
  C   C18       1.0  0.43621737441174696  0.08207915551394508  0.7486694618933283  1.0000
  C   C19       1.0  0.36597835661770256  0.7127887761964684  0.045791257850865505  1.0000
  C   C20       1.0  0.6339939640913814  0.2871642875519668  0.9542337581775229  1.0000
  O   O1        1.0  0.48669426661724197  0.34680989427940273  0.2890515893918248  1.0000
  O   O2        1.0  0.5134420581415213  0.6530913911886032  0.7108789153144172  1.0000
  O   O3        1.0  0.7570229602387927  0.4156077011310373  0.39996103434354774  1.0000
  O   O4        1.0  0.2429504371606654  0.5844585855605968  0.600095011592927  1.0000
  O   O5        1.0  0.6051948066235296  0.7067585450401309  0.4456360012412404  1.0000
  O   O6        1.0  0.3948246378382336  0.2934706646998038  0.55434955299998  1.0000
  O   O7        1.0  0.8937551740492111  0.8389680785171335  0.4827819530908285  1.0000
  O   O8        1.0  0.1063208315229573  0.16119757316470637  0.5170954925607061  1.0000
  O   O9        1.0  0.6498272047071225  0.04262013792747871  0.29954230396520387  1.0000
  O   O10       1.0  0.3501990780464155  0.9574192471031042  0.7004237652858833  1.0000
  O   O11       1.0  0.3905116090785654  0.8777003699653887  0.26171242690525526  1.0000
  O   O12       1.0  0.6093699945217566  0.12247940093904927  0.738192672691433  1.0000
  O   O13       1.0  0.375237841014318  0.8170624915802305  0.9940757495233042  1.0000
  O   O14       1.0  0.6247225217423705  0.18287549775730128  0.005932196955868098  1.0000
  O   O15       1.0  0.21122891808747107  0.633038273972943  0.04254806126533589  1.0000
  O   O16       1.0  0.7887797028016338  0.36689857262734893  0.9574893824191972  1.0000
  O   O17       1.0  0.7401836418930189  0.16725796662097278  0.5412911771742444  1.0000
  O   O18       1.0  0.2597706797350909  0.8327372408100117  0.45867510195495936  1.0000
  O   O19       1.0  0.24532877224287122  0.11679054658741708  0.3299248727363206  1.0000
  O   O20       1.0  0.7555290112059723  0.8836644152732444  0.6702555148887794  1.0000
  O   O21       1.0  0.1232269612081538  0.4202924720523811  0.36425422603991814  1.0000
  O   O22       1.0  0.8766147032878279  0.5796532072687978  0.6356976716650278  1.0000
  O   O23       1.0  0.3024910005275885  0.10854770044652179  0.08723147950158248  1.0000
  O   O24       1.0  0.6973850344311004  0.8913375250108896  0.9127450947217781  1.0000
  O   O25       1.0  0.10084907652824877  0.3885771235324709  0.09939535725617787  1.0000
  O   O26       1.0  0.8991399807823016  0.611305721657281  0.9007164524209158  1.0000
  O   O27       1.0  0.8875093830284442  0.165503338800896  0.17827375106426047  1.0000
  O   O28       1.0  0.1124518769112939  0.8341985072428528  0.8216608753875221  1.0000
