data_image0
_chemical_formula_structural       Cd2H38C36N8O12
_chemical_formula_sum              "Cd2 H38 C36 N8 O12"
_cell_length_a       8.6265972380982
_cell_length_b       11.616402494159338
_cell_length_c       11.499328294193255
_cell_angle_alpha    65.21549341589551
_cell_angle_beta     69.61442073777505
_cell_angle_gamma    79.06481121750072

_space_group_name_H-M_alt    "P 1"
_space_group_IT_number       1

loop_
  _space_group_symop_operation_xyz
  'x, y, z'

loop_
  _atom_site_type_symbol
  _atom_site_label
  _atom_site_symmetry_multiplicity
  _atom_site_fract_x
  _atom_site_fract_y
  _atom_site_fract_z
  _atom_site_occupancy
  Cd  Cd1       1.0  0.19577151802790382  0.8847478494983175  0.34904260160822553  1.0000
  Cd  Cd2       1.0  0.8042274089127305  0.11525162719008353  0.6509602346123274  1.0000
  H   H1        1.0  0.5003183624706438  0.7205521218992174  0.9391398933955986  1.0000
  H   H2        1.0  0.49967807493034394  0.2794473843805036  0.060861851903965175  1.0000
  H   H3        1.0  0.8854896239922639  0.47008582830495976  0.6889410224990726  1.0000
  H   H4        1.0  0.11450681340872389  0.5299136779747613  0.311060722800491  1.0000
  H   H5        1.0  0.6704108053195413  0.3617467417904336  0.8958425362718002  1.0000
  H   H6        1.0  0.3295855806013961  0.638253713867698  0.1041588254917798  1.0000
  H   H7        1.0  0.9497126653882475  0.8030001034694292  0.22298275839742843  1.0000
  H   H8        1.0  0.05028251966888318  0.19699942317254937  0.7770175714772236  1.0000
  H   H9        1.0  0.7837397224852224  0.6540682208400523  0.44484824978968623  1.0000
  H   H10       1.0  0.2162605294632485  0.3459293589956473  0.555153289070084  1.0000
  H   H11       1.0  0.40896157855794263  0.6277106638651515  0.297755062071083  1.0000
  H   H12       1.0  0.5910397849041261  0.3722888221980865  0.7022427753195475  1.0000
  H   H13       1.0  0.018491573523562004  0.8818887411171373  0.8504136143968921  1.0000
  H   H14       1.0  0.9815083543965385  0.11811454612220017  0.1495838833181296  1.0000
  H   H15       1.0  0.853792965345761  0.8785140954401668  0.9961917710697323  1.0000
  H   H16       1.0  0.14620453208877393  0.12148826644549619  0.003805889224707909  1.0000
  H   H17       1.0  0.8768651299421178  0.4479210527721093  0.1777584160644068  1.0000
  H   H18       1.0  0.12313988605323802  0.5520793605489229  0.822237194314056  1.0000
  H   H19       1.0  0.7028820932548355  0.5490127798769249  0.13708277393619298  1.0000
  H   H20       1.0  0.2971205800669949  0.4509848204668072  0.8629120261648141  1.0000
  H   H21       1.0  0.4417477118065918  0.9165958439350207  0.019817976523299235  1.0000
  H   H22       1.0  0.558247393012536  0.08340556476398579  0.9801841961726296  1.0000
  H   H23       1.0  0.5486027841685797  0.8542604131751544  0.448122344549333  1.0000
  H   H24       1.0  0.451396297212213  0.14573621537801532  0.5518816422791702  1.0000
  H   H25       1.0  0.30137612499093785  0.9142963841487982  0.8366482213444827  1.0000
  H   H26       1.0  0.6986202170239793  0.085705015321146  0.16335362684752405  1.0000
  H   H27       1.0  0.8717163372679765  0.6861002071569613  0.9495190976008843  1.0000
  H   H28       1.0  0.1282861452817201  0.3139011795672103  0.05047590828501575  1.0000
  H   H29       1.0  0.07550443933981649  0.6449374999787523  0.9689419802238036  1.0000
  H   H30       1.0  0.9244979039177893  0.35506672374745557  0.03105361498297301  1.0000
  H   H31       1.0  0.6244840096929848  0.42056700368561195  0.3790222868239327  1.0000
  H   H32       1.0  0.3755185167627245  0.5794334392267473  0.620972232633541  1.0000
  H   H33       1.0  0.800163477366567  0.4626576563185195  0.3964371413907699  1.0000
  H   H34       1.0  0.19984033019095904  0.5373418335529576  0.6035565671343549  1.0000
  H   H35       1.0  0.8547544999932056  0.9676940813642291  0.4474791587111966  1.0000
  H   H36       1.0  0.145244308839267  0.032307305214168004  0.5525211705085553  1.0000
  H   H37       1.0  0.9571953429343837  0.0879608317885427  0.36463670586054053  1.0000
  H   H38       1.0  0.042806102303849514  0.9120376826299008  0.6353649949237409  1.0000
  C   C1        1.0  0.8181905286215141  0.6557522210048318  0.6967643100527353  1.0000
  C   C2        1.0  0.18181093176478674  0.3442462822804301  0.30323913066037284  1.0000
  C   C3        1.0  0.5649624232475645  0.5316486621569183  0.9365089329383168  1.0000
  C   C4        1.0  0.4350364597870496  0.4683517583432958  0.06349438971066235  1.0000
  C   C5        1.0  0.9621468210509078  0.7159398937003444  0.5770346666146723  1.0000
  C   C6        1.0  0.03785455152335261  0.28406049720853577  0.4229697469553032  1.0000
  C   C7        1.0  0.7102093140801315  0.8666330319582228  0.7232837008820427  1.0000
  C   C8        1.0  0.2897921750641217  0.13336453864840792  0.27671751347380535  1.0000
  C   C9        1.0  0.582438289547625  0.6629689391748029  0.8861073319197673  1.0000
  C   C10       1.0  0.4175594001972129  0.3370305467426603  0.1138958288047078  1.0000
  C   C11       1.0  0.704904426049872  0.7253612185954097  0.7682874788343027  1.0000
  C   C12       1.0  0.2950945084647926  0.2746382525263939  0.23171622735066688  1.0000
  C   C13       1.0  0.7997377559472625  0.5250408618913198  0.7440301439138324  1.0000
  C   C14       1.0  0.20026117099337176  0.4749586147970746  0.25597269230672026  1.0000
  C   C15       1.0  0.6767089325945221  0.46400284754636084  0.8616379814153704  1.0000
  C   C16       1.0  0.3232887571503157  0.5359966383711023  0.13836517930910477  1.0000
  C   C17       1.0  0.06541048017259504  0.8338085484835952  0.1447679128556701  1.0000
  C   C18       1.0  0.9345834237827262  0.16619193119925765  0.8552332279513308  1.0000
  C   C19       1.0  0.6702478860505822  0.6780481596707161  0.4164582563177817  1.0000
  C   C20       1.0  0.32975358037158037  0.321949427635701  0.5835403481448225  1.0000
  C   C21       1.0  0.4773120832103786  0.6639137507748881  0.33753340372495455  1.0000
  C   C22       1.0  0.5226905174474794  0.33608572605928083  0.6624641091617534  1.0000
  C   C23       1.0  0.9743511984533694  0.8335960075541702  0.9598675336243335  1.0000
  C   C24       1.0  0.025645069359406105  0.1664063579939565  0.04013132113843912  1.0000
  C   C25       1.0  0.7948766324128015  0.5298840902972086  0.19101509697632924  1.0000
  C   C26       1.0  0.2051247159011993  0.47011540689921105  0.80898100048546  1.0000
  C   C27       1.0  0.3182545391122886  0.8931635578509612  0.03595203683074292  1.0000
  C   C28       1.0  0.6817405657068392  0.10683785084804495  0.9640501358651864  1.0000
  C   C29       1.0  0.5543304622612553  0.7775874193669878  0.41606076694699107  1.0000
  C   C30       1.0  0.4456685373433587  0.22241018083097683  0.5839393564878677  1.0000
  C   C31       1.0  0.2516987623699052  0.8917635818489553  0.9437899299315761  1.0000
  C   C32       1.0  0.7482963939292733  0.10823687747163997  0.05621262630033631  1.0000
  C   C33       1.0  0.9547336023149954  0.6939233042844036  0.9999802839956474  1.0000
  C   C34       1.0  0.0452651247413058  0.306079053938781  1.6181830453383892e-05  1.0000
  C   C35       1.0  0.7096920066271794  0.49652117027972753  0.3404667024642692  1.0000
  C   C36       1.0  0.2903105713085878  0.5034783232542209  0.6595282005291878  1.0000
  N   N1        1.0  0.43515757897727525  0.7674192383460008  0.36649069164558784  1.0000
  N   N2        1.0  0.5648426139171079  0.2325792964347001  0.6335095937137751  1.0000
  N   N3        1.0  0.6188117374552463  0.606858819140605  0.3671628532712107  1.0000
  N   N4        1.0  0.3811908556285815  0.3931406632601551  0.6328337896510803  1.0000
  N   N5        1.0  0.200565093964407  0.8566584714023904  0.1608300194163875  1.0000
  N   N6        1.0  0.7994288251389748  0.14334199714728163  0.8391728613194475  1.0000
  N   N7        1.0  0.09168530593266411  0.8537892371846638  0.01453634240649394  1.0000
  N   N8        1.0  0.9083110285082229  0.1462121678518713  0.9854646358211027  1.0000
  O   O1        1.0  0.8846866760381789  0.639526519671726  0.14237368987793536  1.0000
  O   O2        1.0  0.11531209492413551  0.3604748947396529  0.8576222895197319  1.0000
  O   O3        1.0  0.995852901364927  0.6912715218305009  0.4734562281812772  1.0000
  O   O4        1.0  0.004146976613284905  0.30873362519949404  0.5265465922126964  1.0000
  O   O5        1.0  0.048719007264821805  0.7886157707269064  0.5865783322726231  1.0000
  O   O6        1.0  0.9512812613698713  0.21138270838785184  0.4134306527309093  1.0000
  O   O7        1.0  0.7181330350513166  0.938585835851782  0.6019089133192497  1.0000
  O   O8        1.0  0.28186969886276364  0.061411719959188794  0.3980928464970931  1.0000
  O   O9        1.0  0.705056803829791  0.9079412916336835  0.8110218238437811  1.0000
  O   O10       1.0  0.29494463383441166  0.0920572283513579  0.18897900697608358  1.0000
  O   O11       1.0  0.9401288017122198  0.007925410345095  0.3598509533758047  1.0000
  O   O12       1.0  0.05987254056591953  0.9920750028301691  0.6401499803365099  1.0000
