data_image0
_chemical_formula_structural       Zn2H36C26N2O10
_chemical_formula_sum              "Zn2 H36 C26 N2 O10"
_cell_length_a       8.20197396006329
_cell_length_b       9.412507988962656
_cell_length_c       10.683964328599995
_cell_angle_alpha    75.21388902265946
_cell_angle_beta     89.991193932412
_cell_angle_gamma    69.74172192497439

_space_group_name_H-M_alt    "P 1"
_space_group_IT_number       1

loop_
  _space_group_symop_operation_xyz
  'x, y, z'

loop_
  _atom_site_type_symbol
  _atom_site_label
  _atom_site_symmetry_multiplicity
  _atom_site_fract_x
  _atom_site_fract_y
  _atom_site_fract_z
  _atom_site_occupancy
  Zn  Zn1       1.0  0.6382813579814693  0.148446188141456  0.6642879220339353  1.0000
  Zn  Zn2       1.0  0.3617174919712271  0.8515544482114732  0.3357123214434806  1.0000
  H   H1        1.0  0.5466568435255966  0.3406750175967516  0.4284642597950922  1.0000
  H   H2        1.0  0.4533445818526404  0.6593220805354605  0.5715358242779587  1.0000
  H   H3        1.0  0.48445937936736533  0.19095145775390415  0.4439261225022264  1.0000
  H   H4        1.0  0.5155394967240668  0.8090491700433018  0.5560759947663243  1.0000
  H   H5        1.0  0.7931755690260973  0.6079388747535572  0.5553133980379243  1.0000
  H   H6        1.0  0.206824959726049  0.39206057262495614  0.44468710049528676  1.0000
  H   H7        1.0  0.9759096789205017  0.4544396465335153  0.650034896760033  1.0000
  H   H8        1.0  0.024092541700454783  0.5455586075927171  0.3499667937245333  1.0000
  H   H9        1.0  0.8915864247221564  0.1748099247242649  0.945821320190582  1.0000
  H   H10       1.0  0.1084124121611796  0.8251907159065225  0.05417798639127369  1.0000
  H   H11       1.0  0.03926214731887972  0.09184180172276508  0.08977210516457032  1.0000
  H   H12       1.0  0.9607379135161693  0.9081588266956899  0.9102271952553664  1.0000
  H   H13       1.0  0.5004669342084612  0.22572666871139546  0.9031261266087043  1.0000
  H   H14       1.0  0.49953234445323613  0.7742727994351809  0.096872504295284  1.0000
  H   H15       1.0  0.2641451248385281  0.1929686037279907  0.0428175107847224  1.0000
  H   H16       1.0  0.7358532441277037  0.8070332179427451  0.957180597683859  1.0000
  H   H17       1.0  0.3407895265921823  0.0404264375402335  0.63402470422335  1.0000
  H   H18       1.0  0.6592106748343411  0.9595706728043183  0.3659753860116197  1.0000
  H   H19       1.0  0.0918772905061118  0.009123606221898199  0.7575597470357137  1.0000
  H   H20       1.0  0.9081260134750908  0.9908781537659055  0.24244114747190781  1.0000
  H   H21       1.0  0.8255737714553176  0.45126737266240724  0.848629055145082  1.0000
  H   H22       1.0  0.17442552027574737  0.5487320912063038  0.15137051265448062  1.0000
  H   H23       1.0  0.6469193303729169  0.6246113499544775  0.7666463943157993  1.0000
  H   H24       1.0  0.35308167936568696  0.3753869121062364  0.23335623922624646  1.0000
  H   H25       1.0  0.12022178045305776  0.7039022534542878  0.8136956630548298  1.0000
  H   H26       1.0  0.8797802865070569  0.29609952302371306  0.1863043007191436  1.0000
  H   H27       1.0  0.16011397710124006  0.5080330675976155  0.8067540694128326  1.0000
  H   H28       1.0  0.8398872946161617  0.4919675528863648  0.193244287949625  1.0000
  H   H29       1.0  0.9816081439164394  0.60368644530498  0.887114383386475  1.0000
  H   H30       1.0  0.018394076704524392  0.39631180882125955  0.11288730709809872  1.0000
  H   H31       1.0  0.9808125155884185  0.7539014689492374  0.4666821068431162  1.0000
  H   H32       1.0  0.019185110412557587  0.24609917961602412  0.5333181427962189  1.0000
  H   H33       1.0  0.16770844034021343  0.6062811841399522  0.566064577441665  1.0000
  H   H34       1.0  0.832292556329023  0.39371708219861995  0.4339371192048134  1.0000
  H   H35       1.0  0.10835977069614008  0.8046516568341173  0.5706844166102628  1.0000
  H   H36       1.0  0.8916386244088202  0.19535015628089517  0.4293155656494534  1.0000
  C   C1        1.0  0.7987245926730894  0.8426226965721141  0.6633181796127942  1.0000
  C   C2        1.0  0.2012764170655218  0.15737556548859286  0.3366844539292586  1.0000
  C   C3        1.0  0.8667005472582333  0.5619708582086955  0.652028463348735  1.0000
  C   C4        1.0  0.13330043634164218  0.4380274124077345  0.34797229640218313  1.0000
  C   C5        1.0  0.943169518691242  0.6828369966652161  0.6734258556518142  1.0000
  C   C6        1.0  0.05683102313026475  0.3171624464354323  0.32657557977696433  1.0000
  C   C7        1.0  0.013036682775108908  0.07839955650602089  0.993673947623293  1.0000
  C   C8        1.0  0.9869642877553986  0.9215987183882745  0.006325875232050672  1.0000
  C   C9        1.0  0.15744903158893922  0.09721604487199187  0.9126834172695835  1.0000
  C   C10       1.0  0.84255102924611  0.9027845835464632  0.08731588315035303  1.0000
  C   C11       1.0  0.4071443601523441  0.17750985845399464  0.8752569026041641  1.0000
  C   C12       1.0  0.592855700682705  0.82249076996446  0.12474239781577273  1.0000
  C   C13       1.0  0.6600564576499297  0.4177006041306227  0.7121327249548272  1.0000
  C   C14       1.0  0.3399390216345068  0.5823024144490034  0.28786607151544524  1.0000
  C   C15       1.0  0.27454891768670825  0.16021683714524218  0.9515272790454716  1.0000
  C   C16       1.0  0.7254511170096123  0.839783799828936  0.04847014758333764  1.0000
  C   C17       1.0  0.3175171205862952  0.0741382959568639  0.7245535336359552  1.0000
  C   C18       1.0  0.6824804662065846  0.9258623654419933  0.2754439053166777  1.0000
  C   C19       1.0  0.18042832684598412  0.055690084589748765  0.794956281322129  1.0000
  C   C20       1.0  0.8195708112242313  0.9443129016307311  0.20504155976683336  1.0000
  C   C21       1.0  0.7481859742115874  0.5177273006641343  0.754650731048784  1.0000
  C   C22       1.0  0.2518145545405588  0.4822721467143793  0.24534976748442716  1.0000
  C   C23       1.0  0.05737588274609362  0.6213713207902243  0.8034404391760858  1.0000
  C   C24       1.0  0.9426254151100365  0.3786292911380328  0.1965597919775064  1.0000
  C   C25       1.0  0.056362031472353705  0.7145037576128671  0.5619408030789117  1.0000
  C   C26       1.0  0.9436368054109746  0.2854968830179202  0.4380585035029441  1.0000
  N   N1        1.0  0.4302795339731134  0.1335200012022923  0.764054364210871  1.0000
  N   N2        1.0  0.5697234296130989  0.8664794260294071  0.23594518510294193  1.0000
  O   O1        1.0  0.8398692261903523  0.9413228536948495  0.7092731639921936  1.0000
  O   O2        1.0  0.1601320455270496  0.05867776678913119  0.2907251933702639  1.0000
  O   O3        1.0  0.5783418404121363  0.22402965022367027  0.47378653867322373  1.0000
  O   O4        1.0  0.42165914318773917  0.775968620392767  0.5262142210776943  1.0000
  O   O5        1.0  0.648826181616201  0.8793750695840712  0.6069974242024259  1.0000
  O   O6        1.0  0.35117363030941834  0.12062319613325195  0.3930070892926736  1.0000
  O   O7        1.0  0.7478511563502792  0.26815813905424324  0.7414893392766402  1.0000
  O   O8        1.0  0.25214770667177805  0.7318424930208278  0.2585118410963503  1.0000
  O   O9        1.0  0.5113839474529345  0.4795243176937517  0.6490345927700503  1.0000
  O   O10       1.0  0.48861367854804194  0.5204763308715172  0.3509656568692847  1.0000
