data_image0
_chemical_formula_structural       Ca2H28C32Cl12O18
_chemical_formula_sum              "Ca2 H28 C32 Cl12 O18"
_cell_length_a       7.755754118832031
_cell_length_b       7.890593209268986
_cell_length_c       19.399395158810318
_cell_angle_alpha    83.83580096255699
_cell_angle_beta     82.05520194362109
_cell_angle_gamma    85.05892438629246

_space_group_name_H-M_alt    "P 1"
_space_group_IT_number       1

loop_
  _space_group_symop_operation_xyz
  'x, y, z'

loop_
  _atom_site_type_symbol
  _atom_site_label
  _atom_site_symmetry_multiplicity
  _atom_site_fract_x
  _atom_site_fract_y
  _atom_site_fract_z
  _atom_site_occupancy
  Ca  Ca1       1.0  0.6696107303877807  0.14686236099894504  0.5187309106809439  1.0000
  Ca  Ca2       1.0  0.33040097336902363  0.8531380245417495  0.4812644939938267  1.0000
  H   H1        1.0  0.09061704689425909  0.22808203483859302  0.47791941405841964  1.0000
  H   H2        1.0  0.9093855386805388  0.7719093287688423  0.5220857522695825  1.0000
  H   H3        1.0  0.940396500252639  0.3703223313132682  0.4667708631264704  1.0000
  H   H4        1.0  0.05960634835896882  0.6296662401850595  0.5332323992235574  1.0000
  H   H5        1.0  0.8229663638135846  0.5198795094667901  0.546808895578849  1.0000
  H   H6        1.0  0.1770352769824157  0.4801089072168595  0.4531928845680469  1.0000
  H   H7        1.0  0.6795477800961649  0.5214228850985377  0.4977560035004063  1.0000
  H   H8        1.0  0.320445552065422  0.47857004705189604  0.5022505322229592  1.0000
  H   H9        1.0  0.37921799477800994  0.3892153157445862  0.5992420112921695  1.0000
  H   H10       1.0  0.6207935378361854  0.6107531039601285  0.40076570528114536  1.0000
  H   H11       1.0  0.30160101832736075  0.22654084990386283  0.5713561239686487  1.0000
  H   H12       1.0  0.6984130850589378  0.7734367747587783  0.42864264304305527  1.0000
  H   H13       1.0  0.0961749287890612  0.023582981120533513  0.9409924220399905  1.0000
  H   H14       1.0  0.9038167497491401  0.9764463689452471  0.059006773158095924  1.0000
  H   H15       1.0  0.08472744777155578  0.5155842504412718  0.8786087082345236  1.0000
  H   H16       1.0  0.9152680618570557  0.4844325403949341  0.12140450551807196  1.0000
  H   H17       1.0  0.16655738132887166  0.8667349592654503  0.663390813060005  1.0000
  H   H18       1.0  0.8334353821447209  0.13324742727604644  0.3366133058229935  1.0000
  H   H19       1.0  0.1822844936832908  0.0794719393305385  0.6830904265852455  1.0000
  H   H20       1.0  0.8177133869893964  0.9205105281020137  0.3169149956124358  1.0000
  H   H21       1.0  0.5984982606113576  0.0631195737857837  0.88085800250105  1.0000
  H   H22       1.0  0.4014984307101273  0.9368661493535911  0.11914211218579852  1.0000
  H   H23       1.0  0.5958203794838538  0.5210236366904938  0.9438555841758859  1.0000
  H   H24       1.0  0.40417468088138964  0.4789545572722532  0.05613475038295229  1.0000
  H   H25       1.0  0.6532650024094978  0.5863751164966047  0.6669926465639906  1.0000
  H   H26       1.0  0.3467646752019959  0.4136485329422328  0.3330061508651952  1.0000
  H   H27       1.0  0.6803085866888878  0.8083189898339499  0.6720401575778256  1.0000
  H   H28       1.0  0.31968464470762104  0.19171101382164585  0.32795376264931536  1.0000
  C   C1        1.0  0.0943168558127496  0.7627967211139862  0.9162153729043826  1.0000
  C   C2        1.0  0.905686432663849  0.23723033289535778  0.08378754898084405  1.0000
  C   C3        1.0  0.0759201239990546  0.939989722956149  0.9022396309945225  1.0000
  C   C4        1.0  0.9240789787509128  0.0600436674260507  0.09776206239363461  1.0000
  C   C5        1.0  0.06884062467903358  0.6535586836462814  0.8671424165510759  1.0000
  C   C6        1.0  0.9311588490036584  0.3464602271891336  0.13286738284900684  1.0000
  C   C7        1.0  0.029790798606114794  0.00829672863287813  0.8375074772904018  1.0000
  C   C8        1.0  0.9702029625768207  0.9917184963828021  0.16249197922764588  1.0000
  C   C9        1.0  0.02286409664526448  0.7255788554157051  0.8026609904386963  1.0000
  C   C10       1.0  0.9771251108684851  0.27443995345623046  0.197346716276222  1.0000
  C   C11       1.0  0.0014175923641560155  0.9031882282692649  0.7867498092386643  1.0000
  C   C12       1.0  0.9985739475248038  0.09681713378358844  0.21325294345474088  1.0000
  C   C13       1.0  0.09233250136413322  0.9907302292124598  0.6697435667239022  1.0000
  C   C14       1.0  0.907661066498967  0.00925881386745431  0.3302626827535279  1.0000
  C   C15       1.0  0.03139192675262588  0.05719990994426642  0.6003795162586061  1.0000
  C   C16       1.0  0.9686171338196984  0.9427937038358394  0.3996236582905228  1.0000
  C   C17       1.0  0.6021169838377888  0.794484020793945  0.9187459921939125  1.0000
  C   C18       1.0  0.3978802291218742  0.20549727490725903  0.08124921074915652  1.0000
  C   C19       1.0  0.57944950156692  0.9344866235653909  0.8695943874644317  1.0000
  C   C20       1.0  0.42054447044491644  0.06550395543244748  0.13040297316268123  1.0000
  C   C21       1.0  0.5778488939610824  0.6289054535094252  0.9050483132363569  1.0000
  C   C22       1.0  0.4221478475955536  0.3710836203328185  0.09494746219859714  1.0000
  C   C23       1.0  0.5303381424147348  0.9057089755854264  0.8054547934840816  1.0000
  C   C24       1.0  0.4696551993403729  0.09428968064658962  0.1945457093559214  1.0000
  C   C25       1.0  0.5301358456723266  0.6038831922057638  0.8404751701684321  1.0000
  C   C26       1.0  0.4698515981166622  0.3961190179799061  0.15951093678357617  1.0000
  C   C27       1.0  0.5052892357093414  0.7409816661012201  0.7895070736635291  1.0000
  C   C28       1.0  0.49470229777141816  0.25900634952581214  0.21049004407718297  1.0000
  C   C29       1.0  0.5859171838869628  0.714865804299322  0.6685699277267718  1.0000
  C   C30       1.0  0.41408965880941656  0.285152525007156  0.3314245932445489  1.0000
  C   C31       1.0  0.4954756014618056  0.7611646499763511  0.6037357420630017  1.0000
  C   C32       1.0  0.5045359027996739  0.23883840803618742  0.39626053870134115  1.0000
  Cl  Cl1       1.0  0.14717000343207326  0.6784317591916391  0.9973747895748493  1.0000
  Cl  Cl2       1.0  0.8528415092103645  0.32160714845257826  0.002631657307041708  1.0000
  Cl  Cl3       1.0  0.006534406128935188  0.22606820563455446  0.8177655215735417  1.0000
  Cl  Cl4       1.0  0.99345945036621  0.7739468399252374  0.18223239311188882  1.0000
  Cl  Cl5       1.0  0.9902738041416725  0.5974787791953702  0.7398090836675097  1.0000
  Cl  Cl6       1.0  0.009702974292572683  0.4025230642513763  0.26020593532039277  1.0000
  Cl  Cl7       1.0  0.6594613376291605  0.8238525692278742  0.9994953483999683  1.0000
  Cl  Cl8       1.0  0.3405322784963332  0.17612132134905067  0.0005020306606980119  1.0000
  Cl  Cl9       1.0  0.49731932394590916  0.07462603702041551  0.7434217775133194  1.0000
  Cl  Cl10      1.0  0.5026711034396598  0.9253789907618781  0.2565779511443439  1.0000
  Cl  Cl11      1.0  0.5009872497511124  0.4017510427655111  0.8211703489051634  1.0000
  Cl  Cl12      1.0  0.4990043073521377  0.5982472642446481  0.1788158068566618  1.0000
  O   O1        1.0  0.948589533425846  0.9725971146082416  0.7244781575992861  1.0000
  O   O2        1.0  0.05140518830490491  0.027397927005189605  0.2755245690863292  1.0000
  O   O3        1.0  0.15754885327329046  0.07820751298677922  0.5494849738128027  1.0000
  O   O4        1.0  0.8424742468976165  0.9217886816677848  0.4505199627341981  1.0000
  O   O5        1.0  0.8730966073042481  0.08897066243335423  0.594948181913111  1.0000
  O   O6        1.0  0.1269190102714859  0.9110284924036733  0.40504814766104164  1.0000
  O   O7        1.0  0.4493020878030408  0.7142362603955945  0.727951479540451  1.0000
  O   O8        1.0  0.5507003721340666  0.2857714177696878  0.2720392616463273  1.0000
  O   O9        1.0  0.5349104163826012  0.8969210924955109  0.5642581303691543  1.0000
  O   O10       1.0  0.4650952616024852  0.10307504863168052  0.4357331746534572  1.0000
  O   O11       1.0  0.382644183484679  0.6666498499304295  0.5902489424932684  1.0000
  O   O12       1.0  0.6173635791178924  0.3333506693525123  0.4097471550141592  1.0000
  O   O13       1.0  0.05297637297044131  0.3219306623349709  0.4435170371743525  1.0000
  O   O14       1.0  0.9470241412932053  0.6780528527765739  0.5564866480323334  1.0000
  O   O15       1.0  0.7529245324399484  0.4410514707235222  0.525925199309839  1.0000
  O   O16       1.0  0.2470769361960165  0.5589407153933906  0.47407583919458335  1.0000
  O   O17       1.0  0.40114698437390917  0.3004122729741355  0.5667371098352165  1.0000
  O   O18       1.0  0.5988641773075541  0.6995706262773639  0.43326250072617273  1.0000
