data_image0
_chemical_formula_structural       Cd2H32C44N6O8
_chemical_formula_sum              "Cd2 H32 C44 N6 O8"
_cell_length_a       8.373915546601209
_cell_length_b       10.043407909529828
_cell_length_c       11.857627013169557
_cell_angle_alpha    90.7885759432053
_cell_angle_beta     105.5523912279698
_cell_angle_gamma    101.87308820396609

_space_group_name_H-M_alt    "P 1"
_space_group_IT_number       1

loop_
  _space_group_symop_operation_xyz
  'x, y, z'

loop_
  _atom_site_type_symbol
  _atom_site_label
  _atom_site_symmetry_multiplicity
  _atom_site_fract_x
  _atom_site_fract_y
  _atom_site_fract_z
  _atom_site_occupancy
  Cd  Cd1       1.0  0.8257562529581932  0.39402563548830477  0.8844109942876202  1.0000
  Cd  Cd2       1.0  0.17424289409360233  0.6059745553860695  0.11558834318280728  1.0000
  H   H1        1.0  0.8696989439393051  0.8798186212995703  0.8995301107905647  1.0000
  H   H2        1.0  0.13029594396419236  0.12017950764235509  0.10046839603980119  1.0000
  H   H3        1.0  0.20904694205519556  0.75366157011365  0.7256152935410396  1.0000
  H   H4        1.0  0.7909527392743881  0.24634066165095447  0.2743850112418683  1.0000
  H   H5        1.0  0.3136125470741434  0.9975304890639691  0.6889896797515718  1.0000
  H   H6        1.0  0.6863861589095208  0.0024727574106080006  0.311012981331011  1.0000
  H   H7        1.0  0.17654946956883316  0.17622649280249902  0.7447282337572287  1.0000
  H   H8        1.0  0.8234462191550519  0.8237746983601895  0.2552729889475244  1.0000
  H   H9        1.0  0.5674169100213716  0.17478734229229792  0.9526963120877099  1.0000
  H   H10       1.0  0.43258471961488004  0.8252128635940114  0.04730433971850087  1.0000
  H   H11       1.0  0.3672802055404888  0.1259013548277892  0.0788781908114728  1.0000
  H   H12       1.0  0.632722932924409  0.8740998784193295  0.9211227585484351  1.0000
  H   H13       1.0  0.36851205586185654  0.3143525863533867  0.222576052975576  1.0000
  H   H14       1.0  0.6314910826030484  0.6856486468937322  0.7774248963843248  1.0000
  H   H15       1.0  0.762658890650016  0.5706620703861631  0.10212229475608581  1.0000
  H   H16       1.0  0.23734522276328113  0.42933814874125187  0.8978771415745824  1.0000
  H   H17       1.0  0.8546662348057694  0.7850985927178586  0.5753463890121466  1.0000
  H   H18       1.0  0.14533335053145893  0.21489854668823238  0.4246555277392119  1.0000
  H   H19       1.0  0.6782315056260514  0.9084516026654654  0.6591192566232562  1.0000
  H   H20       1.0  0.3217668390152398  0.09154552834924351  0.3408807380545511  1.0000
  H   H21       1.0  0.3755021673723107  0.8934876752089096  0.5573107195456544  1.0000
  H   H22       1.0  0.6244961780640352  0.10650945462525392  0.4426875885912693  1.0000
  H   H23       1.0  0.2359856615266979  0.7558760838979739  0.3661294519860334  1.0000
  H   H24       1.0  0.7640147282086716  0.24412411241640802  0.6338675912057424  1.0000
  H   H25       1.0  0.9577083937767981  0.7003126095698137  0.41339736395521237  1.0000
  H   H26       1.0  0.04229420961525681  0.2996865839676133  0.5866043046330915  1.0000
  H   H27       1.0  0.8998130222826646  0.5646645644980951  0.3048060714707646  1.0000
  H   H28       1.0  0.10018958110939744  0.43533462903933906  0.6951955971175393  1.0000
  H   H29       1.0  0.8316321946053338  0.39746434119041407  0.44403325841646785  1.0000
  H   H30       1.0  0.16836916689820214  0.60253484572646  0.5559690179096108  1.0000
  H   H31       1.0  0.8621828403215801  0.5282891507549368  0.5542700411495786  1.0000
  H   H32       1.0  0.13781852157948293  0.4717100355716682  0.44573139190605093  1.0000
  C   C1        1.0  0.918153154417098  0.145099112805589  0.8447212207921808  1.0000
  C   C2        1.0  0.08184200042652633  0.8549000368765932  0.15527819132964987  1.0000
  C   C3        1.0  0.009571282351821303  0.03840864794725721  0.8210150612384904  1.0000
  C   C4        1.0  0.990422898735993  0.9615915140837997  0.17898333410124675  1.0000
  C   C5        1.0  0.9634168513215189  0.9044770353892915  0.8506257533811947  1.0000
  C   C6        1.0  0.03657857125729441  0.09552313385259482  0.14937287749120998  1.0000
  C   C7        1.0  0.03385970653666699  0.8021004445913534  0.8153310703234522  1.0000
  C   C8        1.0  0.9661372240757374  0.1979007531918953  0.18466954464353347  1.0000
  C   C9        1.0  0.15725023772750293  0.8349696460036001  0.7542850866865294  1.0000
  C   C10       1.0  0.842747935170955  0.16503155780991824  0.24571407727224673  1.0000
  C   C11       1.0  0.21320168155622107  0.9701310021712573  0.7324442090671681  1.0000
  C   C12       1.0  0.7867967578848367  0.02987122297279401  0.2675567034535149  1.0000
  C   C13       1.0  0.13806664544997463  0.07104098717417881  0.7643467475029126  1.0000
  C   C14       1.0  0.8619300178247755  0.9289591904590822  0.2356538054430573  1.0000
  C   C15       1.0  0.9716930118906293  0.6563605359390439  0.8354411310470552  1.0000
  C   C16       1.0  0.02830737665215822  0.34363966214615976  0.16455844195603928  1.0000
  C   C17       1.0  0.5606882590640865  0.25251079118074676  0.015487008250062188  1.0000
  C   C18       1.0  0.43931337096969264  0.747489414115286  0.9845128002857063  1.0000
  C   C19       1.0  0.4500639276344175  0.22670889037665629  0.08551699631163251  1.0000
  C   C20       1.0  0.5499389438903536  0.7732913221302057  0.9144830477568107  1.0000
  C   C21       1.0  0.4518327323031813  0.3304306691478019  0.16524415577779905  1.0000
  C   C22       1.0  0.5481701392215896  0.6695695433590603  0.834755888290644  1.0000
  C   C23       1.0  0.5658413716613352  0.4567555150089574  0.17428117157842846  1.0000
  C   C24       1.0  0.43416176720108984  0.543245717647878  0.8257189345110305  1.0000
  C   C25       1.0  0.6727905319857896  0.47424847808881776  0.10015777641132925  1.0000
  C   C26       1.0  0.3272123399365086  0.5257517338277681  0.8998414243866719  1.0000
  C   C27       1.0  0.5645415844592777  0.564180884290707  0.2599459904385526  1.0000
  C   C28       1.0  0.4354603133096902  0.4358203405650301  0.7400530368477972  1.0000
  C   C29       1.0  0.4678065222153976  0.6924275458671334  0.3644620791738048  1.0000
  C   C30       1.0  0.5321966170445622  0.30757368619943304  0.6355371836452122  1.0000
  C   C31       1.0  0.6410733828573143  0.701627239115318  0.42313143064947667  1.0000
  C   C32       1.0  0.3589267383478117  0.2983719388199049  0.576868080332602  1.0000
  C   C33       1.0  0.7215874438871454  0.7789168964554064  0.529749086946154  1.0000
  C   C34       1.0  0.2784126769204605  0.22108228207009256  0.47025126730636657  1.0000
  C   C35       1.0  0.6213328805693054  0.8463980271846197  0.5763530804003665  1.0000
  C   C36       1.0  0.37866573180716767  0.1536001233897935  0.42364613302801496  1.0000
  C   C37       1.0  0.4483194951570155  0.8376514589591865  0.5183263233370923  1.0000
  C   C38       1.0  0.5516806260481105  0.16234771897603653  0.4816731876449864  1.0000
  C   C39       1.0  0.36917459779598266  0.7621042010791828  0.4116688846574519  1.0000
  C   C40       1.0  0.6308257911443321  0.23789599641575182  0.5883298450752079  1.0000
  C   C41       1.0  0.8729976182886361  0.5995933297035593  0.38411725881390163  1.0000
  C   C42       1.0  0.12700498510342587  0.4004058638338749  0.6158844097744023  1.0000
  C   C43       1.0  0.9055527202190348  0.500457148669753  0.47933173931838974  1.0000
  C   C44       1.0  0.09444864128450091  0.49954203824712096  0.520670537007689  1.0000
  N   N1        1.0  0.6684037958034283  0.37399056994069474  0.022228485755839203  1.0000
  N   N2        1.0  0.33159783423035094  0.6260096353553382  0.9777713227799294  1.0000
  N   N3        1.0  0.4243057140501492  0.6067659727811618  0.2631486227093021  1.0000
  N   N4        1.0  0.5756976933425193  0.3932362782548325  0.736849015589854  1.0000
  N   N5        1.0  0.699636685290386  0.6210553996366814  0.35401878215649407  1.0000
  N   N6        1.0  0.3003646770082042  0.3789437860996472  0.6459818076287007  1.0000
  O   O1        1.0  0.9791881554801449  0.2675034221716786  0.8220794752937052  1.0000
  O   O2        1.0  0.020809750080651716  0.7324967614918664  0.17791962664405497  1.0000
  O   O3        1.0  0.7876373645530208  0.113164007526926  0.8807553944716913  1.0000
  O   O4        1.0  0.21235832496591914  0.8868371824552099  0.11924414169218517  1.0000
  O   O5        1.0  0.9313531049077497  0.6286434627463892  0.9318571921393964  1.0000
  O   O6        1.0  0.06864701669490364  0.3713557145985576  0.06814147557223289  1.0000
  O   O7        1.0  0.9575838600533901  0.5657917449712357  0.7567250643548605  1.0000
  O   O8        1.0  0.0424180373180434  0.4342094804747774  0.24327480620193134  1.0000
