data_image0
_chemical_formula_structural       U8H40C48N8O40
_chemical_formula_sum              "U8 H40 C48 N8 O40"
_cell_length_a       8.628575874
_cell_length_b       10.092833409
_cell_length_c       18.665
_cell_angle_alpha    90.0
_cell_angle_beta     90.0
_cell_angle_gamma    90.0

_space_group_name_H-M_alt    "P 1"
_space_group_IT_number       1

loop_
  _space_group_symop_operation_xyz
  'x, y, z'

loop_
  _atom_site_type_symbol
  _atom_site_label
  _atom_site_symmetry_multiplicity
  _atom_site_fract_x
  _atom_site_fract_y
  _atom_site_fract_z
  _atom_site_occupancy
  U   U1        1.0  0.8664871363684339  0.2106187543038658  0.4341746584516457  1.0000
  U   U2        1.0  0.13351334181012928  0.2893785998088134  0.9341746584516458  1.0000
  U   U3        1.0  0.6335124219596082  0.7106270072390544  0.565824805786228  1.0000
  U   U4        1.0  0.3664868972791524  0.7893769447235286  0.0658253415483543  1.0000
  U   U5        1.0  0.1335145007499321  0.7893809079317151  0.5658253415483543  1.0000
  U   U6        1.0  0.8664859774286313  0.7106220532288177  0.0658253415483543  1.0000
  U   U7        1.0  0.3664868972791524  0.2893726549965265  0.4341746584516457  1.0000
  U   U8        1.0  0.633513580899411  0.21062271751205228  0.9341751942137719  1.0000
  H   H1        1.0  0.13670853883946418  0.1243377304613915  0.5014567372086773  1.0000
  H   H2        1.0  0.8632919393390991  0.3756616052553738  0.0014567372086772999  1.0000
  H   H3        1.0  0.3632928591896132  0.6243410293863505  0.49854326279132266  1.0000
  H   H4        1.0  0.6367076189889431  0.8756599501700962  0.9985427270291966  1.0000
  H   H5        1.0  0.8632907803992963  0.8756629225762323  0.49854326279132266  1.0000
  H   H6        1.0  0.13670853883946418  0.6243390477822572  0.9985432627913227  1.0000
  H   H7        1.0  0.6367076189889431  0.3756596236512806  0.5014567372086773  1.0000
  H   H8        1.0  0.3632905413100147  0.1243397120654848  0.0014572729708036  1.0000
  H   H9        1.0  0.5247134713901714  0.45639116522942663  0.1987961425127267  1.0000
  H   H10       1.0  0.475287006788392  0.0436061888832455  0.6987966782748458  1.0000
  H   H11       1.0  0.9752860869378708  0.9563934733523354  0.8012060005357639  1.0000
  H   H12       1.0  0.0247167091202911  0.5436075062041112  0.3012076078221284  1.0000
  H   H13       1.0  0.475287006788392  0.5436094878082045  0.8012038574872733  1.0000
  H   H14       1.0  0.5247134713901714  0.9563964457584787  0.3012038574872733  1.0000
  H   H15       1.0  0.0247155501804883  0.0436071796852957  0.1987945352263623  1.0000
  H   H16       1.0  0.9752814511786738  0.4563921560314768  0.6987923921778716  1.0000
  H   H17       1.0  0.5413291913065947  0.42915005375375165  0.0668481114385244  1.0000
  H   H18       1.0  0.4586701279321659  0.0708473003589205  0.5668491829627627  1.0000
  H   H19       1.0  0.9586703670214476  0.9291483986684738  0.9331524243236018  1.0000
  H   H20       1.0  0.0413324290367143  0.5708515900859226  0.4331545673720854  1.0000
  H   H21       1.0  0.4586712868719687  0.5708496084818293  0.9331518885614756  1.0000
  H   H22       1.0  0.5413303502463902  0.9291523618766605  0.4331518885614756  1.0000
  H   H23       1.0  0.04132779327751019  0.0708532451712074  0.06684757567639818  1.0000
  H   H24       1.0  0.9586657312622506  0.4291480721496583  0.5668454326279145  1.0000
  H   H25       1.0  0.7248276067022275  0.0500246045426422  0.08693972676131519  1.0000
  H   H26       1.0  0.2751705535967304  0.4499717587679868  0.5869391909991961  1.0000
  H   H27       1.0  0.7751719516258149  0.5500229494573645  0.9130592017144393  1.0000
  H   H28       1.0  0.2248285265527485  0.949978030099082  0.41306080900080383  1.0000
  H   H29       1.0  0.2751705535967304  0.9499750576929387  0.9130597374765584  1.0000
  H   H30       1.0  0.7248287656420302  0.5500279034676012  0.4130602732386848  1.0000
  H   H31       1.0  0.2248273676129457  0.4499777035802666  0.0869413340476797  1.0000
  H   H32       1.0  0.7751719516258149  0.05002064133445569  0.5869391909991961  1.0000
  H   H33       1.0  0.7218421777767432  0.0655326381797039  0.22056415751406183  1.0000
  H   H34       1.0  0.2781571414620245  0.4344647159329753  0.7205630859898235  1.0000
  H   H35       1.0  0.7781562216115034  0.5655349463026127  0.7794342351995738  1.0000
  H   H36       1.0  0.2218430976272572  0.934466033253834  0.2794358424859382  1.0000
  H   H37       1.0  0.2781571414620245  0.9344670240558841  0.7794353067238119  1.0000
  H   H38       1.0  0.7218433367165389  0.565536927906706  0.2794363782480573  1.0000
  H   H39       1.0  0.22184425656705994  0.4344647159329753  0.2205657648004262  1.0000
  H   H40       1.0  0.7781562216115034  0.065533628981747  0.7205641575140618  1.0000
  C   C1        1.0  0.6107635926201738  0.2690929187019151  0.2998333779801783  1.0000
  C   C2        1.0  0.389239203437988  0.23090839861895057  0.7998344495044164  1.0000
  C   C3        1.0  0.8892359657078686  0.769096217626867  0.7001660862577025  1.0000
  C   C4        1.0  0.1107621945910964  0.7309057527316227  0.2001687650683124  1.0000
  C   C5        1.0  0.3892357266185869  0.730907734335716  0.7001660862577025  1.0000
  C   C6        1.0  0.6107601158007725  0.7690932452207306  0.2001660862577026  1.0000
  C   C7        1.0  0.1107633535308921  0.23090344460871393  0.2998339137422974  1.0000
  C   C8        1.0  0.8892371246476714  0.2690939095039582  0.7998317706938138  1.0000
  C   C9        1.0  0.6218928915221369  0.2618333121047556  0.2199421376908646  1.0000
  C   C10       1.0  0.37810874559622926  0.2381640420079165  0.7199426734529837  1.0000
  C   C11       1.0  0.8781101436253066  0.7618346294256142  0.780056255022771  1.0000
  C   C12       1.0  0.1218914934930524  0.7381663501308253  0.2800589338333808  1.0000
  C   C13       1.0  0.3781064277166236  0.7381673409328755  0.7800578623091354  1.0000
  C   C14       1.0  0.6218928915221369  0.7618385926338078  0.2800573265470163  1.0000
  C   C15       1.0  0.1218914934930524  0.2381640420079165  0.21994374497722896  1.0000
  C   C16       1.0  0.8781066668059052  0.2618333121047556  0.7199410661666192  1.0000
  C   C17       1.0  0.5707430834373639  0.365327539906886  0.1761548352531506  1.0000
  C   C18       1.0  0.429259712620798  0.1346708050078362  0.6761537637289052  1.0000
  C   C19       1.0  0.9292541570110799  0.8653288572277447  0.8238451647468494  1.0000
  C   C20       1.0  0.07074632116748347  0.6346711315266518  0.3238462362710948  1.0000
  C   C21       1.0  0.4292562358013967  0.634673113130745  0.8238446289847303  1.0000
  C   C22       1.0  0.5707430834373639  0.8653298480297948  0.32384570050897565  1.0000
  C   C23       1.0  0.07074632116748347  0.1346708050078362  0.1761542994910243  1.0000
  C   C24       1.0  0.9292518391314815  0.365327539906886  0.6761532279667861  1.0000
  C   C25       1.0  0.5797480456854345  0.3501692593923593  0.10228395392445579  1.0000
  C   C26       1.0  0.420251273553326  0.1498280947203128  0.602284489686582  1.0000
  C   C27       1.0  0.9202526715824035  0.8501685951091247  0.8977155103134179  1.0000
  C   C28       1.0  0.079751283415554  0.6498313936452718  0.39771604607554417  1.0000
  C   C29       1.0  0.4202524324931288  0.6498304028432216  0.8977149745512988  1.0000
  C   C30       1.0  0.579750363565033  0.8501685951091247  0.39771604607554417  1.0000
  C   C31       1.0  0.0797478065961528  0.1498330487305495  0.1022850254487011  1.0000
  C   C32       1.0  0.9202457179436081  0.3501672777882661  0.6022839539244558  1.0000
  C   C33       1.0  0.682177463112609  0.1385953719153505  0.11361264398607318  1.0000
  C   C34       1.0  0.3178218561261517  0.3613990097911852  0.6136115724618278  1.0000
  C   C35       1.0  0.817823254155229  0.638595698434159  0.8863873560139267  1.0000
  C   C36       1.0  0.18217838296313  0.8614062719243307  0.386387891776053  1.0000
  C   C37       1.0  0.3178218561261517  0.8614042903202375  0.8863873560139267  1.0000
  C   C38       1.0  0.6821786220524118  0.6385996616423526  0.386387891776053  1.0000
  C   C39       1.0  0.1821760650835316  0.361404954603465  0.11361264398607318  1.0000
  C   C40       1.0  0.8178209362756306  0.1385943811133004  0.6136115724618278  1.0000
  C   C41       1.0  0.6801388880039383  0.1471588740061378  0.1878087329225835  1.0000
  C   C42       1.0  0.3198604312348223  0.3528404617106276  0.6878087329225835  1.0000
  C   C43       1.0  0.8198595113843012  0.6471601913270035  0.8121901955531712  1.0000
  C   C44       1.0  0.1801374899748609  0.8528427698335364  0.3121918028395426  1.0000
  C   C45       1.0  0.3198592722950195  0.8528417790314863  0.8121912670774165  1.0000
  C   C46       1.0  0.6801400469437411  0.6471601913270035  0.31219126707741646  1.0000
  C   C47       1.0  0.18013980785445938  0.3528404617106276  0.1878098044468288  1.0000
  C   C48       1.0  0.819860670324104  0.1471559016000015  0.6878081971604573  1.0000
  N   N1        1.0  0.633154309561327  0.23841669652986042  0.0714770961693034  1.0000
  N   N2        1.0  0.3668450096774335  0.2615786759787184  0.5714770961693034  1.0000
  N   N3        1.0  0.8668429308871166  0.7384150414445827  0.9285223680685775  1.0000
  N   N4        1.0  0.1331552294118481  0.7615849473098137  0.4285239753549419  1.0000
  N   N5        1.0  0.3668450096774335  0.7615839565077707  0.9285223680685775  1.0000
  N   N6        1.0  0.6331554685011298  0.7384199954548194  0.4285234395928228  1.0000
  N   N7        1.0  0.1331552294118481  0.2615846207909982  0.07147816769354158  1.0000
  N   N8        1.0  0.8668452487667151  0.2384157057278173  0.5714760246450581  1.0000
  O   O1        1.0  0.8998066556261008  0.3837108810838572  0.412769890168768  1.0000
  O   O2        1.0  0.1001949814922583  0.1162924178410947  0.9127704259308871  1.0000
  O   O3        1.0  0.6001963795213427  0.8837141800088162  0.5872311813554774  1.0000
  O   O4        1.0  0.3998064165368191  0.616290762755817  0.087230109831232  1.0000
  O   O5        1.0  0.1001938225524626  0.6162887811517237  0.5872295740691129  1.0000
  O   O6        1.0  0.8998043377465023  0.8837092259985795  0.0872295740691129  1.0000
  O   O7        1.0  0.3998052575970164  0.1162835006226715  0.4127682828824035  1.0000
  O   O8        1.0  0.6001940616417443  0.3837118718859074  0.912769890168768  1.0000
  O   O9        1.0  0.8374394692145444  0.0357897515357664  0.45633217251540253  1.0000
  O   O10       1.0  0.1625598500242162  0.4642125565871424  0.9563305652290383  1.0000
  O   O11       1.0  0.6625600891134977  0.5357880964504886  0.5436688990088427  1.0000
  O   O12       1.0  0.3374392301252627  0.9642138739080011  0.04366943477096189  1.0000
  O   O13       1.0  0.1625598500242162  0.9642118923039079  0.5436678274845974  1.0000
  O   O14       1.0  0.8374406281543472  0.5357871056484385  0.04366943477096189  1.0000
  O   O15       1.0  0.3374392301252627  0.46421453819123565  0.45633163675328353  1.0000
  O   O16       1.0  0.6625600891134977  0.0357828159214364  0.9563311009911574  1.0000
  O   O17       1.0  0.11893619700237679  0.20713113109900413  0.4741328690061621  1.0000
  O   O18       1.0  0.8810642811761866  0.2928672138157182  0.9741328690061621  1.0000
  O   O19       1.0  0.3810640420869049  0.7071354208260061  0.5258665952317187  1.0000
  O   O20       1.0  0.6189364360916584  0.7928655587304335  0.0258671309938379  1.0000
  O   O21       1.0  0.8810631222363838  0.792869521938627  0.5258671309938378  1.0000
  O   O22       1.0  0.11893619700237679  0.7071324484198698  0.0258671309938379  1.0000
  O   O23       1.0  0.6189364360916584  0.2928642414095748  0.4741334047682813  1.0000
  O   O24       1.0  0.3810628831471092  0.2071341035051475  0.9741328690061621  1.0000
  O   O25       1.0  0.6972657003722844  0.190694715944062  0.3354969193677988  1.0000
  O   O26       1.0  0.3027359367460747  0.3093036289706603  0.835497455129925  1.0000
  O   O27       1.0  0.8027350168955605  0.6906980148690209  0.664502544870075  1.0000
  O   O28       1.0  0.1972643023431999  0.8093019738853826  0.1645041521564394  1.0000
  O   O29       1.0  0.3027336188664761  0.8093069278956122  0.664502544870075  1.0000
  O   O30       1.0  0.6972633824926859  0.6906960332649206  0.164502544870075  1.0000
  O   O31       1.0  0.1972654612830027  0.3093006565645169  0.33549745512992496  1.0000
  O   O32       1.0  0.8027361758353563  0.1906966975481552  0.8354958478435606  1.0000
  O   O33       1.0  0.5135065235215919  0.3487345780285409  0.32720492901152193  1.0000
  O   O34       1.0  0.4864951135967743  0.1512647576882244  0.8272060005357602  1.0000
  O   O35       1.0  0.9864941937462531  0.8487358953494066  0.6727945352263589  1.0000
  O   O36       1.0  0.0135039665527046  0.6512660750090831  0.1727956067506042  1.0000
  O   O37       1.0  0.4864951135967743  0.6512660750090831  0.672795070988478  1.0000
  O   O38       1.0  0.5135042056419863  0.8487358953494066  0.17279453522635888  1.0000
  O   O39       1.0  0.013505125492507396  0.1512637668861743  0.3272054647736411  1.0000
  O   O40       1.0  0.986495352686056  0.3487325964244476  0.8272043932493958  1.0000
