data_image0
_chemical_formula_structural       Al6H18C62O28
_chemical_formula_sum              "Al6 H18 C62 O28"
_cell_length_a       12.360957424952485
_cell_length_b       12.471937335865338
_cell_length_c       27.057932255396512
_cell_angle_alpha    97.74846391324519
_cell_angle_beta     90.1619212502965
_cell_angle_gamma    119.99196746670427

_space_group_name_H-M_alt    "P 1"
_space_group_IT_number       1

loop_
  _space_group_symop_operation_xyz
  'x, y, z'

loop_
  _atom_site_type_symbol
  _atom_site_label
  _atom_site_symmetry_multiplicity
  _atom_site_fract_x
  _atom_site_fract_y
  _atom_site_fract_z
  _atom_site_occupancy
  Al  Al1       1.0  0.40838566375227714  0.8122131483636609  0.4860284575739797  1.0000
  Al  Al2       1.0  0.6671197642048838  0.07587985795480282  0.5025544302807035  1.0000
  Al  Al3       1.0  0.4253389958434468  0.07953952946874675  0.5031034549229645  1.0000
  Al  Al4       1.0  0.9191859371049561  0.8392908227811945  0.01944117371406411  1.0000
  Al  Al5       1.0  0.9180297116862164  0.578968680894029  0.003999939790134017  1.0000
  Al  Al6       1.0  0.6694643029520789  0.56873451254922  0.003572526350822598  1.0000
  H   H1        1.0  0.5154808644957286  0.8192026677327604  0.8014573703056058  1.0000
  H   H2        1.0  0.8829346304315706  0.4835743844798515  0.2268902123571195  1.0000
  H   H3        1.0  0.4897387733959348  0.20916866216180816  0.1947433438650563  1.0000
  H   H4        1.0  0.47328716124764714  0.18074054426489994  0.2841822926223188  1.0000
  H   H5        1.0  0.24685713586231378  0.7176827267188061  0.6985178146697422  1.0000
  H   H6        1.0  0.21418959291008113  0.6840943910900775  0.7876278467541127  1.0000
  H   H7        1.0  0.07928431317815683  0.9444109121355525  0.8080839734169629  1.0000
  H   H8        1.0  0.8173160351634154  0.7751719452022602  0.6909519681197764  1.0000
  H   H9        1.0  0.8666548537210446  0.4547798707921801  0.3163012643747081  1.0000
  H   H10       1.0  0.8149625343453407  0.738968850359086  0.7791305289044459  1.0000
  H   H11       1.0  0.5187232376428454  0.8566337127289716  0.7133347285984755  1.0000
  H   H12       1.0  0.9698864855292084  0.0107912719597536  0.7632443502315598  1.0000
  H   H13       1.0  0.1274010749844265  0.13368128725068829  0.7791240523400234  1.0000
  H   H14       1.0  0.03840196581407441  0.13537079200759913  0.7279359286975051  1.0000
  H   H15       1.0  0.18671201458521128  0.0691871583799397  0.6949856431844098  1.0000
  H   H16       1.0  0.03271277801141545  0.9485654255767031  0.6796120539472098  1.0000
  H   H17       1.0  0.32509735446050303  0.6073421043609528  0.502405289660814  1.0000
  H   H18       1.0  0.043223005311766385  0.04443384030762589  0.0035490782371212994  1.0000
  C   C1        1.0  0.6184436076362873  0.8984285430110434  0.41837253710583877  1.0000
  C   C2        1.0  0.5717288759447144  0.26258459615953456  0.2215173908425285  1.0000
  C   C3        1.0  0.5625738349422845  0.24693463957090242  0.2714188594103106  1.0000
  C   C4        1.0  0.6689319492922294  0.31600676364480756  0.3061751103262509  1.0000
  C   C5        1.0  0.6874168674857373  0.3480474491543291  0.2048501864978149  1.0000
  C   C6        1.0  0.6972081042563474  0.3663788743016738  0.1541690782008089  1.0000
  C   C7        1.0  0.6593753063293093  0.2972455229237596  0.35680003208640443  1.0000
  C   C8        1.0  0.7070636242158203  0.3851707150537108  0.11085367668830771  1.0000
  C   C9        1.0  0.10494643512681281  0.782754217130389  0.1362862148415687  1.0000
  C   C10       1.0  0.13104051960721125  0.799549638641743  0.18148255608173972  1.0000
  C   C11       1.0  0.15641783684297664  0.8181618230214484  0.2310658759753252  1.0000
  C   C12       1.0  0.6256425673118926  0.22845564411517225  0.4460774965487602  1.0000
  C   C13       1.0  0.17670943772109393  0.8358616723262601  0.2769585608815461  1.0000
  C   C14       1.0  0.20167741466837438  0.8565281866899069  0.3266355070220897  1.0000
  C   C15       1.0  0.2270824680966683  0.8767371297100865  0.3720138464837461  1.0000
  C   C16       1.0  0.670132219653752  0.7742636961501294  0.13221333096136337  1.0000
  C   C17       1.0  0.664246597366997  0.7960154413965627  0.1774099108779339  1.0000
  C   C18       1.0  0.6596351984350265  0.8185761741603061  0.22695218637581152  1.0000
  C   C19       1.0  0.6578470098596797  0.838597026250696  0.2727752305879108  1.0000
  C   C20       1.0  0.6528325496742512  0.8592074688106593  0.32236588728824234  1.0000
  C   C21       1.0  0.645976518192917  0.8775093704125538  0.36764731895221553  1.0000
  C   C22       1.0  0.6962808606130862  0.3748399059450378  0.8739278026024381  1.0000
  C   C23       1.0  0.27915733138826954  0.9030007919121844  0.4226503985411228  1.0000
  C   C24       1.0  0.685886609735256  0.35261089849826993  0.8280013170083791  1.0000
  C   C25       1.0  0.6752870644113714  0.3306488133655989  0.7777809165779815  1.0000
  C   C26       1.0  0.666296714947286  0.3129647040211196  0.7315531926300879  1.0000
  C   C27       1.0  0.654663130995111  0.2905885704579561  0.681327602272404  1.0000
  C   C28       1.0  0.6427204430947739  0.26764626923583995  0.6354058630557944  1.0000
  C   C29       1.0  0.23235256525826753  0.8841491898089234  0.6105469930189074  1.0000
  C   C30       1.0  0.21041569694268258  0.7668867572603659  0.7230370161840513  1.0000
  C   C31       1.0  0.1925704754031373  0.7483481108268819  0.7723738144488552  1.0000
  C   C32       1.0  0.1157739242092648  0.8956154355679262  0.7834107515232135  1.0000
  C   C33       1.0  0.13281060783210577  0.9152228844389257  0.733893029553741  1.0000
  C   C34       1.0  0.6359734090869653  0.8961814206583087  0.5586363437312585  1.0000
  C   C35       1.0  0.1816481538977257  0.8498282435424754  0.703413681786543  1.0000
  C   C36       1.0  0.1451984666339996  0.8131970178627624  0.8032223454789431  1.0000
  C   C37       1.0  0.12446792310201726  0.7949485374885015  0.8535447012883708  1.0000
  C   C38       1.0  0.2059481388024978  0.8688105307871012  0.6533960394820753  1.0000
  C   C39       1.0  0.1035143029856443  0.7792109056283891  0.8967582707704054  1.0000
  C   C40       1.0  0.6649865614982602  0.8679273232309795  0.6049760336940081  1.0000
  C   C41       1.0  0.7515299538569451  0.7847476107594601  0.7152594456890142  1.0000
  C   C42       1.0  0.7499057303867431  0.7641637497260092  0.76445768466332  1.0000
  C   C43       1.0  0.5811649193079731  0.8096221362607638  0.7770788898073917  1.0000
  C   C44       1.0  0.5830979560450871  0.830593352419612  0.7279913108429099  1.0000
  C   C45       1.0  0.6167532367374305  0.21817920370419588  0.5828181439882698  1.0000
  C   C46       1.0  0.668967455589339  0.8194305082805968  0.6964289446246711  1.0000
  C   C47       1.0  0.6653677991517455  0.7771921936611648  0.796216465800022  1.0000
  C   C48       1.0  0.6681767655966196  0.7609571637066282  0.8468496018806206  1.0000
  C   C49       1.0  0.6699597081902127  0.844418386859168  0.6469140413964283  1.0000
  C   C50       1.0  0.6758947970173639  0.7502800451023364  0.8906194796697164  1.0000
  C   C51       1.0  0.05221630360639305  0.7611010599165057  0.0860750595008994  1.0000
  C   C52       1.0  0.7299773394062823  0.43149287348894905  0.0641407703914822  1.0000
  C   C53       1.0  0.6972982716267424  0.7467651886477853  0.08211452518479942  1.0000
  C   C54       1.0  0.0563248907525635  0.7545484864327038  0.944801890499015  1.0000
  C   C55       1.0  0.7191139429367227  0.42547455380721283  0.9263504758564238  1.0000
  C   C56       1.0  0.2850400448247754  0.9030735954216595  0.5631605861248019  1.0000
  C   C57       1.0  0.7065141069974388  0.7397353542209828  0.9403960459924718  1.0000
  C   C58       1.0  0.6499054334150074  0.2778109313862984  0.4000316828944577  1.0000
  C   C59       1.0  0.78463179843731  0.40152857994316804  0.2895359971759532  1.0000
  C   C60       1.0  0.7936761250234454  0.4173317031010059  0.2396491598829797  1.0000
  C   C61       1.0  0.10266902794730727  0.002955025137822499  0.7118435444598035  1.0000
  C   C62       1.0  0.05717285412060851  0.07437354061541872  0.7476979257819777  1.0000
  O   O1        1.0  0.29506666736489967  0.8202136503811063  0.4378276418221034  1.0000
  O   O2        1.0  0.6963741499414908  0.19463896065195024  0.5617336867771527  1.0000
  O   O3        1.0  0.5128599578632559  0.19625462591477572  0.5623704083265082  1.0000
  O   O4        1.0  0.2995511157551223  0.9994461736555279  0.5446469626959569  1.0000
  O   O5        1.0  0.5018924884746028  0.9917380666837872  0.4974682357726081  1.0000
  O   O6        1.0  0.7964129040540014  0.8295585060891427  0.06688509533010033  1.0000
  O   O7        1.0  0.014714739556829946  0.8339584073635253  0.07653519433574023  1.0000
  O   O8        1.0  0.04360245292367179  0.6670584085562439  0.0560968803090134  1.0000
  O   O9        1.0  0.8369667473950386  0.46154052660565986  0.04741681503433881  1.0000
  O   O10       1.0  0.6456223525702569  0.445762417542916  0.043453723403303  1.0000
  O   O11       1.0  0.6200358787965145  0.636808300044777  0.0578125683080657  1.0000
  O   O12       1.0  0.5111519698494861  0.8204373555019444  0.42973124364542065  1.0000
  O   O13       1.0  0.8143340231453849  0.8215358347289128  0.9601339361617321  1.0000
  O   O14       1.0  0.03772060100463649  0.8353052334033179  0.970562271364507  1.0000
  O   O15       1.0  0.031368618587805555  0.6480389202861687  0.9568585764300437  1.0000
  O   O16       1.0  0.8218821049359021  0.4495891314264925  0.9484225811696021  1.0000
  O   O17       1.0  0.6370472813514637  0.4482952572858494  0.9456754419754817  1.0000
  O   O18       1.0  0.6241411365874753  0.6456401729134099  0.9598917664207463  1.0000
  O   O19       1.0  0.834488582367328  0.6598747133059746  0.0085461409046204  1.0000
  O   O20       1.0  0.7035535957743235  0.9968113193229795  0.4471241461471465  1.0000
  O   O21       1.0  0.7051787363879214  0.2033275592785344  0.4640629806543402  1.0000
  O   O22       1.0  0.5229287335790218  0.20656520464566341  0.4649118583708897  1.0000
  O   O23       1.0  0.30995618202872777  0.011561955009625499  0.4473293210137044  1.0000
  O   O24       1.0  0.3173197799538485  0.8260720323947196  0.544215556942909  1.0000
  O   O25       1.0  0.5309476496490648  0.8177977369232113  0.5355881884555345  1.0000
  O   O26       1.0  0.7167213793787751  0.0019298555148595  0.5456875131084047  1.0000
  O   O27       1.0  0.32207656574654925  0.6486706713731394  0.4751214459467334  1.0000
  O   O28       1.0  0.9954410398743149  0.0026888846332227  0.030143924729046  1.0000
