data_image0
_chemical_formula_structural       Li4H24C12Br4N8
_chemical_formula_sum              "Li4 H24 C12 Br4 N8"
_cell_length_a       4.230871172471431
_cell_length_b       8.555540144891948
_cell_length_c       17.23730208412468
_cell_angle_alpha    89.99991778418926
_cell_angle_beta     90.00044452380942
_cell_angle_gamma    99.50388666039147

_space_group_name_H-M_alt    "P 1"
_space_group_IT_number       1

loop_
  _space_group_symop_operation_xyz
  'x, y, z'

loop_
  _atom_site_type_symbol
  _atom_site_label
  _atom_site_symmetry_multiplicity
  _atom_site_fract_x
  _atom_site_fract_y
  _atom_site_fract_z
  _atom_site_occupancy
  Li  Li1       1.0  0.7371595421534991  0.9357892075681777  0.5624567239213933  1.0000
  Li  Li2       1.0  0.2628376179879909  0.5642051410582952  0.06245239828320592  1.0000
  Li  Li3       1.0  0.262840716778058  0.06420334561283171  0.4375455021259854  1.0000
  Li  Li4       1.0  0.7371555603764222  0.4357874420738882  0.937544606522572  1.0000
  H   H1        1.0  0.7856146610770479  0.1194267246976466  0.8499440531083382  1.0000
  H   H2        1.0  0.2143794594739603  0.3805723948317664  0.3499434637789706  1.0000
  H   H3        1.0  0.21437032345193788  0.880569453540197  0.15005585237413047  1.0000
  H   H4        1.0  0.7856213483411949  0.6194284637354387  0.6500535410311985  1.0000
  H   H5        1.0  0.7236146958486243  0.9567724001482389  0.9169605558864975  1.0000
  H   H6        1.0  0.2764022893882725  0.543233672018289  0.41695743213141173  1.0000
  H   H7        1.0  0.276397348383746  0.04324027904243621  0.08303876947903893  1.0000
  H   H8        1.0  0.7236060144939246  0.4567683416560371  0.5830389925484314  1.0000
  H   H9        1.0  0.41293539775902116  0.070841211709407  0.8993133838689435  1.0000
  H   H10       1.0  0.587078431068484  0.4291625632548632  0.39931348283113993  1.0000
  H   H11       1.0  0.5870820646108756  0.9291666973011136  0.10068652164078175  1.0000
  H   H12       1.0  0.41293376200387416  0.5708370603372687  0.6006858425392922  1.0000
  H   H13       1.0  0.17093667957171746  0.7098540858341525  0.7745700769841408  1.0000
  H   H14       1.0  0.8290643892964412  0.7901461439841954  0.2745643656559622  1.0000
  H   H15       1.0  0.829068848720084  0.29014675276464175  0.2254367901628599  1.0000
  H   H16       1.0  0.1709400254762272  0.20985825977154351  0.7254343795679861  1.0000
  H   H17       1.0  0.065928363977939  0.7991681831798304  0.8627507954162825  1.0000
  H   H18       1.0  0.9340718214537986  0.7008284748171293  0.36274709349824985  1.0000
  H   H19       1.0  0.9340684214246123  0.20082794514010524  0.13725317103799037  1.0000
  H   H20       1.0  0.06592940198668633  0.2991735688071416  0.6372522318606502  1.0000
  H   H21       1.0  0.38536007379253334  0.6873221070492123  0.862423368800549  1.0000
  H   H22       1.0  0.6146441240538254  0.8126792812927875  0.3624201253654534  1.0000
  H   H23       1.0  0.6146387895305736  0.3126799465580846  0.13757885724201205  1.0000
  H   H24       1.0  0.3853594595488303  0.18732275234802392  0.6375791999957415  1.0000
  C   C1        1.0  0.6118984477815702  0.9292942853228113  0.7397494307227462  1.0000
  C   C2        1.0  0.38807641504356394  0.5707084349449688  0.23974360315139628  1.0000
  C   C3        1.0  0.38808389441530267  0.07070783816861594  0.26025337544093935  1.0000
  C   C4        1.0  0.6119288308901574  0.4292983389257827  0.7602539817981226  1.0000
  C   C5        1.0  0.6104560332951293  0.021400867683375704  0.8724990725859175  1.0000
  C   C6        1.0  0.38953878386327995  0.47859824503402837  0.3724981718110883  1.0000
  C   C7        1.0  0.38953922302567895  0.9785976407358207  0.12749851235690812  1.0000
  C   C8        1.0  0.6104643841230057  0.5214026035496248  0.6274994131385656  1.0000
  C   C9        1.0  0.2645051801430328  0.7684845493735966  0.828221233829787  1.0000
  C   C10       1.0  0.7354992081068942  0.731520404470679  0.3282159636737206  1.0000
  C   C11       1.0  0.7354945144127994  0.2315198743480097  0.17178447303585645  1.0000
  C   C12       1.0  0.26450243089620057  0.2684828242112759  0.6717816212735885  1.0000
  Br  Br1       1.0  0.18975471924082413  0.8054887932670028  0.5122059167632217  1.0000
  Br  Br2       1.0  0.810238528810061  0.6945055805189784  0.012206039955508206  1.0000
  Br  Br3       1.0  0.8102526201503649  0.19450372996389126  0.4877945688794656  1.0000
  Br  Br4       1.0  0.18975506518863483  0.3054881876701857  0.9877938655361976  1.0000
  N   N1        1.0  0.7162850782305129  0.9409914839449913  0.6763283500264736  1.0000
  N   N2        1.0  0.2837007400796879  0.5590076404037634  0.17632522897593367  1.0000
  N   N3        1.0  0.2836999063343057  0.059004694292504205  0.3236738760047545  1.0000
  N   N4        1.0  0.7163011810664769  0.4409896530083375  0.8236677148762869  1.0000
  N   N5        1.0  0.4871647041626661  0.9136586633739018  0.8091302424550835  1.0000
  N   N6        1.0  0.512830351656916  0.5863415859565323  0.3091275464078152  1.0000
  N   N7        1.0  0.5128305522477276  0.0863398450444208  0.19087314385964765  1.0000
  N   N8        1.0  0.4871708717387691  0.41366045766817905  0.6908688782651355  1.0000
