data_image0
_chemical_formula_structural       Sc12H48C96O60
_chemical_formula_sum              "Sc12 H48 C96 O60"
_cell_length_a       12.512924885770008
_cell_length_b       15.464982396443864
_cell_length_c       25.235267722935717
_cell_angle_alpha    107.83723399098652
_cell_angle_beta     104.3485369853588
_cell_angle_gamma    90.00212268414822

_space_group_name_H-M_alt    "P 1"
_space_group_IT_number       1

loop_
  _space_group_symop_operation_xyz
  'x, y, z'

loop_
  _atom_site_type_symbol
  _atom_site_label
  _atom_site_symmetry_multiplicity
  _atom_site_fract_x
  _atom_site_fract_y
  _atom_site_fract_z
  _atom_site_occupancy
  Sc  Sc1       1.0  0.4803093445839222  0.0390082789366133  0.2107743135478302  1.0000
  Sc  Sc2       1.0  0.6860440467108475  0.9945236824147017  0.12219224132955017  1.0000
  Sc  Sc3       1.0  0.6028415449982916  0.7941848223266063  0.4556695610746501  1.0000
  Sc  Sc4       1.0  0.2305658663999992  0.1717684171781712  0.21080896363055496  1.0000
  Sc  Sc5       1.0  0.9361560192653184  0.12764383987320113  0.12220489398990247  1.0000
  Sc  Sc6       1.0  0.3527897237796722  0.6614193996715371  0.4556732677620943  1.0000
  Sc  Sc7       1.0  0.2694463221060133  0.4609400614141279  0.7892091471003937  1.0000
  Sc  Sc8       1.0  0.5638353528849293  0.5054422858549188  0.8778063591201074  1.0000
  Sc  Sc9       1.0  0.1471930001787172  0.7057831509483491  0.5443167541216595  1.0000
  Sc  Sc10      1.0  0.019686283086706214  0.3281924966908532  0.7891795848224916  1.0000
  Sc  Sc11      1.0  0.8139839276661006  0.3723331323533402  0.8777955436687392  1.0000
  Sc  Sc12      1.0  0.8971476842322302  0.8385458263179969  0.5443191365437626  1.0000
  H   H1        1.0  0.5753961384719374  0.13773279266022337  0.1611432674326565  1.0000
  H   H2        1.0  0.9250343432619983  0.9374226606743291  0.24996297990869454  1.0000
  H   H3        1.0  0.09637961867222339  0.021546272816969685  0.2919517699458325  1.0000
  H   H4        1.0  0.41366263614900584  0.9167589383518759  0.3334019013686742  1.0000
  H   H5        1.0  0.13739303379529128  0.81222021525609  0.37460061556121355  1.0000
  H   H6        1.0  0.008278434616443087  0.8963955794910845  0.4168976582226449  1.0000
  H   H7        1.0  0.6698581429079055  0.9168285243596229  0.3333363473209656  1.0000
  H   H8        1.0  0.24209417449024775  0.8533902566300213  0.08367733947689968  1.0000
  H   H9        1.0  0.07042570786248346  0.896047306822183  0.04098758413530848  1.0000
  H   H10       1.0  0.08578466502096659  0.02345989747583132  0.16114732596445694  1.0000
  H   H11       1.0  0.825056999936045  0.31248917010091765  0.24993696459687706  1.0000
  H   H12       1.0  0.6956814545590927  0.2704700549140782  0.2919805630427703  1.0000
  H   H13       1.0  0.4197417833797416  0.41662299091942856  0.3333828997099744  1.0000
  H   H14       1.0  0.7371082701021335  0.5624738654581591  0.3745781072735426  1.0000
  H   H15       1.0  0.9084755551071095  0.5204780296299703  0.4168337342344515  1.0000
  H   H16       1.0  0.1635256241884021  0.41659656545783  0.33338460502730527  1.0000
  H   H17       1.0  0.3415496509779317  0.2303281738317651  0.0837340644831599  1.0000
  H   H18       1.0  0.4705125383070408  0.1450498065710306  0.04099256873007558  1.0000
  H   H19       1.0  0.4142058833922133  0.3622489026706006  0.8388431373074994  1.0000
  H   H20       1.0  0.6749593225590258  0.5625779593903387  0.7501077303249487  1.0000
  H   H21       1.0  0.804269142315597  0.4784660857852997  0.7080016129040345  1.0000
  H   H22       1.0  0.08024101443992751  0.5832131394165996  0.6666275468706927  1.0000
  H   H23       1.0  0.7628589529001103  0.687859273235425  0.6253929067293525  1.0000
  H   H24       1.0  0.5915026780551143  0.603543385262398  0.5831496323602252  1.0000
  H   H25       1.0  0.3364759339983223  0.5831707149942601  0.6666128887555516  1.0000
  H   H26       1.0  0.15850139600734534  0.6465971702372783  0.9163209327334484  1.0000
  H   H27       1.0  0.029437091086528307  0.6040474176805972  0.9590110021317884  1.0000
  H   H28       1.0  0.9246245990047581  0.4765324711665641  0.838836232652774  1.0000
  H   H29       1.0  0.5750050164372453  0.1874884989041378  0.7500594197913202  1.0000
  H   H30       1.0  0.4036521551526562  0.2295815103369279  0.7080181795761292  1.0000
  H   H31       1.0  0.08634591191990644  0.08338786902753262  0.666615202943639  1.0000
  H   H32       1.0  0.3625620807736992  0.937588659236141  0.6254161792617055  1.0000
  H   H33       1.0  0.49171217801532646  0.9794951975644821  0.583152342632644  1.0000
  H   H34       1.0  0.8301338267584483  0.0834737193435444  0.6666595950417573  1.0000
  H   H35       1.0  0.2579297532923945  0.26964566988789307  0.9163260273965789  1.0000
  H   H36       1.0  0.42957190728030514  0.3550051912901182  0.9589687032416165  1.0000
  H   H37       1.0  0.8523123199299077  0.10229828644003897  0.20462253007507766  1.0000
  H   H38       1.0  0.6476807825239488  0.3977075044756118  0.7953658463209264  1.0000
  H   H39       1.0  0.3138873126830005  0.06387014691247118  0.1277797146905186  1.0000
  H   H40       1.0  0.18606639608571382  0.43609309966561216  0.8722118424052567  1.0000
  H   H41       1.0  0.5191935840760492  0.7691898541443508  0.5384118243791107  1.0000
  H   H42       1.0  0.9807882365010768  0.7307955294080771  0.46157413935614494  1.0000
  H   H43       1.0  0.7499834783269534  0.6923201124596047  0.4999978549836541  1.0000
  H   H44       1.0  0.24999032291084688  0.8076708223191743  0.49998891531981826  1.0000
  H   H45       1.0  0.49702989847870765  0.7500619509147697  1.5853612332237506e-05  1.0000
  H   H46       1.0  0.7531624787738875  0.750022191590844  3.181432809526436e-06  1.0000
  H   H47       1.0  0.0030148093557756184  0.250024720291961  0.9999976913496766  1.0000
  H   H48       1.0  0.7468326275652046  0.24998709018187543  0.9999956362130434  1.0000
  C   C1        1.0  0.7081243367384289  0.952376238030915  0.24014451241806967  1.0000
  C   C2        1.0  0.7905663583014969  0.9318685603413144  0.2878355825904392  1.0000
  C   C3        1.0  0.902162420795427  0.9296998641038312  0.28733873719097847  1.0000
  C   C4        1.0  0.9826989090831614  0.9170323645070579  0.333464818927176  1.0000
  C   C5        1.0  0.1009695850030709  0.9170777050364761  0.33345585931388644  1.0000
  C   C6        1.0  0.14669736176996645  0.9744265094512768  0.3097154806635628  1.0000
  C   C7        1.0  0.2579710099925663  0.9730255052772633  0.30851611679000257  1.0000
  C   C8        1.0  0.30214361497814207  0.02967338595914271  0.2789910184552582  1.0000
  C   C9        1.0  0.32668517198710834  0.9169327485041945  0.3334574264837116  1.0000
  C   C10       1.0  0.28274224564944456  0.8608582761323049  0.3583512586048982  1.0000
  C   C11       1.0  0.3561405279797184  0.8036441871702777  0.3875439321743243  1.0000
  C   C12       1.0  0.17026224966826212  0.8595887121506182  0.3571183578779653  1.0000
  C   C13       1.0  0.9481290163789137  0.9042952647953725  0.3795496727511106  1.0000
  C   C14       1.0  0.8359902536670063  0.9021784975367239  0.3790127167344152  1.0000
  C   C15       1.0  0.7568960419610133  0.916993970169159  0.3333978394184882  1.0000
  C   C16       1.0  0.8010417663867029  0.8819076569311974  0.42674205568131635  1.0000
  C   C17       1.0  0.45936762593216673  0.8774193924990713  0.09373190982723396  1.0000
  C   C18       1.0  0.3765263011885551  0.8099538965879561  0.04577406488858316  1.0000
  C   C19       1.0  0.26489905938864666  0.8084640009688825  0.04623395149309317  1.0000
  C   C20       1.0  0.020181248109025756  0.8311538018406351  0.023559635327657615  1.0000
  C   C21       1.0  0.9088996135773539  0.8310339477197106  0.024742499904874524  1.0000
  C   C22       1.0  0.864836788514296  0.917472276772699  0.053932266722469493  1.0000
  C   C23       1.0  0.03211653550036429  0.2877352247495395  0.2401548514834815  1.0000
  C   C24       1.0  0.9973740295684903  0.35600312824971064  0.2878140294618703  1.0000
  C   C25       1.0  0.8852475064443368  0.35764371045965493  0.2872975934045883  1.0000
  C   C26       1.0  0.8507370690815816  0.41645069314749605  0.3333869630537194  1.0000
  C   C27       1.0  0.7324657936825288  0.41645783346775284  0.3334034668714239  1.0000
  C   C28       1.0  0.663076331369062  0.33533439701381695  0.30971898335666737  1.0000
  C   C29       1.0  0.5506203585933419  0.3355033435643335  0.308520380452137  1.0000
  C   C30       1.0  0.4769900727943935  0.24930684683398846  0.2789990331188577  1.0000
  C   C31       1.0  0.5067642161688041  0.4165218648885017  0.33341981125551  1.0000
  C   C32       1.0  0.5755445864768446  0.49750617344951553  0.3583024042875635  1.0000
  C   C33       1.0  0.5313655178358161  0.5838513704925178  0.38756399145911047  1.0000
  C   C34       1.0  0.6867989387870563  0.4976011577157208  0.35707553740468967  1.0000
  C   C35       1.0  0.9313203323217604  0.47522964744254637  0.37949968869003914  1.0000
  C   C36       1.0  0.042930022376182785  0.47680120179818886  0.37900632059932343  1.0000
  C   C37       1.0  0.07651661500948848  0.4164440418578863  0.3333932824944341  1.0000
  C   C38       1.0  0.12554430926596888  0.5448130594193116  0.4267668794657381  1.0000
  C   C39       1.0  0.1343507826470329  0.2163821360599982  0.09378840172002609  1.0000
  C   C40       1.0  0.1692131082147768  0.23584086733274032  0.04580799540224939  1.0000
  C   C41       1.0  0.28132736505387607  0.23779580896671595  0.04627720508664619  1.0000
  C   C42       1.0  0.5033460848733214  0.19248323018510394  0.023547966808287423  1.0000
  C   C43       1.0  0.6158038539236372  0.1937325871038169  0.024736809961389387  1.0000
  C   C44       1.0  0.6890631151335709  0.1364748206411406  0.053930798775773794  1.0000
  C   C45       1.0  0.4678495520017518  0.5475523069802719  0.7598466328063438  1.0000
  C   C46       1.0  0.5026264671494046  0.5681334395367229  0.7121869560178736  1.0000
  C   C47       1.0  0.6147626778609518  0.5703085958412827  0.7127236789608559  1.0000
  C   C48       1.0  0.6492511406278112  0.583000299901194  0.6666043434643001  1.0000
  C   C49       1.0  0.7675100032216233  0.5830218374317153  0.6665749389365414  1.0000
  C   C50       1.0  0.8368850139549905  0.5256005010628683  0.6902703223762927  1.0000
  C   C51       1.0  0.9493490203827475  0.5269655171693229  0.6914718928718385  1.0000
  C   C52       1.0  0.0230693581750501  0.47032414966899677  0.7210000657254055  1.0000
  C   C53       1.0  0.993194571826393  0.5830617195243448  0.6665500369705981  1.0000
  C   C54       1.0  0.9244448379543682  0.6391781499321069  0.6416637495096679  1.0000
  C   C55       1.0  0.9686393423339651  0.6963532968734469  0.6124507373520345  1.0000
  C   C56       1.0  0.8131840386844048  0.6405027226986418  0.6429066460064446  1.0000
  C   C57       1.0  0.5686445381556949  0.5956586908356126  0.620493692148301  1.0000
  C   C58       1.0  0.4570498283461361  0.5978040834865368  0.6210054042534523  1.0000
  C   C59       1.0  0.4234814056187303  0.5830222744666002  0.6666147614153459  1.0000
  C   C60       1.0  0.374348064040447  0.6180461725592038  0.5732648444068784  1.0000
  C   C61       1.0  0.365637095204022  0.6225935709173241  0.906227141187017  1.0000
  C   C62       1.0  0.3308120506131615  0.6900596521713068  0.9542065057842493  1.0000
  C   C63       1.0  0.21872186380802108  0.6915334724081815  0.9537707346988995  1.0000
  C   C64       1.0  0.9966169268581735  0.6689376234357096  0.9764399121893064  1.0000
  C   C65       1.0  0.8841627167739572  0.6690147135534372  0.9752496546282855  1.0000
  C   C66       1.0  0.8109580536581119  0.582540315928419  0.9460583792681874  1.0000
  C   C67       1.0  0.791880610522412  0.21218250455886786  0.7598859393572823  1.0000
  C   C68       1.0  0.7094550035457556  0.1439695221600346  0.7122023534831213  1.0000
  C   C69       1.0  0.597849217260716  0.14235256244235475  0.7126919512107719  1.0000
  C   C70       1.0  0.5173192777971561  0.08356224554758981  0.6665733156555403  1.0000
  C   C71       1.0  0.39903833198066957  0.08359361934621738  0.6665588440152986  1.0000
  C   C72       1.0  0.3533325459938296  0.16470400677744815  0.6902702280602852  1.0000
  C   C73       1.0  0.2420659730362118  0.16449142174458578  0.6914722032461639  1.0000
  C   C74       1.0  0.19792750797771666  0.2506518172606961  0.7210022463291565  1.0000
  C   C75       1.0  0.17333587361855507  0.08346878033864871  0.6665758176494875  1.0000
  C   C76       1.0  0.2172603904178843  0.002503174540798548  0.6416788577453403  1.0000
  C   C77       1.0  0.14389671055033657  0.9161214998537728  0.6124244916637663  1.0000
  C   C78       1.0  0.329725627674641  0.0024517744263120797  0.642897527261347  1.0000
  C   C79       1.0  0.5518755694493293  0.02476514525506694  0.6204822392967628  1.0000
  C   C80       1.0  0.6639981685138635  0.023186721603486917  0.6209885802688005  1.0000
  C   C81       1.0  0.7431045230974788  0.08357810403699517  0.666615037059934  1.0000
  C   C82       1.0  0.6988651698668062  0.9551748838200281  0.5732271477960821  1.0000
  C   C83       1.0  0.04066112964888899  0.28365181184374  0.9062588676095517  1.0000
  C   C84       1.0  0.12350873229485158  0.2641739591380556  0.9542305710947616  1.0000
  C   C85       1.0  0.23513199606403382  0.26218430882555316  0.9537798413097676  1.0000
  C   C86       1.0  0.47982149630504267  0.3075608898005553  0.9764240137116998  1.0000
  C   C87       1.0  0.5911064471619766  0.30625543287471396  0.9752349884676761  1.0000
  C   C88       1.0  0.6351692471125858  0.3635460221778146  0.946065160339117  1.0000
  C   C89       1.0  0.4100082328890622  0.7500237174510572  0.9999897961785179  1.0000
  C   C90       1.0  0.1842546736500665  0.750002410153826  0.999995105221096  1.0000
  C   C91       1.0  0.0659768956931188  0.7500374497804003  0.9999992928406485  1.0000
  C   C92       1.0  0.8401683112394945  0.7500248970756971  2.82833637032198e-06  1.0000
  C   C93       1.0  0.0900261174284083  0.2500175248310441  1.5130769099892851e-05  1.0000
  C   C94       1.0  0.31577346202621465  0.25000797036645395  3.212570500467718e-05  1.0000
  C   C95       1.0  0.4340238822019343  0.2500407387628342  3.7273125740705858e-06  1.0000
  C   C96       1.0  0.6598184048531337  0.24998119806382127  0.9999832617066459  1.0000
  O   O1        1.0  0.7363220571900866  0.9460023392633515  0.19399902171282687  1.0000
  O   O2        1.0  0.6154038056112228  0.9772928939969103  0.24911980488533902  1.0000
  O   O3        1.0  0.6991827124719876  0.8575036382076888  0.41780414467694266  1.0000
  O   O4        1.0  0.8753762339657881  0.8881131720603646  0.4728458822046021  1.0000
  O   O5        1.0  0.31037178005969673  0.7400990311234636  0.3987341473056887  1.0000
  O   O6        1.0  0.4602115417045666  0.8234418016119703  0.40071645950661133  1.0000
  O   O7        1.0  0.3921871507961328  0.008647104685721338  0.2651319945054667  1.0000
  O   O8        1.0  0.24610230891866539  0.09385103510489759  0.2681422326534317  1.0000
  O   O9        1.0  0.5525002695939986  0.8926399894411076  0.08491688514185107  1.0000
  O   O10       1.0  0.4310262755274649  0.9170750345947736  0.1398385536535186  1.0000
  O   O11       1.0  0.9225680579215588  0.9919748877413354  0.06549579488135034  1.0000
  O   O12       1.0  0.7735477950452816  0.9111082653978926  0.06676619435371113  1.0000
  O   O13       1.0  0.5816323538700131  0.0776405944745449  0.16554012467921814  1.0000
  O   O14       1.0  0.9577398319202854  0.24780008619344324  0.19406661704758216  1.0000
  O   O15       1.0  0.1338261311292115  0.2718740187231248  0.2491037354072247  1.0000
  O   O16       1.0  0.21843755952058064  0.5603849785214121  0.41783149754313337  1.0000
  O   O17       1.0  0.09731049214599344  0.5846363193060711  0.4728870823091852  1.0000
  O   O18       1.0  0.588338241894469  0.6585841127744274  0.3987694594154902  1.0000
  O   O19       1.0  0.4405434448977628  0.5771904372664024  0.4007996179344814  1.0000
  O   O20       1.0  0.3730771638688211  0.25643722217127873  0.2651339863862958  1.0000
  O   O21       1.0  0.5222220432154926  0.17430533762031786  0.26813407883451384  1.0000
  O   O22       1.0  0.03236590050752138  0.19251262993586243  0.08502302210624887  1.0000
  O   O23       1.0  0.20885161021350027  0.22268838281041778  0.13984231749702755  1.0000
  O   O24       1.0  0.6429060446793996  0.07350317215884421  0.0654688512753054  1.0000
  O   O25       1.0  0.7931839848172542  0.15573170599761707  0.06680122086654448  1.0000
  O   O26       1.0  0.08395772852669837  0.08796780616077632  0.1656070366835536  1.0000
  O   O27       1.0  0.5421901875942864  0.5538060648365999  0.8059612092798999  1.0000
  O   O28       1.0  0.3661425446898505  0.5226943694950278  0.7508712950923665  1.0000
  O   O29       1.0  0.2814383041867855  0.6424886616290805  0.5822090548770618  1.0000
  O   O30       1.0  0.40256424240801175  0.6117733849521017  0.52714070758703  1.0000
  O   O31       1.0  0.9116550596575477  0.7598679289848816  0.6012382621251291  1.0000
  O   O32       1.0  0.05951796603591928  0.6765428972780185  0.5992608368486785  1.0000
  O   O33       1.0  0.1269710042812378  0.49136470268356186  0.7348592013569756  1.0000
  O   O34       1.0  0.9778921336370842  0.4061313042516304  0.7318431842871149  1.0000
  O   O35       1.0  0.4675833521574474  0.607370238191585  0.915030012515892  1.0000
  O   O36       1.0  0.2911721132566499  0.5829359996108393  0.8601377338425065  1.0000
  O   O37       1.0  0.8571688645023414  0.5080533965624454  0.9344995224728336  1.0000
  O   O38       1.0  0.706832398163513  0.5888512034662982  0.9332134774776577  1.0000
  O   O39       1.0  0.4159938295527041  0.4223580360104363  0.8344691273728841  1.0000
  O   O40       1.0  0.7636406215787798  0.2520193307499595  0.8060074387065725  1.0000
  O   O41       1.0  0.884616197633221  0.2281012891453429  0.7509245665988828  1.0000
  O   O42       1.0  0.8007053633815528  0.9396584942827457  0.5821520736241509  1.0000
  O   O43       1.0  0.6245108374291348  0.915309152706378  0.5271211248847933  1.0000
  O   O44       1.0  0.18969239856914294  0.8414042467867728  0.6012480605427725  1.0000
  O   O45       1.0  0.039837239476355486  0.9227509986844707  0.5991450386477268  1.0000
  O   O46       1.0  0.10786532905627412  0.2435018983161327  0.7348516879028536  1.0000
  O   O47       1.0  0.25402083586978813  0.325660527479492  0.7318661803584021  1.0000
  O   O48       1.0  0.9474680685251968  0.3075562307983687  0.9150405782398963  1.0000
  O   O49       1.0  0.06907980575130779  0.27731798927897694  0.8601847921800639  1.0000
  O   O50       1.0  0.5774469819332422  0.4264941559405884  0.9345234729850276  1.0000
  O   O51       1.0  0.7264566448094951  0.3443502153652246  0.9332238893049264  1.0000
  O   O52       1.0  0.9182911642172298  0.4120229400568077  0.8343676256228321  1.0000
  O   O53       1.0  0.8314745863498343  0.08125403067342768  0.16280300373806264  1.0000
  O   O54       1.0  0.668626523152632  0.4186456023336901  0.8371862313103761  1.0000
  O   O55       1.0  0.33483662431586936  0.08480527962808536  0.16959986109169017  1.0000
  O   O56       1.0  0.165132091672767  0.41518100616480064  0.8303915586014483  1.0000
  O   O57       1.0  0.4983456257539201  0.7481619826528673  0.496588915156309  1.0000
  O   O58       1.0  0.0017559042923735893  0.7517697103250995  0.5033965774474112  1.0000
  O   O59       1.0  0.7499903228508413  0.7550500278274157  0.5000074410472806  1.0000
  O   O60       1.0  0.24998128101822903  0.7449423861887184  0.49998353452306077  1.0000
