data_image0
_chemical_formula_structural       Ag4H36C32N20O8
_chemical_formula_sum              "Ag4 H36 C32 N20 O8"
_cell_length_a       8.29966246004191
_cell_length_b       10.613385006384975
_cell_length_c       12.460539513287173
_cell_angle_alpha    116.31488838132442
_cell_angle_beta     90.0000140332676
_cell_angle_gamma    90.0003158479711

_space_group_name_H-M_alt    "P 1"
_space_group_IT_number       1

loop_
  _space_group_symop_operation_xyz
  'x, y, z'

loop_
  _atom_site_type_symbol
  _atom_site_label
  _atom_site_symmetry_multiplicity
  _atom_site_fract_x
  _atom_site_fract_y
  _atom_site_fract_z
  _atom_site_occupancy
  Ag  Ag1       1.0  0.3000986258172418  0.9257748489661926  0.37323316262930467  1.0000
  Ag  Ag2       1.0  0.8000966766941816  0.0742225424500944  0.1267654079265199  1.0000
  Ag  Ag3       1.0  0.6999011372933949  0.07422180928637803  0.626763604717759  1.0000
  Ag  Ag4       1.0  0.19990790590895097  0.9257793996347917  0.8732365376199882  1.0000
  H   H1        1.0  0.5714581372529536  0.6355433557857922  0.7950693156322118  1.0000
  H   H2        1.0  0.0714609407988505  0.364454002157281  0.704930975080231  1.0000
  H   H3        1.0  0.42854042098625206  0.36445227255318724  0.20492947577253776  1.0000
  H   H4        1.0  0.9285303882655569  0.6355511356224639  0.2950769760290086  1.0000
  H   H5        1.0  0.446002872632164  0.7631520234407462  0.7794506915462236  1.0000
  H   H6        1.0  0.9460032953949805  0.2368432126675089  0.7205496767770826  1.0000
  H   H7        1.0  0.5539968904788495  0.23684464894526525  0.22054768616813195  1.0000
  H   H8        1.0  0.053988033660843406  0.7631597804910657  0.27945266024649135  1.0000
  H   H9        1.0  0.3657713208202935  0.5979106632294988  0.7566704726215577  1.0000
  H   H10       1.0  0.8657728999481192  0.40208727454182747  0.743330085401233  1.0000
  H   H11       1.0  0.6342260325539826  0.4020860020831166  0.24332709990645182  1.0000
  H   H12       1.0  0.13421722423552043  0.5979146604362741  0.25667105494544984  1.0000
  H   H13       1.0  0.6510086886484319  0.39378899728419736  0.610934620248095  1.0000
  H   H14       1.0  0.15100481119431208  0.6062129917794579  0.8890658041266235  1.0000
  H   H15       1.0  0.3489922793495027  0.6062129306572218  0.3890657149270781  1.0000
  H   H16       1.0  0.8489913373230634  0.39378683392778413  0.11093374805936662  1.0000
  H   H17       1.0  0.24514272726179334  0.3895093499608323  0.3972783828879827  1.0000
  H   H18       1.0  0.7451420813665521  0.610486678742774  0.10271886797804806  1.0000
  H   H19       1.0  0.7548558309882195  0.6104894175759487  0.6027199726251666  1.0000
  H   H20       1.0  0.2548516574099721  0.38951207464720744  0.8972778771624095  1.0000
  H   H21       1.0  0.496444961086823  0.5350345712289482  0.11489475104114182  1.0000
  H   H22       1.0  0.9964446245642266  0.4649639011820029  0.38510345384312933  1.0000
  H   H23       1.0  0.5035548020353743  0.4649652544883055  0.8851048011488915  1.0000
  H   H24       1.0  0.0035527288178869004  0.5350348804848865  0.6148965120359549  1.0000
  H   H25       1.0  0.47990024777219287  0.681445201982392  0.26091708282202575  1.0000
  H   H26       1.0  0.9798976306774916  0.31855320700628914  0.23908430575986026  1.0000
  H   H27       1.0  0.5201007202143657  0.31855356556106074  0.7390812726938165  1.0000
  H   H28       1.0  0.0201045421931951  0.6814498003157824  0.7609196416431345  1.0000
  H   H29       1.0  0.2569180698660674  0.09756577769419295  0.2663630676680668  1.0000
  H   H30       1.0  0.7569146843569498  0.9024324114092155  0.23363418735348784  1.0000
  H   H31       1.0  0.7430816932555686  0.9024340268228956  0.7336340689710283  1.0000
  H   H32       1.0  0.2430923079711746  0.0975663632176591  0.7663649733527508  1.0000
  H   H33       1.0  0.2075112136823449  0.09770552426594042  0.127833711625513  1.0000
  H   H34       1.0  0.70750908834507  0.9022902958978277  0.37216345500281983  1.0000
  H   H35       1.0  0.7924897543006749  0.9022921992338269  0.8721650575820802  1.0000
  H   H36       1.0  0.2924991088444385  0.09770639771171831  0.6278373382719096  1.0000
  C   C1        1.0  0.42803678990738087  0.7179457563520941  0.11513158334848583  1.0000
  C   C2        1.0  0.9280363883922647  0.2820523581736723  0.38486888395878793  1.0000
  C   C3        1.0  0.5719653829547227  0.28205510634880687  0.8848667499688503  1.0000
  C   C4        1.0  0.0719718088088044  0.7179475029005646  0.6151346941589182  1.0000
  C   C5        1.0  0.41240386583608313  0.7392742016875432  0.9410601529303549  1.0000
  C   C6        1.0  0.9124055935698295  0.26072187814504844  0.5589381161258729  1.0000
  C   C7        1.0  0.5875946924107607  0.26072353593899333  0.05894022664183754  1.0000
  C   C8        1.0  0.08759175982011412  0.739279019876115  0.44106424310430015  1.0000
  C   C9        1.0  0.45063290518412197  0.6817291722609583  0.8108798436968954  1.0000
  C   C10       1.0  0.9506338804162126  0.31826712648321387  0.6891193161157007  1.0000
  C   C11       1.0  0.5493656530588069  0.3182675071884375  0.1891193391997561  1.0000
  C   C12       1.0  0.04935865350789469  0.6817358666787001  0.31088302090921627  1.0000
  C   C13       1.0  0.32184522147740324  0.9200870735613265  0.11670104667183519  1.0000
  C   C14       1.0  0.8218470306831449  0.07991464281619902  0.3832991385343121  1.0000
  C   C15       1.0  0.6781569513772466  0.07991168691874863  0.8832965036617111  1.0000
  C   C16       1.0  0.17816598600089867  0.9200883221355768  0.6166999777789499  1.0000
  C   C17       1.0  0.38151647175540393  0.24587902289603394  0.5072461952575011  1.0000
  C   C18       1.0  0.8815097521975446  0.7541189738374572  0.992751177266058  1.0000
  C   C19       1.0  0.6184857011108066  0.754122905048732  0.49275413991902195  1.0000
  C   C20       1.0  0.11848398657935631  0.24587979368597257  0.0072471782416912356  1.0000
  C   C21       1.0  0.585742331968028  0.4407216925973215  0.5620150471295986  1.0000
  C   C22       1.0  0.08574055831860508  0.5592799206639756  0.9379836207850829  1.0000
  C   C23       1.0  0.41425984089445217  0.5592791842370277  0.4379848965550225  1.0000
  C   C24       1.0  0.9142579999388615  0.44072094909363824  0.062015517711849134  1.0000
  C   C25       1.0  0.44194348346369594  0.3779672440033367  0.504546190288103  1.0000
  C   C26       1.0  0.9419406675327694  0.6220332110193924  0.9954545160370429  1.0000
  C   C27       1.0  0.5580610991314217  0.6220325746605512  0.4954525567236844  1.0000
  C   C28       1.0  0.0580590955972653  0.37796873105213546  0.0045474295040719166  1.0000
  C   C29       1.0  0.35646309688244315  0.43868919655816546  0.4423559795373251  1.0000
  C   C30       1.0  0.8564608864019476  0.5613074490250369  0.057641520511374694  1.0000
  C   C31       1.0  0.6435402808404832  0.5613095639252421  0.5576415707975642  1.0000
  C   C32       1.0  0.14353526211542086  0.43869237668220523  0.9423580316746155  1.0000
  N   N1        1.0  0.3685842395436437  0.8495277338131405  0.17977050935192568  1.0000
  N   N2        1.0  0.8685841031993674  0.15047108823290503  0.3202286059990342  1.0000
  N   N3        1.0  0.6314143187100923  0.15047208483405686  0.8202282376531117  1.0000
  N   N4        1.0  0.13142288914311  0.8495318696354559  0.6797697051238315  1.0000
  N   N5        1.0  0.4550487128378363  0.660985497117345  0.9951016201205293  1.0000
  N   N6        1.0  0.9550485523577734  0.3390108260939614  0.5048975495753325  1.0000
  N   N7        1.0  0.5449498453978235  0.33900908717794215  0.0048975849759785505  1.0000
  N   N8        1.0  0.04494759616724759  0.6609911089008379  0.4951035907780934  1.0000
  N   N9        1.0  0.4622800827550789  0.6374275992258304  0.16953366443942738  1.0000
  N   N10       1.0  0.9622802180963606  0.3625717561716898  0.33046727101204004  1.0000
  N   N11       1.0  0.5377196803635799  0.36257118244773073  0.830466301442364  1.0000
  N   N12       1.0  0.03772195477003489  0.6374301788397931  0.669533869348129  1.0000
  N   N13       1.0  0.33826274266807843  0.8646752742561934  0.9948834979634285  1.0000
  N   N14       1.0  0.8382611682697386  0.13532144582323014  0.505114996620236  1.0000
  N   N15       1.0  0.6617358155856579  0.1353245443910041  0.005115249041615814  1.0000
  N   N16       1.0  0.16174220945728726  0.864678379904042  0.49488455557384736  1.0000
  N   N17       1.0  0.2573745221012089  0.04740376644986811  0.17416140644002806  1.0000
  N   N18       1.0  0.757372727132349  0.9525912789228673  0.3258354803130104  1.0000
  N   N19       1.0  0.7426264458890798  0.9525960522040081  0.8258373405677091  1.0000
  N   N20       1.0  0.24263787978961202  0.04740434944950071  0.6741633111052324  1.0000
  O   O1        1.0  0.283695346751486  0.17019197853355914  0.42504119466079265  1.0000
  O   O2        1.0  0.7836853682536784  0.829803212673845  0.07495575100078615  1.0000
  O   O3        1.0  0.7163044163783637  0.8298099564712518  0.5749599456966764  1.0000
  O   O4        1.0  0.21630837052695276  0.17019660595999409  0.9250429959988651  1.0000
  O   O5        1.0  0.43041957743515974  0.2156958071198716  0.5902270624252495  1.0000
  O   O6        1.0  0.9304154434476433  0.7843066862600949  0.9097744010865867  1.0000
  O   O7        1.0  0.5695850051672267  0.7843061066981253  0.40977166238667456  1.0000
  O   O8        1.0  0.0695819099421087  0.2156942046943442  0.09022715295994031  1.0000
