data_image0
_chemical_formula_structural       Cd2H32C42N4O8
_chemical_formula_sum              "Cd2 H32 C42 N4 O8"
_cell_length_a       8.70432136308281
_cell_length_b       10.557164135517358
_cell_length_c       10.868891515929569
_cell_angle_alpha    106.54168942686489
_cell_angle_beta     91.89363912195375
_cell_angle_gamma    91.40521246022266

_space_group_name_H-M_alt    "P 1"
_space_group_IT_number       1

loop_
  _space_group_symop_operation_xyz
  'x, y, z'

loop_
  _atom_site_type_symbol
  _atom_site_label
  _atom_site_symmetry_multiplicity
  _atom_site_fract_x
  _atom_site_fract_y
  _atom_site_fract_z
  _atom_site_occupancy
  Cd  Cd1       1.0  0.3217410453485172  0.8272688602560196  0.13365754598506643  1.0000
  Cd  Cd2       1.0  0.6782596796103562  0.17273312947630612  0.8663460550001074  1.0000
  H   H1        1.0  0.0612175746599988  0.19658351374047814  0.020883192781738596  1.0000
  H   H2        1.0  0.9387808785683589  0.8034186109603778  0.9791121020137721  1.0000
  H   H3        1.0  0.9680388057425587  0.42359455727433454  0.07411553930418784  1.0000
  H   H4        1.0  0.0319527384178571  0.5764075557734287  0.9258841584489375  1.0000
  H   H5        1.0  0.1325053128795659  0.49084706611664314  0.46681891656797336  1.0000
  H   H6        1.0  0.8674964825095586  0.5091530416216443  0.5331768100319251  1.0000
  H   H7        1.0  0.22854419469317122  0.2622264007603476  0.4115079025475552  1.0000
  H   H8        1.0  0.7714588096162345  0.7377747257386175  0.5884853917937676  1.0000
  H   H9        1.0  0.9937118695356943  0.6602124116367207  0.40887153043887986  1.0000
  H   H10       1.0  0.006282911746367897  0.33978569420301596  0.5911289416575514  1.0000
  H   H11       1.0  0.8920481835788507  0.6266898364488896  0.25632597283433967  1.0000
  H   H12       1.0  0.10794911178196999  0.3733122581052868  0.7436720410991384  1.0000
  H   H13       1.0  0.2415137875399154  0.8578446923592509  0.8643374360056982  1.0000
  H   H14       1.0  0.7584891422476403  0.1421553413860366  0.1356629018378896  1.0000
  H   H15       1.0  0.28330363299937733  0.7591084363769552  0.6300169442786441  1.0000
  H   H16       1.0  0.7166992909209071  0.240891571333421  0.36998522616035245  1.0000
  H   H17       1.0  0.5826333241935587  0.481586185650933  0.7364384317897076  1.0000
  H   H18       1.0  0.4173696566467343  0.5184148367083665  0.2635621929332643  1.0000
  H   H19       1.0  0.5329097401662892  0.5952222532109274  0.9636571504950735  1.0000
  H   H20       1.0  0.4670896344486339  0.4047758039885493  0.03634435691968459  1.0000
  H   H21       1.0  0.40068732500553494  0.6039598034221711  0.46240797864572153  1.0000
  H   H22       1.0  0.5993142996235434  0.3960372603693614  0.5375923851022435  1.0000
  H   H23       1.0  0.6749340180972823  0.8735928388215513  0.0658596353705291  1.0000
  H   H24       1.0  0.3250621135287232  0.1264091995510341  0.9341429302963321  1.0000
  H   H25       1.0  0.9230177302276562  0.9520644427881703  0.18267831727516162  1.0000
  H   H26       1.0  0.07697851523838041  0.047939624882261014  0.8173211569596504  1.0000
  H   H27       1.0  0.7107815717862708  0.923812546095874  0.5301151766413951  1.0000
  H   H28       1.0  0.289222396161513  0.0761854624633358  0.469887366091676  1.0000
  H   H29       1.0  0.4724103754545936  0.8398488552484694  0.3961428925160604  1.0000
  H   H30       1.0  0.527590238597881  0.16015111820347266  0.6038628836034547  1.0000
  H   H31       1.0  0.07935890641789461  0.0101521999648426  0.3778982584474875  1.0000
  H   H32       1.0  0.9206418783946261  0.9898508174338548  0.6221028805239611  1.0000
  C   C1        1.0  0.21596681379377003  0.07982848603808182  0.1786067520670542  1.0000
  C   C2        1.0  0.7840327374484773  0.9201726411430682  0.8213882856042218  1.0000
  C   C3        1.0  0.15266729584821087  0.21487894569589372  0.21238888257899188  1.0000
  C   C4        1.0  0.8473310523410333  0.7851211887594969  0.787606754755444  1.0000
  C   C5        1.0  0.07778723976375798  0.2613110938932408  0.11835855111512926  1.0000
  C   C6        1.0  0.9222099622924989  0.7386890624853065  0.8816361401664421  1.0000
  C   C7        1.0  0.0242524528188852  0.38922260537662373  0.14929047784484337  1.0000
  C   C8        1.0  0.9757401441699542  0.610777547572354  0.85070684330924  1.0000
  C   C9        1.0  0.04411023145123491  0.473477016097597  0.27485662642276754  1.0000
  C   C10       1.0  0.9558834635514871  0.526522139331675  0.7251404376070738  1.0000
  C   C11       1.0  0.11616404334587568  0.42577317940791914  0.3691358971349956  1.0000
  C   C12       1.0  0.8838342479233533  0.5742259403985486  0.630861285915465  1.0000
  C   C13       1.0  0.16975586754077912  0.2979122680212924  0.3385265910347854  1.0000
  C   C14       1.0  0.8302436355823631  0.7020878835633154  0.6614672434593912  1.0000
  C   C15       1.0  0.0014509844995061027  0.6162390305441717  0.30488631892009715  1.0000
  C   C16       1.0  0.9985449998355591  0.3837600680213241  0.695113553513174  1.0000
  C   C17       1.0  0.1296888949080568  0.6901330097287753  0.25752680442616327  1.0000
  C   C18       1.0  0.870311628773493  0.3098650385649933  0.7424747327437372  1.0000
  C   C19       1.0  0.31607378782365464  0.7747395247198554  0.8308122200059742  1.0000
  C   C20       1.0  0.6839290850438858  0.22525949437651602  0.16918966355363096  1.0000
  C   C21       1.0  0.33952286322067243  0.7188165836639654  0.7011286602830822  1.0000
  C   C22       1.0  0.6604776633945164  0.28118147764725876  0.29887196058911764  1.0000
  C   C23       1.0  0.43525207721195613  0.6104136300562502  0.6618029258603926  1.0000
  C   C24       1.0  0.5647519447222109  0.3895853801344201  0.338198987454362  1.0000
  C   C25       1.0  0.5052545245685778  0.5640910998693585  0.7590346652023285  1.0000
  C   C26       1.0  0.4947495513519726  0.4359089119527795  0.24096661869410949  1.0000
  C   C27       1.0  0.47746326505878767  0.6268372924655025  0.8863059060772824  1.0000
  C   C28       1.0  0.5225373607282435  0.37316273305627584  0.11369620485140078  1.0000
  C   C29       1.0  0.4580643764685774  0.5536052232581454  0.5253762950073478  1.0000
  C   C30       1.0  0.5419395914792136  0.4463927853010646  0.4746262477257233  1.0000
  C   C31       1.0  0.6876737596380949  0.883008045803578  0.16826547992241087  1.0000
  C   C32       1.0  0.312325612043189  0.1169899983784362  0.8317369437900481  1.0000
  C   C33       1.0  0.8264306484705343  0.9288462269822304  0.2346783426508025  1.0000
  C   C34       1.0  0.17356883411714824  0.07115383348016728  0.7653219059273154  1.0000
  C   C35       1.0  0.8406214249573197  0.9444593823212485  0.36751337971827513  1.0000
  C   C36       1.0  0.15938155294934123  0.05554162702058817  0.6324881613024047  1.0000
  C   C37       1.0  0.7095817245199073  0.9124171459707567  0.42709694454658376  1.0000
  C   C38       1.0  0.2904199001091641  0.0875799178207686  0.5729034192013813  1.0000
  C   C39       1.0  0.5760020639144798  0.8661607555585957  0.35388983363989  1.0000
  C   C40       1.0  0.42400080015215025  0.13383822448539456  0.6461147988128317  1.0000
  C   C41       1.0  0.9867143516697964  0.9909224399182576  0.4363152689241615  1.0000
  C   C42       1.0  0.0132876332620953  0.009081557188743301  0.5636861866818278  1.0000
  N   N1        1.0  0.3841625481177857  0.7301762550271108  0.9227886131655865  1.0000
  N   N2        1.0  0.6158392777886093  0.2698247502029644  0.07721381439765199  1.0000
  N   N3        1.0  0.5642628744848821  0.8510400220990985  0.22614359959715796  1.0000
  N   N4        1.0  0.4357353451961359  0.14895801797116087  0.7738597106578523  1.0000
  O   O1        1.0  0.20627991689885053  0.007027408661144799  0.0625437186147053  1.0000
  O   O2        1.0  0.7937229677032464  0.9929716625050702  0.9374544997540681  1.0000
  O   O3        1.0  0.2784251940839582  0.03993814000066459  0.2689316541306965  1.0000
  O   O4        1.0  0.721574396476477  0.9600639237246541  0.7310673356107954  1.0000
  O   O5        1.0  0.10051984172324778  0.7211837739255741  0.1532995544911343  1.0000
  O   O6        1.0  0.899481981249508  0.27881721828704537  0.8467037893698047  1.0000
  O   O7        1.0  0.25838187843419297  0.712626639407425  0.31837007343548857  1.0000
  O   O8        1.0  0.7416184351691159  0.28736742839542023  0.6816321488122697  1.0000
