data_image0
_chemical_formula_structural       CuH20C26S8N14O14
_chemical_formula_sum              "Cu1 H20 C26 S8 N14 O14"
_cell_length_a       8.57213684921487
_cell_length_b       11.397335363116934
_cell_length_c       11.688287222876033
_cell_angle_alpha    66.70846856673492
_cell_angle_beta     71.49208730002209
_cell_angle_gamma    75.1527399796305

_space_group_name_H-M_alt    "P 1"
_space_group_IT_number       1

loop_
  _space_group_symop_operation_xyz
  'x, y, z'

loop_
  _atom_site_type_symbol
  _atom_site_label
  _atom_site_symmetry_multiplicity
  _atom_site_fract_x
  _atom_site_fract_y
  _atom_site_fract_z
  _atom_site_occupancy
  Cu  Cu1       1.0  0.5000003956471559  3.451526212009518e-07  0.4999995311241039  1.0000
  H   H1        1.0  0.13330413139367184  0.14019097479996387  0.4816703829986723  1.0000
  H   H2        1.0  0.8666942936403075  0.8598097404629711  0.5183298017282143  1.0000
  H   H3        1.0  0.20560304775707294  0.6544154630648149  0.8954702752703131  1.0000
  H   H4        1.0  0.7943953596676252  0.3455852378721003  0.10452820807077508  1.0000
  H   H5        1.0  0.27135083919957753  0.7328450681430069  0.9741880424559928  1.0000
  H   H6        1.0  0.7286461550895144  0.2671566014982787  0.025811252683283183  1.0000
  H   H7        1.0  0.002479406030509782  0.553366703450756  0.10412239519062892  1.0000
  H   H8        1.0  0.997520624830976  0.4466320769550832  0.8958773117035437  1.0000
  H   H9        1.0  0.06266765695326632  0.636218026183819  0.1795006185573912  1.0000
  H   H10       1.0  0.9373334016600269  0.3637817178231018  0.8204976086076389  1.0000
  H   H11       1.0  0.5039499545316347  0.9039864353271625  0.29378139991671054  1.0000
  H   H12       1.0  0.4960496909460518  0.09601427738412839  0.7062176390465141  1.0000
  H   H13       1.0  0.19711809801493982  0.41735223004651073  0.24537170335734274  1.0000
  H   H14       1.0  0.802881556267387  0.5826484898277826  0.7546281862987743  1.0000
  H   H15       1.0  0.35604919005388785  0.5129841283962193  0.13951274516953305  1.0000
  H   H16       1.0  0.6439502715365396  0.4870175576307998  0.86048681052111  1.0000
  H   H17       1.0  0.739348011127973  0.5492890510243524  0.2511752323972303  1.0000
  H   H18       1.0  0.26065392656842334  0.4507126585514101  0.7488254345376579  1.0000
  H   H19       1.0  0.20232540238578883  0.6092805555811082  0.3581772437504044  1.0000
  H   H20       1.0  0.7976758665286853  0.39071823659909916  0.6418230187658908  1.0000
  C   C1        1.0  0.13274206342596534  0.06447600326706748  0.5744972041082621  1.0000
  C   C2        1.0  0.8672590127966091  0.9355237550658657  0.42550272444255927  1.0000
  C   C3        1.0  0.07982513732899585  0.9139849854218837  0.7883828216036621  1.0000
  C   C4        1.0  0.9201748935324973  0.08601379498396257  0.2116168852905105  1.0000
  C   C5        1.0  0.16769687237562186  0.6925382338152558  0.9746738435645671  1.0000
  C   C6        1.0  0.8323019292375236  0.30746054197921774  0.02532615840037524  1.0000
  C   C7        1.0  0.10791543645531486  0.5912689633384502  0.10475254654473083  1.0000
  C   C8        1.0  0.8920831548566427  0.4087307642827369  0.8952454200689459  1.0000
  C   C9        1.0  0.45677729586048343  0.006511306622691399  0.2603493011179553  1.0000
  C   C10       1.0  0.5432211291735032  0.9934894086402364  0.7396508836089313  1.0000
  C   C11       1.0  0.36311584331348  0.22869090671551354  0.15665076109718978  1.0000
  C   C12       1.0  0.6368829406903842  0.7713078547529474  0.8433475394819612  1.0000
  C   C13       1.0  0.24351772432751773  0.47893863933451525  0.14630226430698204  1.0000
  C   C14       1.0  0.7564821138420685  0.5210611072240495  0.8536971086217096  1.0000
  C   C15       1.0  0.4749155052263632  0.324759518874032  0.45804237211435633  1.0000
  C   C16       1.0  0.5250841490559636  0.6752412010002616  0.5419575175417535  1.0000
  C   C17       1.0  0.62555209283547  0.38265081862159167  0.3826505107070732  1.0000
  C   C18       1.0  0.3744485891986571  0.6173508648537903  0.6173478992198941  1.0000
  C   C19       1.0  0.6236074670011362  0.5105340434344825  0.3042766293769861  1.0000
  C   C20       1.0  0.3763932414469125  0.48946766152991467  0.6957243326286788  1.0000
  C   C21       1.0  0.4717233700160932  0.5911615706040221  0.2948881547595264  1.0000
  C   C22       1.0  0.5282752829283552  0.4088382071582047  0.7051157667044239  1.0000
  C   C23       1.0  0.3199555581592363  0.5449420244021467  0.36480067089946305  1.0000
  C   C24       1.0  0.6800432610631901  0.4550567657183392  0.6352010324512708  1.0000
  C   C25       1.0  0.323854847448743  0.41844836684477105  0.4445506576920268  1.0000
  C   C26       1.0  0.676145411323212  0.5815494760603669  0.5554527859392097  1.0000
  S   S1        1.0  0.9564871932762742  0.03661617213280979  0.694743815701962  1.0000
  S   S2        1.0  0.043512653697952465  0.9633835815887648  0.30525640791962877  1.0000
  S   S3        1.0  0.9948208276993853  0.8229183675102688  0.9444070588020288  1.0000
  S   S4        1.0  0.005177763612579201  0.1770813601109182  0.05559090781164143  1.0000
  S   S5        1.0  0.4247571276468207  0.09155557214528187  0.11109837060769229  1.0000
  S   S6        1.0  0.5752418666582245  0.9084422374964659  0.8889019653227241  1.0000
  S   S7        1.0  0.3014371676383051  0.37648928414476757  0.048401742599047295  1.0000
  S   S8        1.0  0.6985636894784407  0.6235114188518763  0.9515952999076024  1.0000
  N   N1        1.0  0.2660748499249763  0.9868149420857647  0.6066422063197693  1.0000
  N   N2        1.0  0.7339272716586792  0.0131857941742695  0.3933579438877005  1.0000
  N   N3        1.0  0.23842434124392042  0.8991434525695253  0.7282648270942078  1.0000
  N   N4        1.0  0.761575137955788  0.10085824778350629  0.27173642998222663  1.0000
  N   N5        1.0  0.42300238262470213  0.0772843725300305  0.33290285181507784  1.0000
  N   N6        1.0  0.5769993359658657  0.922718281709443  0.6670949290756456  1.0000
  N   N7        1.0  0.36930285153376735  0.20509803039320934  0.2754722458218098  1.0000
  N   N8        1.0  0.6306955470862833  0.7949026633807035  0.724525386826386  1.0000
  N   N9        1.0  0.7869442167700171  0.30425680325267007  0.38890862736264636  1.0000
  N   N10       1.0  0.2130540067674219  0.6957448709999737  0.6110903727058671  1.0000
  N   N11       1.0  0.47093831564736655  0.7221910298873837  0.20972384765011762  1.0000
  N   N12       1.0  0.529061732823408  0.27780776484446784  0.7902775606298463  1.0000
  N   N13       1.0  0.16657320031945494  0.3716065030306908  0.5188955968695412  1.0000
  N   N14       1.0  0.8334274526409544  0.6283894147319984  0.48110936538554233  1.0000
  O   O1        1.0  0.7993708140631882  0.2148645098501518  0.49152331518541836  1.0000
  O   O2        1.0  0.20063109721928646  0.7851371782365886  0.5084747996707795  1.0000
  O   O3        1.0  0.9051133591049165  0.3307345035969575  0.29209718185462924  1.0000
  O   O4        1.0  0.09488609368086293  0.669267175267059  0.7079015231431144  1.0000
  O   O5        1.0  0.6060924376873517  0.7663945231432975  0.16050248837694886  1.0000
  O   O6        1.0  0.39390597854198733  0.2336061849566206  0.8394968456570383  1.0000
  O   O7        1.0  0.3357440705327478  0.7868304818965228  0.1859830997155499  1.0000
  O   O8        1.0  0.6642559691333859  0.213168305672319  0.8140174578715149  1.0000
  O   O9        1.0  0.058656236683141606  0.39047714078628093  0.46039150191643335  1.0000
  O   O10       1.0  0.9413463986839332  0.6095149026508648  0.5396127997439991  1.0000
  O   O11       1.0  0.1495537530858257  0.3142781657009123  0.6359627926847581  1.0000
  O   O12       1.0  0.850450780311512  0.6857167997431475  0.36404161832349774  1.0000
  O   O13       1.0  0.47112890709271954  0.20754268850849655  0.5230367777724042  1.0000
  O   O14       1.0  0.5288756817922718  0.7924580641372714  0.4769636329864257  1.0000
