data_image0
_chemical_formula_structural       Cd2H16C18N10O10
_chemical_formula_sum              "Cd2 H16 C18 N10 O10"
_cell_length_a       7.0470730632796945
_cell_length_b       8.289676530147387
_cell_length_c       10.642415517775468
_cell_angle_alpha    82.81902459944355
_cell_angle_beta     84.54548265117928
_cell_angle_gamma    74.5714919222681

_space_group_name_H-M_alt    "P 1"
_space_group_IT_number       1

loop_
  _space_group_symop_operation_xyz
  'x, y, z'

loop_
  _atom_site_type_symbol
  _atom_site_label
  _atom_site_symmetry_multiplicity
  _atom_site_fract_x
  _atom_site_fract_y
  _atom_site_fract_z
  _atom_site_occupancy
  Cd  Cd1       1.0  0.4999969602710054  0.4999988700860243  1.2712648427065504e-06  1.0000
  Cd  Cd2       1.0  0.5000044400042539  0.49999685913835623  0.5000005143224157  1.0000
  H   H1        1.0  0.5339007545579265  0.18809805063700943  0.7837477142407392  1.0000
  H   H2        1.0  0.46610639399626985  0.8118918919330654  0.21625288003450285  1.0000
  H   H3        1.0  0.8434621033454519  0.0314485132155653  0.4223894642171615  1.0000
  H   H4        1.0  0.15652703450450636  0.968554077801258  0.5776128606647573  1.0000
  H   H5        1.0  0.14741156599626493  0.297408515276345  0.10734774800664579  1.0000
  H   H6        1.0  0.8525894289446684  0.7025877216009349  0.8926516504233672  1.0000
  H   H7        1.0  0.5844970899053833  0.8774536776945611  0.5156234513078031  1.0000
  H   H8        1.0  0.41550000577993274  0.122541387333662  0.48438289965289966  1.0000
  H   H9        1.0  0.026065474009143896  0.034082489430943504  0.13610374656227717  1.0000
  H   H10       1.0  0.9739294351618212  0.9659149825478863  0.8638921592392489  1.0000
  H   H11       1.0  0.16972213405587414  0.8605150920471729  0.05614996829697816  1.0000
  H   H12       1.0  0.8302709738476893  0.13948364270362393  0.9438459228593243  1.0000
  H   H13       1.0  0.32633024042266356  0.6990185529176713  0.763006068749817  1.0000
  H   H14       1.0  0.6736754104792199  0.30097642236204786  0.23699409876518718  1.0000
  H   H15       1.0  0.35289148524633884  0.8375178081187115  0.8463217002340638  1.0000
  H   H16       1.0  0.6471095096945945  0.16247842875856824  0.15367769819594904  1.0000
  C   C1        1.0  0.8897446222289245  0.5770553475919654  0.3686407837565396  1.0000
  C   C2        1.0  0.11025766289484548  0.4229509927385423  0.6313621776657141  1.0000
  C   C3        1.0  0.03510639589003965  0.6610350320336168  0.3209478834700476  1.0000
  C   C4        1.0  0.9648940879663358  0.338972571068858  0.6790550633069826  1.0000
  C   C5        1.0  0.910090491676364  0.3931552123809682  0.3512595340086475  1.0000
  C   C6        1.0  0.0899128380094821  0.6068522986241833  0.6487357204431488  1.0000
  C   C7        1.0  0.22182282982086576  0.5857731802855214  0.24316229167643397  1.0000
  C   C8        1.0  0.7781787782596368  0.41423065864825054  0.7568419137002207  1.0000
  C   C9        1.0  0.42380675491475023  0.18005272754957963  0.8611574410975107  1.0000
  C   C10       1.0  0.5761960432633869  0.8199422672827837  0.13884384903661132  1.0000
  C   C11       1.0  0.8571652283504606  0.90026700833387  0.40805895738214554  1.0000
  C   C12       1.0  0.14282638879507203  0.0997368316712368  0.5919430767200351  1.0000
  C   C13       1.0  0.2275462211885539  0.24092817860844207  0.024359521769348202  1.0000
  C   C14       1.0  0.7724533459131565  0.7590680524998704  0.9756390301760545  1.0000
  C   C15       1.0  0.7129856808879893  0.8178719006149109  0.45699415602847876  1.0000
  C   C16       1.0  0.28701494948883516  0.1821256980750334  0.5430145210059292  1.0000
  C   C17       1.0  0.08348095301490581  0.9919458930646387  0.0431080502040473  1.0000
  C   C18       1.0  0.916516061038557  0.0080540860798877  0.9568874581276887  1.0000
  N   N1        1.0  0.7288385027287133  0.6595998687479108  0.4349869507828074  1.0000
  N   N2        1.0  0.2711595726300687  0.3404014572511897  0.5650168055790344  1.0000
  N   N3        1.0  0.21138971434240267  0.09658543470231253  0.9875710932910022  1.0000
  N   N4        1.0  0.7886098507895125  0.9034107756789495  0.012425581595508136  1.0000
  N   N5        1.0  0.3617558845946859  0.29677886209281473  0.9458899363794018  1.0000
  N   N6        1.0  0.6382494626921087  0.7032123432492268  0.05411064325061693  1.0000
  N   N7        1.0  0.0171607989164356  0.8220474859472375  0.34016411351095127  1.0000
  N   N8        1.0  0.9828354063467515  0.17796015166596396  0.6598409864594854  1.0000
  N   N9        1.0  0.3355634734828429  0.05536978656109431  0.8832570209790089  1.0000
  N   N10       1.0  0.6644375185034049  0.9446264192256065  0.11673956186266565  1.0000
  O   O1        1.0  0.38344531629289236  0.5477048400431599  0.2960376194430764  1.0000
  O   O2        1.0  0.6165531324940688  0.4522952174150063  0.7039653050793786  1.0000
  O   O3        1.0  0.7618300888894397  0.33204234356693246  0.39037142893626947  1.0000
  O   O4        1.0  0.23817976685295855  0.6679575942265571  0.6096232509919159  1.0000
  O   O5        1.0  0.06950116620784999  0.31429525928642477  0.30124317967675296  1.0000
  O   O6        1.0  0.9304953190328928  0.6857158995398435  0.6987389834719833  1.0000
  O   O7        1.0  0.20386334851336574  0.5854445943431231  0.12570584835358997  1.0000
  O   O8        1.0  0.7961348859098437  0.4145705267332361  0.874293642694745  1.0000
  O   O9        1.0  0.33325094785994486  0.7230181050787506  0.850624691561961  1.0000
  O   O10       1.0  0.666747194357228  0.27697815135117315  0.14937582948716968  1.0000
