data_image0
_chemical_formula_structural       Al4H44C72O24
_chemical_formula_sum              "Al4 H44 C72 O24"
_cell_length_a       6.659587195016141
_cell_length_b       24.592562409945103
_cell_length_c       27.43639017536924
_cell_angle_alpha    95.63564437799909
_cell_angle_beta     89.99983318512155
_cell_angle_gamma    90.00020522854024

_space_group_name_H-M_alt    "P 1"
_space_group_IT_number       1

loop_
  _space_group_symop_operation_xyz
  'x, y, z'

loop_
  _atom_site_type_symbol
  _atom_site_label
  _atom_site_symmetry_multiplicity
  _atom_site_fract_x
  _atom_site_fract_y
  _atom_site_fract_z
  _atom_site_occupancy
  Al  Al1       1.0  0.20002153764487224  0.24975418931030896  0.24903941476011232  1.0000
  Al  Al2       1.0  0.7999778881492574  0.7502465623634863  0.7509607585673592  1.0000
  Al  Al3       1.0  0.7000224906069333  0.2502460394202544  0.2509612798135024  1.0000
  Al  Al4       1.0  0.2999784367744597  0.749753937845675  0.749039257832031  1.0000
  H   H1        1.0  0.741867862788439  0.631238341603499  0.8391841459475133  1.0000
  H   H2        1.0  0.25812705822252724  0.368761479443414  0.1608149267061521  1.0000
  H   H3        1.0  0.2418710484388242  0.8687591415915674  0.6608148008655377  1.0000
  H   H4        1.0  0.7581328821336868  0.131240796621654  0.33918537053063597  1.0000
  H   H5        1.0  0.7150020167219893  0.5646104675725567  0.9016453120484584  1.0000
  H   H6        1.0  0.28499590747686204  0.43538983831517436  0.09835449406608629  1.0000
  H   H7        1.0  0.21499932947428854  0.9353873589167707  0.5983532860871393  1.0000
  H   H8        1.0  0.785001597907666  0.06461168772432302  0.40164615088320244  1.0000
  H   H9        1.0  0.33550699677514473  0.5956520459884089  0.9396125357610077  1.0000
  H   H10       1.0  0.6644849210607192  0.40435025449908574  0.0603869089317115  1.0000
  H   H11       1.0  0.8355107898095113  0.9043508487440378  0.5603867319717396  1.0000
  H   H12       1.0  0.1644856327932231  0.0956471891620225  0.43961087182793784  1.0000
  H   H13       1.0  0.311371200477872  0.5047732902021664  0.9509597714768674  1.0000
  H   H14       1.0  0.6886252221344124  0.4952282358788267  0.049040037532996884  1.0000
  H   H15       1.0  0.811356806179795  0.995233868066151  0.5490453798378853  1.0000
  H   H16       1.0  0.188639616422229  0.004763724054527106  0.450951856748418  1.0000
  H   H17       1.0  0.29165452419097454  0.4408693938093649  0.014306546813607202  1.0000
  H   H18       1.0  0.7083418984213096  0.5591321322716212  0.98569326219625  1.0000
  H   H19       1.0  0.7916411027566426  0.059138340205350894  0.4856988687651905  1.0000
  H   H20       1.0  0.20835531984342026  0.9408592909693992  0.5142987340695413  1.0000
  H   H21       1.0  0.657869839309072  0.4416490729540428  0.4399416737755146  1.0000
  H   H22       1.0  0.3421295864718489  0.5583510214734275  0.5600599626157888  1.0000
  H   H23       1.0  0.15787016474902063  0.05835067173887861  0.0600586796364198  1.0000
  H   H24       1.0  0.8421367690324503  0.9416502523452053  0.939939297163079  1.0000
  H   H25       1.0  0.6401329626096698  0.3696195661063797  0.36875634443222793  1.0000
  H   H26       1.0  0.3598664631851562  0.6303816313528045  0.6312441961086248  1.0000
  H   H27       1.0  0.1401333712204931  0.1303806473301066  0.13124475340362812  1.0000
  H   H28       1.0  0.8598690577660123  0.869619580451527  0.8687543202126662  1.0000
  H   H29       1.0  0.2830432192814456  0.3599743802330977  0.365284385032794  1.0000
  H   H30       1.0  0.7169592097064666  0.640026739119307  0.6347154230102631  1.0000
  H   H31       1.0  0.783044133825193  0.140025884784194  0.1347158919815428  1.0000
  H   H32       1.0  0.2169612983326203  0.8599733180752268  0.8652850099811359  1.0000
  H   H33       1.0  0.30372021356766515  0.4315589693139756  0.4367436409098246  1.0000
  H   H34       1.0  0.6962807138283368  0.5684425567690568  0.56325616809864  1.0000
  H   H35       1.0  0.8037240573182841  0.0684424956085365  0.0632562599707711  1.0000
  H   H36       1.0  0.19628437804259147  0.9315578102839625  0.9367435461405337  1.0000
  H   H37       1.0  0.49590646530583643  0.6542017335766773  0.8980202518693049  1.0000
  H   H38       1.0  0.504086954125313  0.3458010126968885  0.1019795600363338  1.0000
  H   H39       1.0  0.9959119861657016  0.8458017134477558  0.6019789176942967  1.0000
  H   H40       1.0  0.004090442822771901  0.1541984752798058  0.3980197896735618  1.0000
  H   H41       1.0  0.4521427880536919  0.3179591695434496  0.23759034959275033  1.0000
  H   H42       1.0  0.5478581393343092  0.6820411363456457  0.762409456520871  1.0000
  H   H43       1.0  0.9521427046759642  0.1820408031430958  0.2624094556979273  1.0000
  H   H44       1.0  0.047859724303378905  0.8179600266402147  0.7375914501254784  1.0000
  C   C1        1.0  0.45219478943358377  0.1808257223055776  0.180336205679744  1.0000
  C   C2        1.0  0.5478091411421602  0.819173692014111  0.8196628660061835  1.0000
  C   C3        1.0  0.9521913101325624  0.3191742504266202  0.31966359957984036  1.0000
  C   C4        1.0  0.04780661407092881  0.6808264231383561  0.6803358412512284  1.0000
  C   C5        1.0  0.44808716468717336  0.18748981093362718  0.3133141649796158  1.0000
  C   C6        1.0  0.5519242738521655  0.812508868034996  0.6866856372709691  1.0000
  C   C7        1.0  0.9480777045785446  0.3125093446056297  0.1866856408906088  1.0000
  C   C8        1.0  0.05191121004414612  0.6874892952986967  0.8133137951185034  1.0000
  C   C9        1.0  0.8706429197990104  0.6228594587288541  0.8617443220979767  1.0000
  C   C10       1.0  0.1293489980169085  0.3771404794789177  0.1382558493019133  1.0000
  C   C11       1.0  0.3706479912490579  0.8771398463617145  0.6382552814827989  1.0000
  C   C12       1.0  0.629357440922668  0.12286045952942709  0.3617445246294295  1.0000
  C   C13       1.0  0.8550439014470683  0.586569525808045  0.8971859599930951  1.0000
  C   C14       1.0  0.1449540227524864  0.41343122586507525  0.10281421333483819  1.0000
  C   C15       1.0  0.3550438743446166  0.91342883449952  0.6028125525549087  1.0000
  C   C16       1.0  0.6449555514447384  0.08657017308681961  0.3971865181674659  1.0000
  C   C17       1.0  0.023736874981530303  0.5756854912931787  0.9256696510414244  1.0000
  C   C18       1.0  0.9762595476334254  0.42431644151911746  0.07433015893337819  1.0000
  C   C19       1.0  0.5237392597728318  0.9243154545330299  0.5743294392704641  1.0000
  C   C20       1.0  0.4762616676169955  0.07568343589177572  0.42566853270615473  1.0000
  C   C21       1.0  0.20406809964526934  0.6023317090345799  0.917079818523355  1.0000
  C   C22       1.0  0.795925319781091  0.39766929315151595  0.08291889077718649  1.0000
  C   C23       1.0  0.7040745343514769  0.8976689156016419  0.582918426873249  1.0000
  C   C24       1.0  0.2959263930396149  0.10232948998370259  0.4170788116415521  1.0000
  C   C25       1.0  0.22058309532454257  0.6389162136519104  0.8811936337735632  1.0000
  C   C26       1.0  0.7794118256958384  0.3610857191597105  0.11880617620170851  1.0000
  C   C27       1.0  0.7205871113326056  0.8610854347032912  0.6188064345888975  1.0000
  C   C28       1.0  0.2794138160566604  0.1389143863463502  0.3811926380629131  1.0000
  C   C29       1.0  0.05095120392056881  0.6497241762176388  0.8526379399486359  1.0000
  C   C30       1.0  0.9490437170930689  0.35027605156058433  0.14736113366997472  1.0000
  C   C31       1.0  0.5509562325594359  0.8502759417896256  0.6473607653645104  1.0000
  C   C32       1.0  0.4490461964263659  0.1497238402066188  0.35263794103840246  1.0000
  C   C33       1.0  0.1753896575483225  0.5036346271361367  0.973023490213386  1.0000
  C   C34       1.0  0.8246082666612012  0.49636730567684134  0.026976319760962004  1.0000
  C   C35       1.0  0.6753800509438578  0.9963697330210195  0.5269795418618627  1.0000
  C   C36       1.0  0.32462087643781967  0.0036265607996242037  0.473016959331332  1.0000
  C   C37       1.0  0.1641438259067058  0.4674207693565933  0.0087831393927686  1.0000
  C   C38       1.0  0.835854098302818  0.5325811634563848  0.9912166705815793  1.0000
  C   C39       1.0  0.664137496048106  0.0325833607725414  0.491220149780581  1.0000
  C   C40       1.0  0.33585742494543785  0.9674131283157407  0.5087781826566271  1.0000
  C   C41       1.0  0.9883839057942725  0.4629277164055098  0.0365195091549992  1.0000
  C   C42       1.0  0.0116110152214759  0.5370738487288733  0.9634806661037559  1.0000
  C   C43       1.0  0.4883865602308363  0.0370709518143499  0.4634791720961644  1.0000
  C   C44       1.0  0.5116128655489548  0.9629245675970566  0.5365176934160302  1.0000
  C   C45       1.0  0.794199590818849  0.423493433435489  0.4235504349989371  1.0000
  C   C46       1.0  0.2058043397563338  0.5765069115090425  0.5764497373621893  1.0000
  C   C47       1.0  0.2941969528888749  0.0765071312735088  0.07644873734103903  1.0000
  C   C48       1.0  0.7058054761042386  0.9234934251312908  0.9235496047433358  1.0000
  C   C49       1.0  0.7841523989576871  0.3836449051745845  0.3840959841617675  1.0000
  C   C50       1.0  0.21584552524523556  0.6163566990152276  0.6159045573444928  1.0000
  C   C51       1.0  0.28415581252863115  0.1163566591524798  0.1159050275579858  1.0000
  C   C52       1.0  0.7158496196496956  0.883643975361828  0.8840940470223303  1.0000
  C   C53       1.0  0.9606513053412798  0.3608691635322502  0.362960842386059  1.0000
  C   C54       1.0  0.03935112363595291  0.6391303288949073  0.6370389617972022  1.0000
  C   C55       1.0  0.4606502571033033  0.1391304101438848  0.1370389566813515  1.0000
  C   C56       1.0  0.5393521718712578  0.8608686755519556  0.8629608465369644  1.0000
  C   C57       1.0  0.14780812774350954  0.3782379682338687  0.38219984849098415  1.0000
  C   C58       1.0  0.8521912980413476  0.6217620480854505  0.6178010554034471  1.0000
  C   C59       1.0  0.6478105090184414  0.1217626588999181  0.11780124556563011  1.0000
  C   C60       1.0  0.3521949231433084  0.8782364658513656  0.8821989239001838  1.0000
  C   C61       1.0  0.1588914181838348  0.4178821140417739  0.4217091036427263  1.0000
  C   C62       1.0  0.8411110107821572  0.5821166820849798  0.5782917973559307  1.0000
  C   C63       1.0  0.6588892529055671  0.0821179992543222  0.078290883855118  1.0000
  C   C64       1.0  0.34111317607968067  0.9178827133667654  0.921708923222994  1.0000
  C   C65       1.0  0.9820280496205739  0.44140351540844586  0.4429760559299538  1.0000
  C   C66       1.0  0.017975880946032405  0.5585965399669917  0.5570252142115139  1.0000
  C   C67       1.0  0.4820284151514259  0.0585968130218575  0.05702299935832401  1.0000
  C   C68       1.0  0.5179800202226517  0.9414041501169803  0.9429753436891417  1.0000
  C   C69       1.0  0.9937134854973094  0.4822904935454986  0.4828415997758811  1.0000
  C   C70       1.0  0.0062874418828187005  0.5177099685598918  0.5171596713314699  1.0000
  C   C71       1.0  0.49371079401816337  0.0177126211716967  0.0171644118362195  1.0000
  C   C72       1.0  0.5062946381667645  0.9822883419657841  0.982833931212177  1.0000
  O   O1        1.0  0.6196475352186398  0.20258426093489845  0.2988340428921035  1.0000
  O   O2        1.0  0.38035639535808485  0.7974183519906292  0.7011683317843592  1.0000
  O   O3        1.0  0.1196462890626577  0.2974180456753572  0.20116780492671893  1.0000
  O   O4        1.0  0.8803501335503228  0.7025839261910176  0.798832371296527  1.0000
  O   O5        1.0  0.2792996957526698  0.19640727755596285  0.1960285821820094  1.0000
  O   O6        1.0  0.7206997300678708  0.8035947886105106  0.8039686650177982  1.0000
  O   O7        1.0  0.7793007068322098  0.3035942985568596  0.3039687710182903  1.0000
  O   O8        1.0  0.22070172217355116  0.696407845719115  0.6960292086774515  1.0000
  O   O9        1.0  0.2802826633180048  0.20121836814810481  0.2962498755368229  1.0000
  O   O10       1.0  0.719722768855256  0.7987777694582904  0.7037451606612493  1.0000
  O   O11       1.0  0.7802788217574844  0.29877724123767274  0.203744899809152  1.0000
  O   O12       1.0  0.21971609925502378  0.7012184115245006  0.7962494029303572  1.0000
  O   O13       1.0  0.1204040242177626  0.303226931870185  0.301354117679864  1.0000
  O   O14       1.0  0.8795954015651192  0.6967731235032133  0.6986471524630034  1.0000
  O   O15       1.0  0.6204064105630709  0.19677256736311213  0.19864808916408092  1.0000
  O   O16       1.0  0.37959601839364854  0.8032254934091583  0.801353542401543  1.0000
  O   O17       1.0  0.4497909784462877  0.2831890058146769  0.2513891916431632  1.0000
  O   O18       1.0  0.5502114505296802  0.7168109714519346  0.7486113460019155  1.0000
  O   O19       1.0  0.9497900184803711  0.21681144957670284  0.2486113485631165  1.0000
  O   O20       1.0  0.05021090890833341  0.7831893020977815  0.751388824763886  1.0000
  O   O21       1.0  0.39737354479978393  0.6649094595929909  0.8743967826821476  1.0000
  O   O22       1.0  0.6026183730380482  0.33509280184043183  0.1256022957621354  1.0000
  O   O23       1.0  0.8973816411012907  0.8350934131761389  0.6256017143162965  1.0000
  O   O24       1.0  0.10262078789182282  0.1649071432286604  0.3743966277680855  1.0000
