data_image0
_chemical_formula_structural       Cu24H96C84I24N48
_chemical_formula_sum              "Cu24 H96 C84 I24 N48"
_cell_length_a       16.804964662933475
_cell_length_b       19.360552614631995
_cell_length_c       19.360522240580604
_cell_angle_alpha    111.98333324855776
_cell_angle_beta     106.81782936136801
_cell_angle_gamma    106.81810397312027

_space_group_name_H-M_alt    "P 1"
_space_group_IT_number       1

loop_
  _space_group_symop_operation_xyz
  'x, y, z'

loop_
  _atom_site_type_symbol
  _atom_site_label
  _atom_site_symmetry_multiplicity
  _atom_site_fract_x
  _atom_site_fract_y
  _atom_site_fract_z
  _atom_site_occupancy
  Cu  Cu1       1.0  0.42374838995605313  0.4713271077682109  0.872318587662484  1.0000
  Cu  Cu2       1.0  0.9524876297745237  0.4012206332098316  0.5286432452999321  1.0000
  Cu  Cu3       1.0  0.5511978423837078  0.1273140711002156  0.598614517622444  1.0000
  Cu  Cu4       1.0  0.051193885369883646  0.5986208418624057  0.1273169386571665  1.0000
  Cu  Cu5       1.0  0.9237475691634814  0.8723194579143225  0.47132201368035714  1.0000
  Cu  Cu6       1.0  0.4524935109801049  0.5286457085044844  0.4012260155780183  1.0000
  Cu  Cu7       1.0  0.2680171288408602  0.4014367428576051  0.8717979961984597  1.0000
  Cu  Cu8       1.0  0.8667277399349587  0.4705311626713353  0.598679202950514  1.0000
  Cu  Cu9       1.0  0.3961055491814349  0.1279757214148418  0.5294936283919611  1.0000
  Cu  Cu10      1.0  0.8961043142172187  0.529489599893104  0.12797819525345497  1.0000
  Cu  Cu11      1.0  0.7680143242073427  0.8717979929744217  0.4014356100780744  1.0000
  Cu  Cu12      1.0  0.3667232736269242  0.5986790260470515  0.470530476134222  1.0000
  Cu  Cu13      1.0  0.4219764180304537  0.43353208930223264  0.9839211872314593  1.0000
  Cu  Cu14      1.0  0.9880100848016584  0.5504320264344501  0.5662439428080364  1.0000
  Cu  Cu15      1.0  0.4374624661739404  0.015665713394739104  0.4495167915862908  1.0000
  Cu  Cu16      1.0  0.937469429106514  0.44951560572555144  0.01566747743994771  1.0000
  Cu  Cu17      1.0  0.921970683340689  0.9839202390303258  0.43352690850203873  1.0000
  Cu  Cu18      1.0  0.48800900443450246  0.5662456387568042  0.5504294805889457  1.0000
  Cu  Cu19      1.0  0.3824227600677546  0.5499714562407547  0.9854633192471242  1.0000
  Cu  Cu20      1.0  0.8318991588314122  0.4355517347421697  0.4500717673325811  1.0000
  Cu  Cu21      1.0  0.39650122052821496  0.014386985914534004  0.5645318127675978  1.0000
  Cu  Cu22      1.0  0.8965001711711197  0.5645271451833266  0.01437937153692557  1.0000
  Cu  Cu23      1.0  0.8824177894505497  0.9854669362162696  0.549968401732741  1.0000
  Cu  Cu24      1.0  0.3319042494288383  0.45007429857423636  0.43555665223623663  1.0000
  H   H1        1.0  0.4473079478183808  0.5325890850626537  0.7439731995973133  1.0000
  H   H2        1.0  0.9148615928162086  0.2117705784634722  0.4675997376905484  1.0000
  H   H3        1.0  0.7026251371855636  0.2556715198322337  0.7879571234321503  1.0000
  H   H4        1.0  0.20263744540827136  0.7879659718524579  0.25567395210800475  1.0000
  H   H5        1.0  0.9473111290810863  0.7439799619548922  0.5325797259709616  1.0000
  H   H6        1.0  0.4148633471986827  0.4676056939801327  0.21177463865185328  1.0000
  H   H7        1.0  0.5419978864145207  0.3770296072398907  0.8115445237118452  1.0000
  H   H8        1.0  0.16523842726021348  0.4347744959500589  0.6230062833884844  1.0000
  H   H9        1.0  0.7305190584081841  0.18847149288799864  0.5651921878350237  1.0000
  H   H10       1.0  0.23050048099253226  0.5651909367892075  0.1884760762473547  1.0000
  H   H11       1.0  0.04199627202239504  0.8115390229517842  0.3770140162746998  1.0000
  H   H12       1.0  0.6652413920512714  0.6230056436178373  0.4347730812445789  1.0000
  H   H13       1.0  0.49451875851457316  0.3578117857768249  0.2612792243203542  1.0000
  H   H14       1.0  0.13652757393366252  0.903195184612706  0.6419447738581497  1.0000
  H   H15       1.0  0.23394450769224318  0.7386748313309539  0.09674884132266476  1.0000
  H   H16       1.0  0.7339458106159709  0.0967522182354301  0.7386771636352591  1.0000
  H   H17       1.0  0.9945209330211497  0.261284002757762  0.3578120846180894  1.0000
  H   H18       1.0  0.6365331313453453  0.6419510000549309  0.9032088880670059  1.0000
  H   H19       1.0  0.6841102915353119  0.3643339165928055  0.11040148563791517  1.0000
  H   H20       1.0  0.31946413639037274  0.7457481248080668  0.6356859915797486  1.0000
  H   H21       1.0  0.5739961142857694  0.8897853666447374  0.2545018668455299  1.0000
  H   H22       1.0  0.07400193966165601  0.2544971110350999  0.8897865726039242  1.0000
  H   H23       1.0  0.18411288478678497  0.1104038840214585  0.3643360262619169  1.0000
  H   H24       1.0  0.8194647370198426  0.6356755554263741  0.7457525175102476  1.0000
  H   H25       1.0  0.5263376237431175  0.46890934811389684  0.6430700732520904  1.0000
  H   H26       1.0  0.057445548456591694  0.17442886208557698  0.5311663041009993  1.0000
  H   H27       1.0  0.882535664779816  0.356878662802167  0.8255901663815095  1.0000
  H   H28       1.0  0.382542469113048  0.8255877611351607  0.35687988041961927  1.0000
  H   H29       1.0  0.026333681791243173  0.6430645018567348  0.4688938693170996  1.0000
  H   H30       1.0  0.5574482466632703  0.5311654363171385  0.17442900289997004  1.0000
  H   H31       1.0  0.7635539368232076  0.46178284832581806  0.8247412966249429  1.0000
  H   H32       1.0  0.3021791188745269  0.36310023748562503  0.5382414506995374  1.0000
  H   H33       1.0  0.9387190344432811  0.17544745126878072  0.6369594998727593  1.0000
  H   H34       1.0  0.43870077798653295  0.6369417622528746  0.17543729157407037  1.0000
  H   H35       1.0  0.26353874550289197  0.8247338160928166  0.46177526357539733  1.0000
  H   H36       1.0  0.8021773988351413  0.5382339792836889  0.36309477805210844  1.0000
  H   H37       1.0  0.5450154920240351  0.32137937771824454  0.6130982476500648  1.0000
  H   H38       1.0  0.22380022258331417  0.2920664262871781  0.6787055962544954  1.0000
  H   H39       1.0  0.9316692211177298  0.3870128019508953  0.7083330478260949  1.0000
  H   H40       1.0  0.4316604115250017  0.7083206213296122  0.3870103015550583  1.0000
  H   H41       1.0  0.045004284282526924  0.6130821985080956  0.3213727269125144  1.0000
  H   H42       1.0  0.7237989816332516  0.6787027227804642  0.2920642193323814  1.0000
  H   H43       1.0  0.5928619841922896  0.3196761157184866  0.7066726696130559  1.0000
  H   H44       1.0  0.2733246119954487  0.3872157186698928  0.6802012240569937  1.0000
  H   H45       1.0  0.8861141677598069  0.2935422136165328  0.6130557415642528  1.0000
  H   H46       1.0  0.38609730469674014  0.6130443112945726  0.2935294541622397  1.0000
  H   H47       1.0  0.09285476973747832  0.7066585203556458  0.3196583042389563  1.0000
  H   H48       1.0  0.7733270324723733  0.6801974573085943  0.3872162836279997  1.0000
  H   H49       1.0  0.4706058079205278  0.23371696100047498  0.12054031245539674  1.0000
  H   H50       1.0  0.2369091091911174  0.8866615689240689  0.7662543000562821  1.0000
  H   H51       1.0  0.35055815088311004  0.8794978731567371  0.113437813196825  1.0000
  H   H52       1.0  0.8505607014524087  0.113435897001537  0.8794974589069753  1.0000
  H   H53       1.0  0.9706026848039926  0.12054014385645927  0.23371694158853273  1.0000
  H   H54       1.0  0.7369102012091773  0.7662525158793585  0.8866626489440109  1.0000
  H   H55       1.0  0.5744106198871107  0.2314071343292525  0.11522630879137806  1.0000
  H   H56       1.0  0.3428093937529226  0.8834639900771036  0.7684659835570073  1.0000
  H   H57       1.0  0.45985778241708897  0.8851680631888569  0.11680286713908568  1.0000
  H   H58       1.0  0.9598567198384985  0.1168006445448313  0.8851658380559542  1.0000
  H   H59       1.0  0.07440999088116482  0.115227923539365  0.23140841009049506  1.0000
  H   H60       1.0  0.8428116249976298  0.7684646267113635  0.8834696855770332  1.0000
  H   H61       1.0  0.7283041035404735  0.32089956299840583  0.24725246839862078  1.0000
  H   H62       1.0  0.4074384573644069  0.9262932436244498  0.679280104391502  1.0000
  H   H63       1.0  0.4818868206330721  0.7531111543028788  0.07396491923780976  1.0000
  H   H64       1.0  0.9818873750012997  0.0739662354044199  0.7531086295530827  1.0000
  H   H65       1.0  0.22830455044400116  0.2472545227888787  0.3209031586213769  1.0000
  H   H66       1.0  0.9074383507758552  0.6792717731003391  0.9262909009824652  1.0000
  H   H67       1.0  0.40561290790625293  0.31586629082494977  0.06793257994092271  1.0000
  H   H68       1.0  0.08932191043716402  0.7520026877837153  0.6838259699993117  1.0000
  H   H69       1.0  0.33757645011416326  0.9317257819393775  0.24800407793988916  1.0000
  H   H70       1.0  0.8375762548678337  0.24800424810965888  0.9317203565470465  1.0000
  H   H71       1.0  0.9056165927434422  0.06794133440893553  0.3158699255688475  1.0000
  H   H72       1.0  0.5893220023958392  0.6838262418502055  0.752003614876152  1.0000
  H   H73       1.0  0.6269975543038059  0.4519499065863641  0.03877726255240085  1.0000
  H   H74       1.0  0.17464268070795447  0.5866348944627902  0.5479476123641831  1.0000
  H   H75       1.0  0.5879916016202387  0.961041876009098  0.4135587335885803  1.0000
  H   H76       1.0  0.08799356734949985  0.41355297708943084  0.9610410106568635  1.0000
  H   H77       1.0  0.12699614899355538  0.03877983459064179  0.4519502341090202  1.0000
  H   H78       1.0  0.6746462633927378  0.5479469288889901  0.5866431779099628  1.0000
  H   H79       1.0  0.906353283847743  0.5249307560085585  0.7873619423048199  1.0000
  H   H80       1.0  0.38167689965947454  0.2623483010647973  0.47522404199967383  1.0000
  H   H81       1.0  0.11888845898971574  0.21284840712416306  0.7372832358148644  1.0000
  H   H82       1.0  0.618869002001702  0.7372729121277501  0.21283616269031566  1.0000
  H   H83       1.0  0.40634642144089383  0.7873669147583585  0.5249345412901434  1.0000
  H   H84       1.0  0.8816764455919001  0.47521653111727596  0.2623450151914213  1.0000
  H   H85       1.0  0.6535440786029127  0.3792253576193261  0.5660296807722885  1.0000
  H   H86       1.0  0.2741103644040521  0.1868351914074893  0.6207430208330891  1.0000
  H   H87       1.0  0.08729796879097763  0.4341393760993242  0.8132563711409375  1.0000
  H   H88       1.0  0.5872910870416562  0.813249960659924  0.4341324244648845  1.0000
  H   H89       1.0  0.15354173254095835  0.5660267978940823  0.3792224955533072  1.0000
  H   H90       1.0  0.7741175758934986  0.620748015106713  0.18684505735239293  1.0000
  H   H91       1.0  0.6439394900776633  0.44945391361405035  0.4182040986701736  1.0000
  H   H92       1.0  0.1946272898125087  0.9685833919401927  0.5504478602367442  1.0000
  H   H93       1.0  0.2266090742233545  0.5817904846161284  0.03125487124223983  1.0000
  H   H94       1.0  0.726609582102043  0.0312649641343299  0.5817944266792523  1.0000
  H   H95       1.0  0.14394213228639072  0.4182090790711683  0.44945729706677895  1.0000
  H   H96       1.0  0.6946326870396006  0.5504488509146127  0.9685898659336588  1.0000
  C   C1        1.0  0.4810783834170493  0.49264016183300186  0.744626974912336  1.0000
  C   C2        1.0  0.988586502847248  0.25234417634366924  0.507487650260309  1.0000
  C   C3        1.0  0.7359104101972778  0.2550560666840411  0.7474848599025776  1.0000
  C   C4        1.0  0.23591230651809522  0.747488169488193  0.2550582708940182  1.0000
  C   C5        1.0  0.98108066832161  0.7446280152476701  0.4926268951246584  1.0000
  C   C6        1.0  0.48858858938314154  0.5074901518388232  0.25234579841892923  1.0000
  C   C7        1.0  0.528342583499537  0.41299849720369514  0.7820954193448699  1.0000
  C   C8        1.0  0.11552815969117354  0.36939128272754124  0.5870823962903629  1.0000
  C   C9        1.0  0.7460236470800936  0.21790725411208461  0.6305383850448365  1.0000
  C   C10       1.0  0.24601666169347422  0.6305398861081243  0.21791715217241156  1.0000
  C   C11       1.0  0.028344580199160405  0.782091288921947  0.4129847482231738  1.0000
  C   C12       1.0  0.6155271910713509  0.5870834949533332  0.3693911343333481  1.0000
  C   C13       1.0  0.5644886455166898  0.36365047992678967  0.28167164660177246  1.0000
  C   C14       1.0  0.20075927066781687  0.9178163461871592  0.6362355056470577  1.0000
  C   C15       1.0  0.2835749958326304  0.7183604142002694  0.08218922405016832  1.0000
  C   C16       1.0  0.7835738340530867  0.08218645404967617  0.7183613412886629  1.0000
  C   C17       1.0  0.06449142910386037  0.2816759375979673  0.3636534112061939  1.0000
  C   C18       1.0  0.700760324254418  0.636235666046467  0.9178220385280228  1.0000
  C   C19       1.0  0.6184200198910688  0.36710507119713043  0.09076913688350882  1.0000
  C   C20       1.0  0.25096357219027254  0.7233793292109496  0.6328379816748253  1.0000
  C   C21       1.0  0.5278866814466667  0.9094219764911102  0.27680981528691007  1.0000
  C   C22       1.0  0.027889693643764743  0.2768049192078196  0.9094190223654834  1.0000
  C   C23       1.0  0.11842164761480231  0.0907736130632841  0.3671063315920549  1.0000
  C   C24       1.0  0.7509670077407193  0.6328363505590672  0.7233880226139889  1.0000
  C   C25       1.0  0.5199297787610176  0.4618853190791227  0.6944485774196139  1.0000
  C   C26       1.0  0.058135739793527826  0.23286295642100902  0.5382285119664728  1.0000
  C   C27       1.0  0.8249300528132509  0.3054408964295802  0.7671177749553593  1.0000
  C   C28       1.0  0.32493084951752854  0.7671171486271006  0.30543871009704304  1.0000
  C   C29       1.0  0.01992925694684549  0.6944441888851287  0.46187383284838296  1.0000
  C   C30       1.0  0.5581376169497362  0.5382305295821156  0.2328630281420986  1.0000
  C   C31       1.0  0.7626233629825593  0.4564205234721612  0.7667089339283352  1.0000
  C   C32       1.0  0.3064826488434633  0.3104041692202912  0.5436401076198082  1.0000
  C   C33       1.0  0.995792126000808  0.2334830930572522  0.6896329079501058  1.0000
  C   C34       1.0  0.49577671244893656  0.689616938196167  0.23347281972348813  1.0000
  C   C35       1.0  0.2626125919090186  0.7667045879384206  0.4564169444482218  1.0000
  C   C36       1.0  0.8064844687675575  0.5436356885167868  0.3104021833561532  1.0000
  C   C37       1.0  0.5899487117641584  0.36081230040781515  0.6804575604198178  1.0000
  C   C38       1.0  0.22927107807817754  0.3198727126995706  0.6391754399841361  1.0000
  C   C39       1.0  0.9092742456311599  0.31967314371755157  0.6803645810212232  1.0000
  C   C40       1.0  0.4092659610823973  0.6803535619136555  0.3196700679274258  1.0000
  C   C41       1.0  0.08994098068737343  0.6804440015694837  0.3607977630343697  1.0000
  C   C42       1.0  0.7292736471425982  0.6391732599917717  0.3198725936273236  1.0000
  C   C43       1.0  0.543146475871339  0.2721631593948787  0.13785158710079773  1.0000
  C   C44       1.0  0.27084296084404974  0.8654242812666338  0.7277044907128314  1.0000
  C   C45       1.0  0.405833515058994  0.862281254916418  0.13468867394053063  1.0000
  C   C46       1.0  0.905834122598634  0.13468590122283083  0.8622783937059993  1.0000
  C   C47       1.0  0.043146361085227604  0.13785569206333997  0.27216440277463516  1.0000
  C   C48       1.0  0.7708434249694065  0.7277019768871681  0.8654275593798317  1.0000
  C   C49       1.0  0.6859698631632655  0.3435607961146303  0.2733796861022526  1.0000
  C   C50       1.0  0.34235922072104336  0.929579880210241  0.6564086125822044  1.0000
  C   C51       1.0  0.41343476291911685  0.7268614251990472  0.07048864935812563  1.0000
  C   C52       1.0  0.9134366979955929  0.0704936563689387  0.7268588479027472  1.0000
  C   C53       1.0  0.1859701128973583  0.2733832664959763  0.3435596705758357  1.0000
  C   C54       1.0  0.8423565681458169  0.6564034741492292  0.9295771036845294  1.0000
  C   C55       1.0  0.47285016541566455  0.34108941434784873  0.06888410428017272  1.0000
  C   C56       1.0  0.1313639798867073  0.7276940446404723  0.6586886743615709  1.0000
  C   C57       1.0  0.40392015601565856  0.9308975901365316  0.27236554572379384  1.0000
  C   C58       1.0  0.903921378686043  0.2723627058366702  0.930893844671779  1.0000
  C   C59       1.0  0.972852083843847  0.0688893930840138  0.34109504227211573  1.0000
  C   C60       1.0  0.6313655432515475  0.658689508541947  0.7276955669901497  1.0000
  C   C61       1.0  0.5895317600502139  0.4106126975169531  0.05583503099372687  1.0000
  C   C62       1.0  0.17846328612559154  0.6450080471294868  0.5892507087957882  1.0000
  C   C63       1.0  0.5336103689236255  0.9440687061231118  0.35513297666197735  1.0000
  C   C64       1.0  0.03361160965144452  0.3551260792612538  0.944065412016073  1.0000
  C   C65       1.0  0.08953160337127741  0.055838241698396  0.41061311290958  1.0000
  C   C66       1.0  0.6784686879258572  0.5892517058499536  0.6450125393633215  1.0000
  C   C67       1.0  0.8322235175849216  0.4870045181349667  0.7471875221876445  1.0000
  C   C68       1.0  0.34542067241825686  0.26020383699931665  0.5131229951791667  1.0000
  C   C69       1.0  0.08492051209315579  0.2530276481436998  0.7397020469137985  1.0000
  C   C70       1.0  0.5849035574602652  0.7396877564916835  0.25301630833927663  1.0000
  C   C71       1.0  0.3322182391478919  0.7471894437519424  0.4870044982883428  1.0000
  C   C72       1.0  0.8454197991024301  0.5131151137580972  0.2601983199104795  1.0000
  C   C73       1.0  0.7040086342897993  0.4124777606361576  0.6310307346947113  1.0000
  C   C74       1.0  0.2914785217225386  0.21861105129677583  0.5875486559566242  1.0000
  C   C75       1.0  0.0727690147057629  0.36914136172920553  0.7814462271013981  1.0000
  C   C76       1.0  0.572758569560584  0.7814366127464467  0.3691338176019557  1.0000
  C   C77       1.0  0.20400660704560653  0.6310282616151995  0.4124759254564482  1.0000
  C   C78       1.0  0.7914824821554165  0.5875471556745212  0.21861242055012314  1.0000
  C   C79       1.0  0.6391499410442592  0.40915667526835625  0.35893222827643007  1.0000
  C   C80       1.0  0.23004371213210825  0.9496098094173745  0.5907900138381096  1.0000
  C   C81       1.0  0.28103182942253113  0.641128138283733  0.050300665897808  1.0000
  C   C82       1.0  0.7810299838519015  0.0503028579067291  0.6411287707806608  1.0000
  C   C83       1.0  0.13915303391069503  0.3589361784820256  0.4091599716603511  1.0000
  C   C84       1.0  0.7300459598861552  0.5907905694547466  0.9496149547294053  1.0000
  I   I1        1.0  0.3038805367700448  0.5290070187851157  0.8295500767063899  1.0000
  I   I2        1.0  0.7748921193412528  0.3006584607459147  0.47108569797577354  1.0000
  I   I3        1.0  0.4741710580316862  0.17038582479284514  0.6992434590546921  1.0000
  I   I4        1.0  0.9741727781527771  0.6992492396129109  0.17038388525401874  1.0000
  I   I5        1.0  0.8038841843882665  0.829551855384949  0.529003807154851  1.0000
  I   I6        1.0  0.27489125316649426  0.47108191172399944  0.30065734759774904  1.0000
  I   I7        1.0  0.3455061168269182  0.3008554586479448  0.8279459836702969  1.0000
  I   I8        1.0  0.04468795174004485  0.5273774984780106  0.6991852195031357  1.0000
  I   I9        1.0  0.5172647524038965  0.17166350643135078  0.47261137807258546  1.0000
  I   I10       1.0  0.01726238452212671  0.47260678976925147  0.17165698712773286  1.0000
  I   I11       1.0  0.8454935173228793  0.8279430606515917  0.3008470662333877  1.0000
  I   I12       1.0  0.544685951867713  0.6991889088690401  0.5273843481196394  1.0000
  I   I13       1.0  0.29346440568886584  0.4454199220221113  0.034287351490348825  1.0000
  I   I14       1.0  0.8477057881580023  0.5889692018624256  0.5544545632322339  1.0000
  I   I15       1.0  0.2587013652763944  0.9653820841104519  0.41099849409209116  1.0000
  I   I16       1.0  0.7586960580975556  0.4109958830766658  0.9653809693045048  1.0000
  I   I17       1.0  0.7934599843236043  0.0342852043591577  0.44541588743909705  1.0000
  I   I18       1.0  0.34770646498371605  0.5544574932336985  0.5889680538423577  1.0000
  I   I19       1.0  0.5603848194846961  0.5881534307046081  0.036614116225699385  1.0000
  I   I20       1.0  0.9716364409048809  0.4481953253253508  0.4116079176391595  1.0000
  I   I21       1.0  0.5236190395085956  0.9634227073862218  0.55186964269609  1.0000
  I   I22       1.0  0.02362219285807755  0.5518639536819734  0.9634192707675524  1.0000
  I   I23       1.0  0.060381287548359794  0.0366306286390454  0.5881538647620062  1.0000
  I   I24       1.0  0.4716394018017525  0.4116087182076953  0.4481975918535995  1.0000
  N   N1        1.0  0.4860647820623641  0.46117677334446944  0.7985494963890291  1.0000
  N   N2        1.0  0.02506584557912824  0.3377161150952475  0.5389287990876852  1.0000
  N   N3        1.0  0.6871845172586859  0.2012051665047849  0.6621011874876146  1.0000
  N   N4        1.0  0.18717990018310363  0.6621044213604605  0.20121199433676648  1.0000
  N   N5        1.0  0.9860650305870848  0.798547007400316  0.4611611828261957  1.0000
  N   N6        1.0  0.5250674310478729  0.5389312661593877  0.3377173957559805  1.0000
  N   N7        1.0  0.7948978201007648  0.4586755058771033  0.6623329183707584  1.0000
  N   N8        1.0  0.3362038508481858  0.20363027211925558  0.541399318984972  1.0000
  N   N9        1.0  0.13241864716253823  0.3378629312159164  0.7962753752164389  1.0000
  N   N10       1.0  0.6324017823864237  0.7962664124172674  0.3378522932706856  1.0000
  N   N11       1.0  0.29489582529620145  0.6623347161033236  0.45867647522847926  1.0000
  N   N12       1.0  0.8362035658435615  0.5413930539257309  0.20362710872608855  1.0000
  N   N13       1.0  0.498961733127544  0.39374377706295144  0.04250242751388803  1.0000
  N   N14       1.0  0.10475308595543012  0.6486527439658191  0.6060289185354294  1.0000
  N   N15       1.0  0.4562254162202208  0.9571982737115049  0.35141119268151744  1.0000
  N   N16       1.0  0.9562292729040607  0.351408178584073  0.9571972486857091  1.0000
  N   N17       1.0  0.9989630061384034  0.04250570482853531  0.3937469564410847  1.0000
  N   N18       1.0  0.6047581297019634  0.6060336871243309  0.6486554166003773  1.0000
  N   N19       1.0  0.5498540872888071  0.4117366887641509  0.7190577356299529  1.0000
  N   N20       1.0  0.1382371892605931  0.30758080925362913  0.5883318300994347  1.0000
  N   N21       1.0  0.8304586405071106  0.2810025233219733  0.6924722763996272  1.0000
  N   N22       1.0  0.33045295600289404  0.6924693497823357  0.281006065121801  1.0000
  N   N23       1.0  0.049854595371819306  0.7190529637902117  0.4117231338062624  1.0000
  N   N24       1.0  0.6382384014196134  0.588334354962015  0.3075820910462497  1.0000
  N   N25       1.0  0.5434700259193123  0.3226023779861934  0.09829301678558983  1.0000
  N   N26       1.0  0.22054992785803765  0.7754689915533604  0.6772588618203345  1.0000
  N   N27       1.0  0.4454062846356877  0.9017512783899944  0.22464650224128496  1.0000
  N   N28       1.0  0.9454064628289699  0.2246426266171042  0.9017470209099798  1.0000
  N   N29       1.0  0.0434703194043209  0.0982979064237739  0.3226048454743449  1.0000
  N   N30       1.0  0.7205494827247563  0.6772563663646807  0.775473201977313  1.0000
  N   N31       1.0  0.7139998750057188  0.3959094183854078  0.35282846561180753  1.0000
  N   N32       1.0  0.3181453127770978  0.9567404783441373  0.6040917904784847  1.0000
  N   N33       1.0  0.3620317890576317  0.6473555808961464  0.04321341607263922  1.0000
  N   N34       1.0  0.8620314822356506  0.043219173031239705  0.6473536825318291  1.0000
  N   N35       1.0  0.2140016671621154  0.3528320554828781  0.3959100841605617  1.0000
  N   N36       1.0  0.8181451347233093  0.6040911016692478  0.9567431014315702  1.0000
  N   N37       1.0  0.6817560662345273  0.4095284821231502  0.692587565556785  1.0000
  N   N38       1.0  0.27231561251929304  0.28318132918972344  0.5904660611305843  1.0000
  N   N39       1.0  0.9889686104458094  0.30756185561772753  0.7169514778904045  1.0000
  N   N40       1.0  0.48895773584322205  0.716936338638611  0.307555623023454  1.0000
  N   N41       1.0  0.18174858971771365  0.6925809075795898  0.4095214606726644  1.0000
  N   N42       1.0  0.7723185300147222  0.5904617970877054  0.2831814056732753  1.0000
  N   N43       1.0  0.5947586474526787  0.3216486513397144  0.2276905430706861  1.0000
  N   N44       1.0  0.27300068541063655  0.9058062802881609  0.678255205289915  1.0000
  N   N45       1.0  0.3678216273677535  0.7724491957538716  0.09428328087939525  1.0000
  N   N46       1.0  0.8678229862196147  0.09428315536586501  0.772447738523418  1.0000
  N   N47       1.0  0.09475861507733191  0.2276951537474758  0.3216493467483303  1.0000
  N   N48       1.0  0.772999449908511  0.6782502225369954  0.9058055511858357  1.0000
