data_image0
_chemical_formula_structural       Ni2H28C18N12O16
_chemical_formula_sum              "Ni2 H28 C18 N12 O16"
_cell_length_a       7.761921571770879
_cell_length_b       8.64621170989637
_cell_length_c       11.349084323166249
_cell_angle_alpha    104.91695180057611
_cell_angle_beta     103.45018329573396
_cell_angle_gamma    107.30965694185495

_space_group_name_H-M_alt    "P 1"
_space_group_IT_number       1

loop_
  _space_group_symop_operation_xyz
  'x, y, z'

loop_
  _atom_site_type_symbol
  _atom_site_label
  _atom_site_symmetry_multiplicity
  _atom_site_fract_x
  _atom_site_fract_y
  _atom_site_fract_z
  _atom_site_occupancy
  Ni  Ni1       1.0  0.7762645638375574  0.4707774581741333  0.46382552265649235  1.0000
  Ni  Ni2       1.0  0.2237362104296848  0.5292243207273302  0.5361738673561975  1.0000
  H   H1        1.0  0.9059242694051617  0.9074613560264668  0.38068911580978704  1.0000
  H   H2        1.0  0.0940746313576355  0.09253913561781961  0.6193097233500567  1.0000
  H   H3        1.0  0.09098997177474638  0.9075692077243576  0.31500464898936553  1.0000
  H   H4        1.0  0.9090083772323041  0.0924299897973313  0.6849938525956533  1.0000
  H   H5        1.0  0.35352808165799116  0.9698898212285768  0.11398068476714941  1.0000
  H   H6        1.0  0.646473121004341  0.0301067792474612  0.8860195447473843  1.0000
  H   H7        1.0  0.17705248662967676  0.058299559396324696  0.09670134678195551  1.0000
  H   H8        1.0  0.8229492677884025  0.9416983352023108  0.9032992203074031  1.0000
  H   H9        1.0  0.5211079793220891  0.12383502247956098  0.6306291076679359  1.0000
  H   H10       1.0  0.4788922391497579  0.8761654681971934  0.3693708263924691  1.0000
  H   H11       1.0  0.7379091654218185  0.3039586463405969  0.6722640155666043  1.0000
  H   H12       1.0  0.2620897313013372  0.6960418512015636  0.32773570521577977  1.0000
  H   H13       1.0  0.737263186609148  0.6001638551967902  0.24988503453414523  1.0000
  H   H14       1.0  0.26273626186975446  0.3998379364679677  0.7501150238230638  1.0000
  H   H15       1.0  0.1257241122845797  0.8130273430093027  0.8493047882340864  1.0000
  H   H16       1.0  0.8742776421335067  0.186970551589333  0.1506957788552725  1.0000
  H   H17       1.0  0.49756225464845727  0.2349273614650969  0.8335679417974052  1.0000
  H   H18       1.0  0.5024360903189518  0.7650718419544731  0.16643144141015404  1.0000
  H   H19       1.0  0.6279887583828979  0.40294341297592245  0.04152026822831089  1.0000
  H   H20       1.0  0.3720101383402579  0.597057084566238  0.9584794525540732  1.0000
  H   H21       1.0  0.6186741558951994  0.26078664049711614  0.22034194217635422  1.0000
  H   H22       1.0  0.3813255108209005  0.7392125560570476  0.7796576543092331  1.0000
  H   H23       1.0  0.7222715973299857  0.18266373354951773  0.32152441882438865  1.0000
  H   H24       1.0  0.27772916885796645  0.8173380571477081  0.6784767344333886  1.0000
  H   H25       1.0  0.8309533084227212  0.6110256378632853  0.7140202109554467  1.0000
  H   H26       1.0  0.169048235837458  0.3889748400501817  0.2859790547604462  1.0000
  H   H27       1.0  0.7016603690048981  0.6751739991266988  0.6193056366099016  1.0000
  H   H28       1.0  0.29834117121564663  0.32482648468464953  0.3806945107285387  1.0000
  C   C1        1.0  0.8613939886861883  0.6469793603280607  0.11540075009305187  1.0000
  C   C2        1.0  0.13860435224157186  0.35301984898938343  0.8845995147370475  1.0000
  C   C3        1.0  0.9871227439717598  0.7198524956148162  0.9659268322108617  1.0000
  C   C4        1.0  0.012877688697635377  0.2801454058492254  0.0340735216004688  1.0000
  C   C5        1.0  0.727406603735247  0.4664640528657387  0.8950635046777367  1.0000
  C   C6        1.0  0.2725917412321549  0.5335351505538314  0.10493587852982245  1.0000
  C   C7        1.0  0.9833413084143388  0.827779888441107  0.34518011317351943  1.0000
  C   C8        1.0  0.016656274639416296  0.17222060417070406  0.6548176310857488  1.0000
  C   C9        1.0  0.08713788507500196  0.7857813076231963  0.4575109395027611  1.0000
  C   C10       1.0  0.9128610076085052  0.21421919581684531  0.5424896629021561  1.0000
  C   C11       1.0  0.2529347371628673  0.9951151666687252  0.042648356532573865  1.0000
  C   C12       1.0  0.7470675690109658  0.004884022052507902  0.95735254813161  1.0000
  C   C13       1.0  0.36896547870215807  0.1214082677990262  0.9923723635843231  1.0000
  C   C14       1.0  0.6310355016833427  0.878590933685487  0.0076292094243725714  1.0000
  C   C15       1.0  0.5911229905103069  0.26554783256022324  0.6740848132364691  1.0000
  C   C16       1.0  0.40887668024543433  0.7344513580960595  0.32591390162657063  1.0000
  C   C17       1.0  0.48344699194345236  0.33717489812362095  0.5856312255172967  1.0000
  C   C18       1.0  0.5165513570635908  0.6628242993980679  0.41436727606771484  1.0000
  N   N1        1.0  0.9958534262313918  0.7582802986309147  0.09057210997536909  1.0000
  N   N2        1.0  0.004144918736010076  0.2417189047886552  0.9094272732321897  1.0000
  N   N3        1.0  0.8555621245776877  0.5770108367734466  0.8644558188679243  1.0000
  N   N4        1.0  0.1444388638871033  0.4229883529153042  0.13554399089569102  1.0000
  N   N5        1.0  0.7270856251602069  0.49803254498813493  0.019667749716383267  1.0000
  N   N6        1.0  0.27291458927199824  0.5019679515865006  0.9803330659665692  1.0000
  N   N7        1.0  0.8525464625457673  0.6766262455183849  0.23434286241718644  1.0000
  N   N8        1.0  0.14745243013774004  0.32337425792164964  0.7656577399877379  1.0000
  N   N9        1.0  0.11783243409340109  0.8357727653013427  0.9405710916381836  1.0000
  N   N10       1.0  0.8821687685689312  0.16422383517470246  0.05942913787635008  1.0000
  N   N11       1.0  0.5943835242411025  0.3191552518252294  0.8058977486194439  1.0000
  N   N12       1.0  0.4056153765216947  0.6808452398190568  0.19410109054039276  1.0000
  O   O1        1.0  0.03908395173507258  0.6226021424090787  0.44404331442753187  1.0000
  O   O2        1.0  0.960914944988083  0.3773983551330815  0.5559564063548452  1.0000
  O   O3        1.0  0.21403178988175833  0.9078822230558926  0.5532478489007602  1.0000
  O   O4        1.0  0.7859676626367857  0.09211956271097678  0.44675132783390137  1.0000
  O   O5        1.0  0.48949231729410764  0.26442028731489836  0.08129751188373291  1.0000
  O   O6        1.0  0.5105073373030535  0.7355789269329024  0.9187047294694821  1.0000
  O   O7        1.0  0.34420918422121355  0.08230985091161358  0.8733842765138038  1.0000
  O   O8        1.0  0.6557931179129782  0.9176893437074938  0.12661750977292027  1.0000
  O   O9        1.0  0.5034374838490407  0.31433900710977986  0.474668255994267  1.0000
  O   O10       1.0  0.4965621828670591  0.6856601894443841  0.5253313404913201  1.0000
  O   O11       1.0  0.37841654265313446  0.4111836963412259  0.626010694406496  1.0000
  O   O12       1.0  0.6215818023142672  0.5888155070783441  0.37398868880105607  1.0000
  O   O13       1.0  0.7326062525064784  0.2856520370175417  0.2957041166371539  1.0000
  O   O14       1.0  0.2673952957933493  0.7143484349980438  0.7042942674561985  1.0000
  O   O15       1.0  0.8222221630256001  0.6526138875565124  0.6387567671224021  1.0000
  O   O16       1.0  0.1777807070229187  0.34738657759366726  0.3612418302489858  1.0000
