data_image0
_chemical_formula_structural       Cu12H72C112N24
_chemical_formula_sum              "Cu12 H72 C112 N24"
_cell_length_a       29.409359783987767
_cell_length_b       32.66650930030549
_cell_length_c       32.732487515304314
_cell_angle_alpha    88.56825544599737
_cell_angle_beta     88.95788563081729
_cell_angle_gamma    89.8409460725008

_space_group_name_H-M_alt    "P 1"
_space_group_IT_number       1

loop_
  _space_group_symop_operation_xyz
  'x, y, z'

loop_
  _atom_site_type_symbol
  _atom_site_label
  _atom_site_symmetry_multiplicity
  _atom_site_fract_x
  _atom_site_fract_y
  _atom_site_fract_z
  _atom_site_occupancy
  Cu  Cu1       1.0  0.17291116149206692  0.9109279878215018  0.8790188911589215  1.0000
  Cu  Cu2       1.0  0.10956687167955441  0.8516094328247517  0.8334985477327381  1.0000
  Cu  Cu3       1.0  0.11775328266092797  0.8445266523505806  0.9306192686177469  1.0000
  Cu  Cu4       1.0  0.653635585363894  0.5864092904734618  0.10701564832127991  1.0000
  Cu  Cu5       1.0  0.5981756343234323  0.6376429185416937  0.17358229400403502  1.0000
  Cu  Cu6       1.0  0.6270669711610212  0.6780146398637398  0.08838437685196252  1.0000
  Cu  Cu7       1.0  0.3331027570492111  0.08512351723319257  0.37991155559149103  1.0000
  Cu  Cu8       1.0  0.4204077666227591  0.12851497750138208  0.3375965799870144  1.0000
  Cu  Cu9       1.0  0.3640966622333863  0.17303854724567455  0.4065095692197859  1.0000
  Cu  Cu10      1.0  0.8471416902816385  0.4247737838482876  0.617404661473451  1.0000
  Cu  Cu11      1.0  0.9059752256752275  0.36019055121196414  0.6690522648342778  1.0000
  Cu  Cu12      1.0  0.8700848051135921  0.33827671307656  0.5819138429661735  1.0000
  H   H1        1.0  0.6766434384845398  0.4784929893971036  0.35000565151679564  1.0000
  H   H2        1.0  0.5842663164156647  0.4155855173265193  0.2724888662669684  1.0000
  H   H3        1.0  0.7085627324087793  0.4422692292664933  0.4103644613461698  1.0000
  H   H4        1.0  0.6601633074520804  0.32163341421583164  0.4454207128939062  1.0000
  H   H5        1.0  0.5992549538259127  0.2892249589659812  0.40553806609488424  1.0000
  H   H6        1.0  0.5556453794335213  0.34669587293042514  0.29295361566735073  1.0000
  H   H7        1.0  0.17448601760698776  0.01915170194468629  0.6570683190885875  1.0000
  H   H8        1.0  0.08232485007461321  0.08837213661664829  0.7326544020456894  1.0000
  H   H9        1.0  0.19607379726625848  0.04539676843198488  0.5878381944043414  1.0000
  H   H10       1.0  0.13934236244592313  0.1589699634889142  0.5418952850188035  1.0000
  H   H11       1.0  0.08107970462176439  0.19534767346496543  0.5827716534309318  1.0000
  H   H12       1.0  0.046535109256872396  0.15184448135425296  0.7048325764207848  1.0000
  H   H13       1.0  0.8223649207789948  0.5295602239450188  0.829959453640065  1.0000
  H   H14       1.0  0.9259034100818297  0.5999454070537167  0.7655215365516883  1.0000
  H   H15       1.0  0.7895170793814615  0.5549011350413834  0.8953050126185078  1.0000
  H   H16       1.0  0.8436488501217312  0.6636789212888059  0.9481540580584068  1.0000
  H   H17       1.0  0.9079472667094207  0.7000326492906764  0.9143383171474044  1.0000
  H   H18       1.0  0.9593402183036375  0.6605907471573854  0.7974760519552505  1.0000
  H   H19       1.0  0.293727482866089  0.9472598079120612  0.19412194810129793  1.0000
  H   H20       1.0  0.42907703009773  0.9105682851131502  0.22795283077669384  1.0000
  H   H21       1.0  0.25836300616277436  0.9184505114021916  0.13314434564015443  1.0000
  H   H22       1.0  0.3356635297510522  0.8379373054004302  0.055955516928875716  1.0000
  H   H23       1.0  0.4108207449198461  0.8123124566658644  0.07826721864762481  1.0000
  H   H24       1.0  0.4690154446815242  0.8557522054448439  0.18906803326004257  1.0000
  H   H25       1.0  0.17683384431337149  0.9856424264212998  0.8131533010601191  1.0000
  H   H26       1.0  0.11307048257049249  0.8913942062071951  0.7432906499303302  1.0000
  H   H27       1.0  0.17112055080812644  0.8440892939971003  0.014273030389915712  1.0000
  H   H28       1.0  0.2566347055678762  0.9231424268812202  0.9377068628821522  1.0000
  H   H29       1.0  0.0409028339628108  0.7799506529037429  0.8186781288971051  1.0000
  H   H30       1.0  0.0376986983946637  0.7811536474889916  0.9510574337614345  1.0000
  H   H31       1.0  0.653434088561916  0.49895767299536686  0.15106816337632983  1.0000
  H   H32       1.0  0.5959539325918541  0.5726459381306553  0.24741849723724138  1.0000
  H   H33       1.0  0.6953076537107564  0.699193169446424  0.014256894038581406  1.0000
  H   H34       1.0  0.7238759349944458  0.5700615939853076  0.03394802793544472  1.0000
  H   H35       1.0  0.5338326182328785  0.7078748416602064  0.20906340484962277  1.0000
  H   H36       1.0  0.563177611342951  0.7562495116606623  0.08698935999473183  1.0000
  H   H37       1.0  0.32747475440604024  0.005349047947902398  0.32711322278761673  1.0000
  H   H38       1.0  0.44911425862608206  0.061087950666148985  0.27427749623340963  1.0000
  H   H39       1.0  0.28685710699024725  0.19349663875723166  0.471465915425661  1.0000
  H   H40       1.0  0.2527820301553589  0.06801656793557236  0.44517144547474174  1.0000
  H   H41       1.0  0.5009921232582927  0.19275944285610783  0.3215195393987713  1.0000
  H   H42       1.0  0.4283728299256778  0.2485425069237194  0.42219307020166513  1.0000
  H   H43       1.0  0.8429510960694984  0.4978366655519577  0.6790354768342086  1.0000
  H   H44       1.0  0.9060322702422852  0.40408823352409223  0.7549509834984464  1.0000
  H   H45       1.0  0.8013047229578164  0.33646348969504186  0.5082366529197984  1.0000
  H   H46       1.0  0.7825485483197879  0.46112604569097454  0.5476044415748832  1.0000
  H   H47       1.0  0.9792394438646069  0.2896799236260674  0.6828193375225028  1.0000
  H   H48       1.0  0.9317080529062383  0.2609929438622131  0.5623362976926886  1.0000
  H   H49       1.0  0.12494776449318579  0.03135047242270869  0.7626753837139619  1.0000
  H   H50       1.0  0.1428257164906128  0.9664437502323576  0.6979056499061898  1.0000
  H   H51       1.0  0.6369475909844342  0.5162496679829471  0.2937671930785513  1.0000
  H   H52       1.0  0.6249670979170573  0.45510964667555937  0.2249055858960319  1.0000
  H   H53       1.0  0.32479060736703513  0.9723916423284887  0.25565777996050804  1.0000
  H   H54       1.0  0.42851514923923156  0.9807977600046837  0.24618343017908736  1.0000
  H   H55       1.0  0.8847138599154362  0.5447275600765662  0.7308510544129092  1.0000
  H   H56       1.0  0.8695469139341016  0.4770713058426138  0.7965802549711541  1.0000
  H   H57       1.0  0.22139718629325955  0.8798194689317992  0.07383159357419092  1.0000
  H   H58       1.0  0.2983488648193244  0.8874268900845903  0.0093055773892132  1.0000
  H   H59       1.0  0.7239184747557772  0.3470352850696655  0.47853420400266355  1.0000
  H   H60       1.0  0.7384977633746245  0.44020139922920976  0.4722382623732033  1.0000
  H   H61       1.0  0.7626160995952133  0.5756481744377593  0.9628276149038372  1.0000
  H   H62       1.0  0.769687911286084  0.669233543818258  0.9687020396786182  1.0000
  H   H63       1.0  0.21469004607802591  0.06895242830410098  0.5183406534591557  1.0000
  H   H64       1.0  0.2120462679469313  0.1630926595033415  0.515432275234339  1.0000
  H   H65       1.0  0.9901004026190064  0.7203247861070422  0.8250343579503793  1.0000
  H   H66       1.0  0.9746020436140765  0.7287337110740136  0.9176836313671972  1.0000
  H   H67       1.0  0.5330698525401658  0.27289999496194633  0.31255448423766563  1.0000
  H   H68       1.0  0.5176679565583556  0.2792164651448131  0.4052678003376827  1.0000
  H   H69       1.0  0.018648138573169597  0.21888628977119845  0.6802262655305145  1.0000
  H   H70       1.0  0.007014306162680797  0.21578055035035243  0.5871600733222452  1.0000
  H   H71       1.0  0.48503385259616744  0.789954630813028  0.09639626579751591  1.0000
  H   H72       1.0  0.49342342225978086  0.7855962202120778  0.1898768914446336  1.0000
  C   C1        1.0  0.6581065638804448  0.4172220002762541  0.3710023279589977  1.0000
  C   C2        1.0  0.6565275614238927  0.45141511161170905  0.34355363246645254  1.0000
  C   C3        1.0  0.6309022575900514  0.45086817342571794  0.3078017860281292  1.0000
  C   C4        1.0  0.6053124550625101  0.4158616499636592  0.2996015650559159  1.0000
  C   C5        1.0  0.604153697112956  0.3815720709332807  0.3268785215441811  1.0000
  C   C6        1.0  0.6307065497390313  0.38234111173341023  0.36296370621061413  1.0000
  C   C7        1.0  0.6864717384924575  0.4161254816340686  0.4054524019548183  1.0000
  C   C8        1.0  0.6883187767444737  0.38155252133287104  0.4318733390006032  1.0000
  C   C9        1.0  0.6595655588385156  0.3483244308174773  0.4246364695026301  1.0000
  C   C10       1.0  0.630015292702069  0.34815507239196813  0.3909937268717414  1.0000
  C   C11       1.0  0.600235497449276  0.3151912056893237  0.38389355189121244  1.0000
  C   C12       1.0  0.5727533444328048  0.3148014572130292  0.3492662252972637  1.0000
  C   C13       1.0  0.5763534914686802  0.34709957781871725  0.32030869458989036  1.0000
  C   C14       1.0  0.1480452372484464  0.07461151616249137  0.6287931122237752  1.0000
  C   C15       1.0  0.15158337248816878  0.04514896787207329  0.661023310873347  1.0000
  C   C16       1.0  0.1281217557613701  0.04976372074527549  0.698394269533452  1.0000
  C   C17       1.0  0.10053719197991032  0.08447246484343648  0.7036203405435799  1.0000
  C   C18       1.0  0.0946981934713662  0.11413563423806036  0.6718773159315674  1.0000
  C   C19       1.0  0.11904425961932219  0.10928031799752344  0.634158723892874  1.0000
  C   C20       1.0  0.17340744242252987  0.07160764458164688  0.5917944530452175  1.0000
  C   C21       1.0  0.17204062988052019  0.10244634430869576  0.5611698578430051  1.0000
  C   C22       1.0  0.1421508633445825  0.1356494632330437  0.5661894258167948  1.0000
  C   C23       1.0  0.11493544824382701  0.13944993754291343  0.6020251665366558  1.0000
  C   C24       1.0  0.08415854909183203  0.17234701947057823  0.607340960964166  1.0000
  C   C25       1.0  0.05877091149702811  0.17666092053232052  0.6437895447080778  1.0000
  C   C26       1.0  0.06541800860587442  0.14829536160689114  0.6760869549450705  1.0000
  C   C27       1.0  0.8445019558382896  0.5839383297676191  0.860571437342138  1.0000
  C   C28       1.0  0.8457626966919847  0.5554696764371199  0.8286139335204157  1.0000
  C   C29       1.0  0.874969074876674  0.5609450063042797  0.7945167033390277  1.0000
  C   C30       1.0  0.9033831184317906  0.595408081165658  0.792138992679803  1.0000
  C   C31       1.0  0.9050636967363986  0.6235296836736095  0.8241926152881334  1.0000
  C   C32       1.0  0.8749987778513315  0.6179145783721084  0.8585820797997814  1.0000
  C   C33       1.0  0.8134545626743943  0.5804376170024312  0.8940563510345428  1.0000
  C   C34       1.0  0.8114372365707824  0.6098100556719712  0.9246638384311512  1.0000
  C   C35       1.0  0.8431142890499997  0.641983230430462  0.9233407981557847  1.0000
  C   C36       1.0  0.8753206665320759  0.6465562811228265  0.8909054734130281  1.0000
  C   C37       1.0  0.9077743536653885  0.6784616966473178  0.8894131818321329  1.0000
  C   C38       1.0  0.9388132222237431  0.6833125313308058  0.8564406968073045  1.0000
  C   C39       1.0  0.9360633867833882  0.6565912626216102  0.8236611888487178  1.0000
  C   C40       1.0  0.32592892879692664  0.9035791305928951  0.15420315923616815  1.0000
  C   C41       1.0  0.32429630172504886  0.9290479260599508  0.1884752701886612  1.0000
  C   C42       1.0  0.3618741657405877  0.933395584384918  0.21383448241418535  1.0000
  C   C43       1.0  0.40062593448701717  0.9090045535172632  0.20708545257321737  1.0000
  C   C44       1.0  0.40329919750836757  0.8817045817852215  0.17411194639707625  1.0000
  C   C45       1.0  0.3663214378477591  0.8805388564564037  0.14635140703965993  1.0000
  C   C46       1.0  0.28937966410575205  0.9010933545417142  0.12685693399065914  1.0000
  C   C47       1.0  0.29317548730615073  0.8788267448830135  0.09085565408538801  1.0000
  C   C48       1.0  0.33311591619599323  0.8565320591371726  0.08315786254917874  1.0000
  C   C49       1.0  0.3695518438340812  0.8561461640237765  0.11083960444886291  1.0000
  C   C50       1.0  0.40864469427315  0.8316005975502845  0.1050198253048649  1.0000
  C   C51       1.0  0.44334447582119196  0.8295865623859481  0.13389430605068506  1.0000
  C   C52       1.0  0.44105801654611543  0.8554397278334843  0.16758413006350284  1.0000
  C   C53       1.0  0.16067751306916733  0.9583315160950929  0.8020828634844012  1.0000
  C   C54       1.0  0.1437495448042085  0.9508270651734845  0.7630438159327044  1.0000
  C   C55       1.0  0.129044690843422  0.9099297320425418  0.7660377036547814  1.0000
  C   C56       1.0  0.18612980332845555  0.8640621285642992  0.9907287316376601  1.0000
  C   C57       1.0  0.22846883854868594  0.8839680257902668  0.9898700662077362  1.0000
  C   C58       1.0  0.23021170500638988  0.9037413719644788  0.9512397109593069  1.0000
  C   C59       1.0  0.0458843679054368  0.7849244839391288  0.850929039244676  1.0000
  C   C60       1.0  0.023997985469407  0.7666674475157222  0.8853653040584321  1.0000
  C   C61       1.0  0.0440830576094839  0.7858809838310136  0.9185024905825828  1.0000
  C   C62       1.0  0.6392751328803356  0.5227037749563692  0.1701603480308265  1.0000
  C   C63       1.0  0.6254675117000943  0.5204954382116252  0.21149186570373504  1.0000
  C   C64       1.0  0.6108622115293016  0.5605704844670496  0.21962471522459032  1.0000
  C   C65       1.0  0.6968252209859074  0.6673156328779298  0.024334262528732598  1.0000
  C   C66       1.0  0.7242023349142598  0.6353903538514485  0.009496589565330308  1.0000
  C   C67       1.0  0.710988710557544  0.6012306050231541  0.03395139702401201  1.0000
  C   C68       1.0  0.5462698065828705  0.7144284598151028  0.17816085056892217  1.0000
  C   C69       1.0  0.5346921065963457  0.7467365184181174  0.15108415190432822  1.0000
  C   C70       1.0  0.5605842414773646  0.7387798403181943  0.11556817137481802  1.0000
  C   C71       1.0  0.3561060957377861  0.024710235351427894  0.31827085563036667  1.0000
  C   C72       1.0  0.39024325284377426  0.018579185705632995  0.2883573948540246  1.0000
  C   C73       1.0  0.41867651606823125  0.05280608319989708  0.2918070009344334  1.0000
  C   C74       1.0  0.2841696516479573  0.16274124175259883  0.45991022174671065  1.0000
  C   C75       1.0  0.2545514472660528  0.13091067224257802  0.47238388787796753  1.0000
  C   C76       1.0  0.2671075786216193  0.09847379287653978  0.44695466043708637  1.0000
  C   C77       1.0  0.47728097158853433  0.20168270555218018  0.3454807737685074  1.0000
  C   C78       1.0  0.4795660164979339  0.23460250234792562  0.3722508919543373  1.0000
  C   C79       1.0  0.4406247285640958  0.22967102269283393  0.3974360635710355  1.0000
  C   C80       1.0  0.8593838735290972  0.47073121116225974  0.6917607555217347  1.0000
  C   C81       1.0  0.8741616487265347  0.4629644335009572  0.7318333021045051  1.0000
  C   C82       1.0  0.8906243711932192  0.42256275635835283  0.7308679374294585  1.0000
  C   C83       1.0  0.8012268880399845  0.3655128941105231  0.5235924268064097  1.0000
  C   C84       1.0  0.7770918564650487  0.4017139477926149  0.5141868071003017  1.0000
  C   C85       1.0  0.7922734731208295  0.42942908471557195  0.5431719506444708  1.0000
  C   C86       1.0  0.9619927757800327  0.2875392732120331  0.6539240922168333  1.0000
  C   C87       1.0  0.9695815491601822  0.26049103146107194  0.6216575121407574  1.0000
  C   C88       1.0  0.9380241407081441  0.2733254452985533  0.5921885199970448  1.0000
  C   C89       1.0  0.1316632456317421  0.0197116797426844  0.732064295862493  1.0000
  C   C90       1.0  0.1401131592720049  0.9792672289900252  0.7284283944113599  1.0000
  C   C91       1.0  0.631226332110657  0.48657816486752364  0.2799312363639005  1.0000
  C   C92       1.0  0.6267226730490449  0.48508650702139966  0.2389882866517539  1.0000
  C   C93       1.0  0.35919682382991164  0.9643643975892285  0.2452645412764981  1.0000
  C   C94       1.0  0.39450463390191004  0.986132468884058  0.25910835682768874  1.0000
  C   C95       1.0  0.877041692190474  0.5317443574458662  0.7613570350944272  1.0000
  C   C96       1.0  0.8729723721091958  0.4906953390588526  0.7657883402452372  1.0000
  C   C97       1.0  0.25620398200180006  0.8800388342378863  0.06139151383613491  1.0000
  C   C98       1.0  0.2633162619234141  0.8836536761813959  0.020608192658784212  1.0000
  C   C99       1.0  0.7198694388439719  0.37809420417607226  0.46572374599395533  1.0000
  C   C100      1.0  0.7439701948166474  0.40845425771794897  0.4824461941527576  1.0000
  C   C101      1.0  0.7762561479635439  0.606387599094141  0.9566930171324017  1.0000
  C   C102      1.0  0.7583393625480354  0.6382441674261299  0.9771688388836568  1.0000
  C   C103      1.0  0.20318061203852983  0.09977057141517778  0.525989687480717  1.0000
  C   C104      1.0  0.22119032897067828  0.1324029410646118  0.5053529107443071  1.0000
  C   C105      1.0  0.9739693601952836  0.7147577271349231  0.85506187525381  1.0000
  C   C106      1.0  0.9890363273026849  0.7356665391300935  0.8872714254281392  1.0000
  C   C107      1.0  0.5391719194292862  0.28235535586261296  0.34383402581939043  1.0000
  C   C108      1.0  0.5136128277552174  0.26637836923174507  0.37497239031604584  1.0000
  C   C109      1.0  0.0255688458643064  0.2096331521171989  0.6488011810654513  1.0000
  C   C110      1.0  0.0020926269929760002  0.22745264089855502  0.6179733893139457  1.0000
  C   C111      1.0  0.4792591750771892  0.7992010053851285  0.12799924054140632  1.0000
  C   C112      1.0  0.501800136257401  0.7790440574100684  0.15799784862251445  1.0000
  N   N1        1.0  0.13586967387147547  0.8946392862871517  0.8041159112347672  1.0000
  N   N2        1.0  0.15597020690921679  0.9246407668776296  0.8263804480723567  1.0000
  N   N3        1.0  0.19176341192502383  0.8964418701365842  0.9308836589621949  1.0000
  N   N4        1.0  0.16452197611756958  0.8714529302395562  0.9553062692692508  1.0000
  N   N5        1.0  0.07538503187666379  0.81326646366859  0.9048340093888572  1.0000
  N   N6        1.0  0.0764432132105668  0.8126129160816686  0.8627992135736806  1.0000
  N   N7        1.0  0.6159654668396897  0.5846455193507579  0.18583155447868901  1.0000
  N   N8        1.0  0.6339108901202763  0.5611853029145307  0.15512294011278271  1.0000
  N   N9        1.0  0.6783992592345456  0.6121599076400058  0.0610276655418147  1.0000
  N   N10       1.0  0.6694151012605828  0.6531987416467399  0.054944590479500725  1.0000
  N   N11       1.0  0.5853169905647987  0.7044038776930106  0.12117929621221181  1.0000
  N   N12       1.0  0.5762640425919159  0.6890735527834194  0.15998562266858582  1.0000
  N   N13       1.0  0.40233157881427667  0.07757543773320916  0.3210106968790853  1.0000
  N   N14       1.0  0.36362214317971114  0.059911617170214974  0.33766626915988246  1.0000
  N   N15       1.0  0.3016114901557074  0.11020183854993347  0.42168422620443385  1.0000
  N   N16       1.0  0.3124266943387966  0.15006280340242026  0.4299088914243115  1.0000
  N   N17       1.0  0.4169274100602324  0.19666585647875215  0.38624193625704356  1.0000
  N   N18       1.0  0.43992433697280114  0.17902010947872066  0.35421902777048336  1.0000
  N   N19       1.0  0.8863793825404684  0.4077234049838338  0.6930219998058007  1.0000
  N   N20       1.0  0.8666511864473563  0.43760150748499865  0.6688035897791523  1.0000
  N   N21       1.0  0.8224461731542406  0.4109034795665634  0.5681616338732596  1.0000
  N   N22       1.0  0.8281508036130204  0.37125050039409047  0.5557607544051992  1.0000
  N   N23       1.0  0.9135109276005123  0.3052335300167214  0.605918053135298  1.0000
  N   N24       1.0  0.9285439556630876  0.31411611285312085  0.6442477848040086  1.0000
