data_image0
_chemical_formula_structural       Zr6H22C52S10N2O37
_chemical_formula_sum              "Zr6 H22 C52 S10 N2 O37"
_cell_length_a       16.456126363379198
_cell_length_b       16.449612316819067
_cell_length_c       16.522151020532878
_cell_angle_alpha    61.7340428732626
_cell_angle_beta     59.839196738791166
_cell_angle_gamma    60.303341650510816

_space_group_name_H-M_alt    "P 1"
_space_group_IT_number       1

loop_
  _space_group_symop_operation_xyz
  'x, y, z'

loop_
  _atom_site_type_symbol
  _atom_site_label
  _atom_site_symmetry_multiplicity
  _atom_site_fract_x
  _atom_site_fract_y
  _atom_site_fract_z
  _atom_site_occupancy
  Zr  Zr1       1.0  0.8884113159014431  0.9031503591015664  0.5974529398713957  1.0000
  Zr  Zr2       1.0  0.11253856260427851  0.102669199253171  0.3978921141780988  1.0000
  Zr  Zr3       1.0  0.10265662755581659  0.8935414996651191  0.6076202897187885  1.0000
  Zr  Zr4       1.0  0.898331348419461  0.11178717070065156  0.38915548655653254  1.0000
  Zr  Zr5       1.0  0.10982483739309855  0.8932488211046067  0.3893378264605119  1.0000
  Zr  Zr6       1.0  0.8913193851420472  0.11152188538643058  0.6075223826435803  1.0000
  H   H1        1.0  0.07770631673313488  0.7527725325225276  0.5778971178224879  1.0000
  H   H2        1.0  0.09342609046127143  0.0820218456608899  0.2480995727221824  1.0000
  H   H3        1.0  0.08371240359868172  0.08159608876273694  0.5900144143445517  1.0000
  H   H4        1.0  0.7453237558386832  0.09454294736318061  0.5770903870234534  1.0000
  H   H5        1.0  0.12561534976010344  0.6119956103281724  0.3616430535395239  1.0000
  H   H6        1.0  0.6109677366639941  0.1271970745670358  0.8995166045327636  1.0000
  H   H7        1.0  0.8679637884684581  0.12523110797705778  0.11733749645325996  1.0000
  H   H8        1.0  0.6228343515033357  0.39700003953826274  0.36284676164388696  1.0000
  H   H9        1.0  0.09523474848734945  0.6436990295710816  0.8725056976389497  1.0000
  H   H10       1.0  0.8424061571661027  0.654875131084424  0.8499117342406207  1.0000
  H   H11       1.0  0.888547241696983  0.37717314358345533  0.13770841031915637  1.0000
  H   H12       1.0  0.15241315645140918  0.3548011161638201  0.14947212532027274  1.0000
  H   H13       1.0  0.6224398298669693  0.8754710760118983  0.6096695453506271  1.0000
  H   H14       1.0  0.8109084609182627  0.44960794870195997  0.6764509360588066  1.0000
  H   H15       1.0  0.44662991125397145  0.8139437022775767  0.06058770923070267  1.0000
  H   H16       1.0  0.17098080288126727  0.8135995233987149  0.9353343825206862  1.0000
  H   H17       1.0  0.43365239237458986  0.5777016746717438  0.6746913147287117  1.0000
  H   H18       1.0  0.432512010568665  0.1735509855713601  0.3200733182709073  1.0000
  H   H19       1.0  0.20425371365853776  0.5494746682223384  0.924315502290028  1.0000
  H   H20       1.0  0.2418867112978659  0.4623427221663406  0.01920340556218748  1.0000
  H   H21       1.0  0.8222061410076336  0.42906241947369506  0.04277529502549988  1.0000
  H   H22       1.0  0.7757581818580874  0.5247536967256464  0.9570915926315494  1.0000
  C   C1        1.0  0.9947024532027127  0.7390986767386141  0.48449897046701557  1.0000
  C   C2        1.0  0.2822396987891263  0.9881930685185625  0.23496190976221945  1.0000
  C   C3        1.0  0.9978353332312294  0.27266936569970585  0.5049568107514517  1.0000
  C   C4        1.0  0.7245746667169896  0.009095304615627181  0.7683205986732987  1.0000
  C   C5        1.0  0.9788813625202404  0.7419613669099479  0.7666210777989875  1.0000
  C   C6        1.0  0.731627111206137  0.00671238808681094  0.4860312571233223  1.0000
  C   C7        1.0  0.012423860763661263  0.2713210289513769  0.23647072553085022  1.0000
  C   C8        1.0  0.27626791718519433  0.9915897361413002  0.5012524484320052  1.0000
  C   C9        1.0  0.27245678013622376  0.7299078194972923  0.49770094360701483  1.0000
  C   C10       1.0  0.990910590040982  0.9969425701352393  0.7779480954344394  1.0000
  C   C11       1.0  0.7341339536095431  0.2818317892633362  0.4931634943864865  1.0000
  C   C12       1.0  0.00042982194013062265  0.00031881731363370776  0.2264911283256339  1.0000
  C   C13       1.0  0.926275259269225  0.4218972946139277  0.5645899022966531  1.0000
  C   C14       1.0  0.062157510666828654  0.5926679362181135  0.42330733358934947  1.0000
  C   C15       1.0  0.994843565589839  0.3641792341182182  0.5017901262367558  1.0000
  C   C16       1.0  0.9942689057740636  0.6492863590147099  0.4860122598345171  1.0000
  C   C17       1.0  0.0374875046871849  0.50990847502991  0.4512487873075059  1.0000
  C   C18       1.0  0.9509376348973929  0.5053492069933084  0.5352716993674991  1.0000
  C   C19       1.0  0.4232791539508437  0.9252299433864412  0.08880383503529274  1.0000
  C   C20       1.0  0.58972735997871  0.06557430552432204  0.9189655775514893  1.0000
  C   C21       1.0  0.37119396966392043  0.9879703253416566  0.14660218231853156  1.0000
  C   C22       1.0  0.6396240403108774  0.004103558884104054  0.8612413560185245  1.0000
  C   C23       1.0  0.5109229944950114  0.03700384013075821  0.002322823218044316  1.0000
  C   C24       1.0  0.5030767263538392  0.9537178378764043  0.006186845496323327  1.0000
  C   C25       1.0  0.05820192933416707  0.9280299660556897  0.9170463251531016  1.0000
  C   C26       1.0  0.9289798401308075  0.0631599207757034  0.09278103767226752  1.0000
  C   C27       1.0  0.9911118152106367  0.9948233846923177  0.8673863884638138  1.0000
  C   C28       1.0  0.9968094838892082  0.9976329925317844  0.1404465710366055  1.0000
  C   C29       1.0  0.9506321532367891  0.03804474527627374  0.011545364603008946  1.0000
  C   C30       1.0  0.034838542567655  0.95319076413751  0.9992547875456382  1.0000
  C   C31       1.0  0.4138741813878041  0.5943372821950491  0.5628289824264671  1.0000
  C   C32       1.0  0.5969688151965541  0.4208951212106202  0.4254535162010171  1.0000
  C   C33       1.0  0.36352872473835846  0.6439928629154326  0.4964046696347993  1.0000
  C   C34       1.0  0.6455730610279816  0.371602796742991  0.4923152833043858  1.0000
  C   C35       1.0  0.5126863709650991  0.5024413845388126  0.4503942406203052  1.0000
  C   C36       1.0  0.49896176498521766  0.5134933955516914  0.5362724577613492  1.0000
  C   C37       1.0  0.03910817661401469  0.6105674134485284  0.9016650400107976  1.0000
  C   C38       1.0  0.8941184010568858  0.6181515144097817  0.8893703450857373  1.0000
  C   C39       1.0  0.8856696028186161  0.5363044567784885  0.970711951100178  1.0000
  C   C40       1.0  0.9552561749593803  0.4888588331241834  0.02110164752003393  1.0000
  C   C41       1.0  0.9485328736304195  0.4063895003649734  0.10486330601740697  1.0000
  C   C42       1.0  0.09798780533634499  0.39423809584504005  0.11273475037530295  1.0000
  C   C43       1.0  0.10668307790368196  0.4758994122559912  0.031092674763002048  1.0000
  C   C44       1.0  0.034002330028926026  0.5264583237302319  0.9837733805597466  1.0000
  C   C45       1.0  0.9703086735204206  0.6553390405349833  0.8553306060995921  1.0000
  C   C46       1.0  0.018853781573113678  0.360007699094517  0.14970538080061865  1.0000
  C   C47       1.0  0.4166804419357675  0.059772972892240345  0.4294673176468676  1.0000
  C   C48       1.0  0.5967804322715862  0.9349604325755578  0.5509090350046365  1.0000
  C   C49       1.0  0.36704492306738934  0.9921599826711119  0.49631607871992867  1.0000
  C   C50       1.0  0.644666574385326  0.002957981863651852  0.4852678667315047  1.0000
  C   C51       1.0  0.5138411537955815  0.9548559506550379  0.530805378559407  1.0000
  C   C52       1.0  0.5006139671048403  0.0380060980005865  0.44959304802539185  1.0000
  S   S1        1.0  0.08867170933597619  0.4118844018228103  0.4078027269138574  1.0000
  S   S2        1.0  0.8996481316641431  0.6029228808295599  0.5795599320571512  1.0000
  S   S3        1.0  0.4203603044507388  0.08051357753324605  0.10031874171416186  1.0000
  S   S4        1.0  0.5922423328379547  0.910611155344434  0.9076001831705939  1.0000
  S   S5        1.0  0.8999903527993425  0.0873346267582634  0.9219078304051747  1.0000
  S   S6        1.0  0.08719556043085654  0.9043520569493853  0.08749471975333016  1.0000
  S   S7        1.0  0.4211260414394997  0.5917171580187529  0.4018348913100596  1.0000
  S   S8        1.0  0.5895679596780851  0.4239604640681237  0.5861486073754208  1.0000
  S   S9        1.0  0.4233520507479366  0.9027864596970759  0.5826171606434228  1.0000
  S   S10       1.0  0.5900010920699826  0.09147202051836698  0.3980033387068573  1.0000
  N   N1        1.0  0.18326718476430412  0.5108632139367941  0.9963797289887709  1.0000
  N   N2        1.0  0.8088253792876898  0.5014932605036223  0.005637654063917819  1.0000
  O   O1        1.0  0.9230200479440138  0.7770316573254946  0.5521582434504068  1.0000
  O   O2        1.0  0.24783354730737975  0.05701726853019548  0.2718080956312363  1.0000
  O   O3        1.0  0.07108546310901424  0.2339368402379662  0.4382143751286591  1.0000
  O   O4        1.0  0.7564259662126102  0.9434191396365962  0.728619325730179  1.0000
  O   O5        1.0  0.05045202054706269  0.7723323178696618  0.7353198894399641  1.0000
  O   O6        1.0  0.7664032965121379  0.07517389511518506  0.4200457568099409  1.0000
  O   O7        1.0  0.9416748344377196  0.23974178569496035  0.26700990080500026  1.0000
  O   O8        1.0  0.23959237961397392  0.9250516858331326  0.5699972656145889  1.0000
  O   O9        1.0  0.23991254846870871  0.7624415778572387  0.4280983682331438  1.0000
  O   O10       1.0  0.9229204427855959  0.06789926635722321  0.7438069982640628  1.0000
  O   O11       1.0  0.7650361925251729  0.24722129495027917  0.5640339278701703  1.0000
  O   O12       1.0  0.06951712868247027  0.9312558790894343  0.2592919336912943  1.0000
  O   O13       1.0  0.059811199800769224  0.9284860297620131  0.7398552944130118  1.0000
  O   O14       1.0  0.7710249598048262  0.245525438055509  0.4235485832244876  1.0000
  O   O15       1.0  0.9344609027268759  0.07265925499817887  0.25984789330041735  1.0000
  O   O16       1.0  0.2317656396133712  0.7652018605226305  0.5689272341796965  1.0000
  O   O17       1.0  0.913857925950459  0.7790881859290981  0.7263211159305529  1.0000
  O   O18       1.0  0.23977903593626587  0.0603742138835486  0.4354919848824395  1.0000
  O   O19       1.0  0.08024955541516474  0.23141013930123933  0.2736675866001121  1.0000
  O   O20       1.0  0.7635876832883067  0.940293039690758  0.5554350398628074  1.0000
  O   O21       1.0  0.7582355932386519  0.07834745881153522  0.7349947366950644  1.0000
  O   O22       1.0  0.0667205859248976  0.7700597512025313  0.4179109504844547  1.0000
  O   O23       1.0  0.24448989505655966  0.9219886249760383  0.2675012532950376  1.0000
  O   O24       1.0  0.9286329856331078  0.23805169936920859  0.5735792330621904  1.0000
  O   O25       1.0  0.8176733921598751  0.06940605926969587  0.5541737719033293  1.0000
  O   O26       1.0  0.05930932290067402  0.05884370713395264  0.5647830232922503  1.0000
  O   O27       1.0  0.06685706810562661  0.058668205371532216  0.31912958475181336  1.0000
  O   O28       1.0  0.055532363401915794  0.8238157641459198  0.5541948196939758  1.0000
  O   O29       1.0  0.13380189273652784  0.9535542063783783  0.45690186060948423  1.0000
  O   O30       1.0  0.9564401879590104  0.9611652476461785  0.44839081827696964  1.0000
  O   O31       1.0  0.9585814910281055  0.1343858313569655  0.457140242354356  1.0000
  O   O32       1.0  0.9504483498465529  0.9617426886377847  0.6298014024562305  1.0000
  O   O33       1.0  0.8470672486733334  0.3994097720476474  0.6433596308727303  1.0000
  O   O34       1.0  0.3987277399437299  0.8480740565441496  0.10985937007966129  1.0000
  O   O35       1.0  0.13592018226383115  0.8499215975858335  0.8888220322012329  1.0000
  O   O36       1.0  0.3839802080691184  0.6203451690879476  0.6429487969600345  1.0000
  O   O37       1.0  0.38706340116183907  0.13639013709457978  0.35578594178647893  1.0000
