data_image0
_chemical_formula_structural       Zn2H34C32N8Cl2O4
_chemical_formula_sum              "Zn2 H34 C32 N8 Cl2 O4"
_cell_length_a       7.280495121354496
_cell_length_b       8.309135311086244
_cell_length_c       13.73226381739321
_cell_angle_alpha    90.00059518145497
_cell_angle_beta     90.00061790978523
_cell_angle_gamma    92.26755045499641

_space_group_name_H-M_alt    "P 1"
_space_group_IT_number       1

loop_
  _space_group_symop_operation_xyz
  'x, y, z'

loop_
  _atom_site_type_symbol
  _atom_site_label
  _atom_site_symmetry_multiplicity
  _atom_site_fract_x
  _atom_site_fract_y
  _atom_site_fract_z
  _atom_site_occupancy
  Zn  Zn1       1.0  0.1965953604274162  0.020109316099315305  0.7500015085238017  1.0000
  Zn  Zn2       1.0  0.8034004180968921  0.9798830506507488  0.2500006378446428  1.0000
  H   H1        1.0  0.7961033079806512  0.005946627790670802  0.8520853923443849  1.0000
  H   H2        1.0  0.20390035798156703  0.9940560328034777  0.3520884796860955  1.0000
  H   H3        1.0  0.20389720573581369  0.994068678490194  0.1479102002028796  1.0000
  H   H4        1.0  0.7960888073179293  0.005945871130926206  0.6479143949062446  1.0000
  H   H5        1.0  0.28581790824108577  0.26490289848699433  0.9282331778830863  1.0000
  H   H6        1.0  0.7141899919225664  0.7350963161122054  0.42822803932819636  1.0000
  H   H7        1.0  0.714192954647629  0.7350884775920646  0.07177479422153968  1.0000
  H   H8        1.0  0.28580990928757904  0.264896108874943  0.5717733788401205  1.0000
  H   H9        1.0  0.007179640396444102  0.35272414682098946  0.053987155577978285  1.0000
  H   H10       1.0  0.9928263685818878  0.6472890700044047  0.55398713067796  1.0000
  H   H11       1.0  0.9928285384721393  0.6472695989598448  0.946017175466366  1.0000
  H   H12       1.0  0.007170054774093199  0.35272738239075346  0.44601720040594717  1.0000
  H   H13       1.0  0.6769208469007423  0.149124691806108  0.08660211320497517  1.0000
  H   H14       1.0  0.3230798732445024  0.8508709538669237  0.5866083213623554  1.0000
  H   H15       1.0  0.3230763380334026  0.8508688985887716  0.9133942074749936  1.0000
  H   H16       1.0  0.6769145310563403  0.14912139347502773  0.413394553214161  1.0000
  H   H17       1.0  0.5790658485984962  0.10116298780510391  0.9704865342551653  1.0000
  H   H18       1.0  0.42093499255966554  0.8988476883146745  0.47049971216458164  1.0000
  H   H19       1.0  0.4209359103256888  0.8988475207140851  0.02950323258379939  1.0000
  H   H20       1.0  0.579055933917893  0.1011686864607668  0.5295089881757347  1.0000
  H   H21       1.0  0.6740560581685886  0.40136338689255513  0.8578814282717955  1.0000
  H   H22       1.0  0.32592711719362905  0.5986390838634464  0.3578804820683672  1.0000
  H   H23       1.0  0.32594694613317193  0.5986423240051124  0.14211853352399825  1.0000
  H   H24       1.0  0.6740525251161671  0.401366296937006  0.6421136539634134  1.0000
  H   H25       1.0  0.47764367970750504  0.3367082552179141  0.15180479967275318  1.0000
  H   H26       1.0  0.5223546227492336  0.6633005158185769  0.6518029258546105  1.0000
  H   H27       1.0  0.5223621053356666  0.663298698821876  0.848198803195217  1.0000
  H   H28       1.0  0.4776195549148526  0.33670599163709614  0.3481948512254858  1.0000
  H   H29       1.0  0.9149238466571746  0.4681058242140779  0.7499969854939222  1.0000
  H   H30       1.0  0.0851029587100882  0.5318653118847011  0.24999132486562556  1.0000
  H   H31       1.0  0.1294283488522865  0.48566513607552525  0.8138225908523252  1.0000
  H   H32       1.0  0.8706002613649988  0.5143239767309425  0.3138169228503073  1.0000
  H   H33       1.0  0.8705931530636589  0.5143131480785925  0.18616863236331227  1.0000
  H   H34       1.0  0.12942859530555495  0.4856724687087138  0.6861735722326541  1.0000
  C   C1        1.0  0.8927682354576875  0.08735014801008839  0.8893594633958269  1.0000
  C   C2        1.0  0.10723213046527044  0.9126543107981107  0.38936074808693627  1.0000
  C   C3        1.0  0.1072349622711855  0.9126627885626278  0.11063904199966859  1.0000
  C   C4        1.0  0.8927570992996294  0.08735000168614702  0.610640670089232  1.0000
  C   C5        1.0  0.14288149874928283  0.22404335447994583  0.9317127646888037  1.0000
  C   C6        1.0  0.857115513597023  0.7759569699707713  0.4317079750671055  1.0000
  C   C7        1.0  0.8571239961146162  0.7759527610154111  0.06828938171937438  1.0000
  C   C8        1.0  0.14287083868975262  0.22404248651472614  0.5682883456008836  1.0000
  C   C9        1.0  0.006309442561054404  0.26931286026707824  0.9935646682914336  1.0000
  C   C10       1.0  0.9936957204052917  0.7306874392716624  0.49356691935938796  1.0000
  C   C11       1.0  0.9936961812799867  0.7306880723662131  0.006438934556705098  1.0000
  C   C12       1.0  0.0062988129267438015  0.26930972525282476  0.5064425091414505  1.0000
  C   C13       1.0  0.6679722079357122  0.1883976305198871  0.010488034055732997  1.0000
  C   C14       1.0  0.332024568781904  0.8116123001830788  0.5104925841185234  1.0000
  C   C15       1.0  0.33202808012865853  0.8116092458173655  0.9895104713119734  1.0000
  C   C16       1.0  0.6679621059709008  0.18839919916638342  0.4895095622855407  1.0000
  C   C17       1.0  0.5995256124702025  0.44552910149248964  0.9206546932875167  1.0000
  C   C18       1.0  0.4004644554905141  0.5544769538609415  0.420656072172484  1.0000
  C   C19       1.0  0.4004773273584308  0.5544742008489438  0.07934599671239789  1.0000
  C   C20       1.0  0.5995263741885496  0.44553580800690185  0.5793453460354172  1.0000
  C   C21       1.0  0.5872949955494419  0.3526827489827866  0.0056770357421385  1.0000
  C   C22       1.0  0.41270429857883073  0.6473223191887458  0.5056751626844117  1.0000
  C   C23       1.0  0.41270944748752214  0.6473253899110746  0.994325110701723  1.0000
  C   C24       1.0  0.5872918022493536  0.3526820902914878  0.49431751696702253  1.0000
  C   C25       1.0  0.4873612258958887  0.40820896619226943  0.08523336808697478  1.0000
  C   C26       1.0  0.5126329163654972  0.5917986011841591  0.5852295224312839  1.0000
  C   C27       1.0  0.5126390944089039  0.59179911442628  0.9147651372846963  1.0000
  C   C28       1.0  0.4873466936421097  0.40820557528402907  0.41475878790011916  1.0000
  C   C29       1.0  0.0440970405906072  0.7078036680516249  0.7500040146875333  1.0000
  C   C30       1.0  0.9559189322991486  0.29217333427793335  0.2500003163251491  1.0000
  C   C31       1.0  0.05265493458409049  0.5258374875474631  0.7499990844022689  1.0000
  C   C32       1.0  0.9473653865586655  0.4741480028927115  0.24999359525728682  1.0000
  N   N1        1.0  0.07022312386335021  0.11051277499898761  0.8672450360411188  1.0000
  N   N2        1.0  0.9297822377645703  0.889490170227589  0.3672443036811116  1.0000
  N   N3        1.0  0.9297811901887556  0.8894905467505653  0.1327549257507172  1.0000
  N   N4        1.0  0.07021232771523242  0.11050819850174781  0.6327563862790767  1.0000
  N   N5        1.0  0.8492601422492851  0.18194431863283717  0.9656121840704228  1.0000
  N   N6        1.0  0.15074193741207864  0.818065087231794  0.4656138362282859  1.0000
  N   N7        1.0  0.1507428620293112  0.8180613922457098  0.03438559308921899  1.0000
  N   N8        1.0  0.8492502020404942  0.18194528550704092  0.5343897666118165  1.0000
  Cl  Cl1       1.0  0.49246717058342443  0.1117195102608903  0.7499997331493302  1.0000
  Cl  Cl2       1.0  0.5075298854739572  0.8882692630788755  0.25000459784734363  1.0000
  O   O1        1.0  0.20535651756205203  0.7829061045032262  0.7500032592013779  1.0000
  O   O2        1.0  0.7946392931949617  0.2170874665217681  0.24999815895897362  1.0000
  O   O3        1.0  0.8944927378206347  0.7764973852142205  0.7500066579450858  1.0000
  O   O4        1.0  0.10549977651802321  0.22347567430801973  0.2500071397447598  1.0000
