data_image0
_chemical_formula_structural       Zn8H28C44O34
_chemical_formula_sum              "Zn8 H28 C44 O34"
_cell_length_a       15.963492182801586
_cell_length_b       15.95336183934007
_cell_length_c       17.112849597368083
_cell_angle_alpha    117.67166194171864
_cell_angle_beta     117.57179624454997
_cell_angle_gamma    90.00299244793638

_space_group_name_H-M_alt    "P 1"
_space_group_IT_number       1

loop_
  _space_group_symop_operation_xyz
  'x, y, z'

loop_
  _atom_site_type_symbol
  _atom_site_label
  _atom_site_symmetry_multiplicity
  _atom_site_fract_x
  _atom_site_fract_y
  _atom_site_fract_z
  _atom_site_occupancy
  Zn  Zn1       1.0  0.2916728725811666  0.692692206471591  0.5874033770678223  1.0000
  Zn  Zn2       1.0  0.6931897434763244  0.294281991756975  0.5874202171574794  1.0000
  Zn  Zn3       1.0  0.29584386539036706  0.8944125220044797  0.5926484421557986  1.0000
  Zn  Zn4       1.0  0.7041525753275409  0.10558537351525393  0.4073519943479554  1.0000
  Zn  Zn5       1.0  0.3068089033241748  0.7057186354677539  0.41258002014808426  1.0000
  Zn  Zn6       1.0  0.7083243018869964  0.3073080146226914  0.41259780029299253  1.0000
  Zn  Zn7       1.0  0.1052633642783292  0.7045447760131297  0.4073646071068354  1.0000
  Zn  Zn8       1.0  0.8947345486654187  0.2954556496242376  0.5926346409741117  1.0000
  H   H1        1.0  0.41456830250786686  0.9713694796943173  0.07723682776645549  1.0000
  H   H2        1.0  0.5741251278095804  0.8161842080984487  0.07409203582037818  1.0000
  H   H3        1.0  0.4767810774283491  0.7034005504083042  0.9798497689461174  1.0000
  H   H4        1.0  0.4258528936431246  0.18383054969265797  0.9259264377062238  1.0000
  H   H5        1.0  0.5449939665598366  0.18741861256162912  0.9416001272002036  1.0000
  H   H6        1.0  0.5232197676262444  0.2965992634195374  0.02015574184832761  1.0000
  H   H7        1.0  0.9225979447748357  0.2564208717345835  0.9621835786477392  1.0000
  H   H8        1.0  0.8255961011164531  0.3134809352185427  0.9615874643696357  1.0000
  H   H9        1.0  0.8908006024286763  0.2811291067773567  0.057110461403887154  1.0000
  H   H10       1.0  0.17440254448785447  0.686518983222271  0.0384136339929809  1.0000
  H   H11       1.0  0.0774007036007802  0.7435790484796527  0.03781576861218382  1.0000
  H   H12       1.0  0.5854229939885941  0.028629832164682446  0.9227608280484175  1.0000
  H   H13       1.0  0.10920025001606598  0.71887071177963  0.9428903797833643  1.0000
  H   H14       1.0  0.45497014902613847  0.8125647262907164  0.05838001550170433  1.0000
  H   H15       1.0  0.029388574238005602  0.3378242820451193  0.924211983666261  1.0000
  H   H16       1.0  0.7045711263311532  0.9213656344023065  0.959816977902726  1.0000
  H   H17       1.0  0.647338497407624  0.8244506874222282  0.9597069072430956  1.0000
  H   H18       1.0  0.7747669113519109  0.889657914306916  0.05453662669155071  1.0000
  H   H19       1.0  0.3526513315412529  0.17555105344199975  0.040288244398816245  1.0000
  H   H20       1.0  0.29542311021113926  0.07863448676186376  0.04018171630614376  1.0000
  H   H21       1.0  0.22522291737162453  0.11033603821021389  0.9454598247653366  1.0000
  H   H22       1.0  0.8125025598652017  0.6030790862602374  0.05799670113452059  1.0000
  H   H23       1.0  0.9706115434262159  0.6621753343333623  0.07578845199726186  1.0000
  H   H24       1.0  0.8162521422186303  0.5000177576669955  0.07460801954301398  1.0000
  H   H25       1.0  0.7036028231106284  0.5031352118327205  0.9799565638539675  1.0000
  H   H26       1.0  0.1837457720278053  0.4999812527670997  0.9253906158484356  1.0000
  H   H27       1.0  0.1874960916606412  0.3969194199330203  0.9420008660341069  1.0000
  H   H28       1.0  0.2963958286876364  0.49686400255331625  0.02004072595850916  1.0000
  C   C1        1.0  0.11485108345665648  0.6081948207104519  0.21994103054488795  1.0000
  C   C2        1.0  0.9722752133349318  0.026020836880341826  0.49834953552948497  1.0000
  C   C3        1.0  0.47564340705417146  0.529232682088626  0.5033814944951658  1.0000
  C   C4        1.0  0.524353769912871  0.47076683258630686  0.4966182091191058  1.0000
  C   C5        1.0  0.027722695262397696  0.9739802939940817  0.5016523536998037  1.0000
  C   C6        1.0  0.47198758578869626  0.9737308114267406  0.4994602474278836  1.0000
  C   C7        1.0  0.5280154553529428  0.026274559783480804  0.500550959154566  1.0000
  C   C8        1.0  0.8851497695329228  0.3918064142320857  0.7800592559300554  1.0000
  C   C9        1.0  0.4157309678342004  0.5973324330010215  0.5078680776986318  1.0000
  C   C10       1.0  0.5842676820100294  0.4026689041899091  0.49213013114808757  1.0000
  C   C11       1.0  0.0919547534982357  0.9098331347887552  0.5029546158872336  1.0000
  C   C12       1.0  0.9080416852656441  0.09016688353587904  0.49704673965075596  1.0000
  C   C13       1.0  0.4060239219257014  0.9101844203877006  0.49827965642909794  1.0000
  C   C14       1.0  0.38732202511729247  0.8851732032295773  0.7800896304217915  1.0000
  C   C15       1.0  0.5939761942699064  0.08981377901407937  0.5017219176476287  1.0000
  C   C16       1.0  0.08709850862810241  0.584833559723016  0.4903445413461469  1.0000
  C   C17       1.0  0.9128972065469796  0.4151641395296365  0.509649652624887  1.0000
  C   C18       1.0  0.024239063129073198  0.5245840415830685  0.4953056611651406  1.0000
  C   C19       1.0  0.9757588551913655  0.4754135554211913  0.5046906104341174  1.0000
  C   C20       1.0  0.6126714713742841  0.11482742040200823  0.21991188311259433  1.0000
  C   C21       1.0  0.48342567413333637  0.9025198548382037  0.9709391970944383  1.0000
  C   C22       1.0  0.516567091485804  0.09747632100507525  0.029060072847741453  1.0000
  C   C23       1.0  0.9806267537702525  0.4487551838014099  0.037608200493871  1.0000
  C   C24       1.0  0.019372629113455293  0.5512442303985522  0.962391829645931  1.0000
  C   C25       1.0  0.4510265697018668  0.9826626776906903  0.04099363572500881  1.0000
  C   C26       1.0  0.5489654603789093  0.017336127562899227  0.9590052866706389  1.0000
  C   C27       1.0  0.0177359438463824  0.41031692546025766  0.9598054362425402  1.0000
  C   C28       1.0  0.982262705180574  0.5896822871523497  0.04019360467263051  1.0000
  C   C29       1.0  0.5537101549119542  0.059021271809932295  0.10517466369667254  1.0000
  C   C30       1.0  0.4462796733261598  0.9409762204887857  0.8948215683812607  1.0000
  C   C31       1.0  0.9410028303375952  0.4482571889401824  0.8948015229998347  1.0000
  C   C32       1.0  0.058998022379562094  0.5517433378095761  0.10519904083125907  1.0000
  C   C33       1.0  0.5884227517081583  0.9801534850163877  0.03665827335247953  1.0000
  C   C34       1.0  0.41156854701475964  0.019844412230490577  0.9633381860720008  1.0000
  C   C35       1.0  0.9026490497329434  0.4874702867769543  0.9710642085886435  1.0000
  C   C36       1.0  0.0973510697788171  0.5125293307838062  0.028935059673074224  1.0000
  C   C37       1.0  0.4946738923120577  0.7836909579150417  0.017515733236543093  1.0000
  C   C38       1.0  0.5053137165912105  0.21631016636423786  0.9824881247494943  1.0000
  C   C39       1.0  0.8974506812439813  0.30806684393038347  0.011314180572895842  1.0000
  C   C40       1.0  0.102548700988379  0.6919332778712218  0.9886861559116511  1.0000
  C   C41       1.0  0.7022102603145369  0.8963434966754849  0.009147281390106244  1.0000
  C   C42       1.0  0.297782507045639  0.10365480433726758  0.9908505727827192  1.0000
  C   C43       1.0  0.7837814197721471  0.5227465661025406  0.017620940633094103  1.0000
  C   C44       1.0  0.2162179649590925  0.477252849279715  0.9823779221049093  1.0000
  O   O1        1.0  0.24928011812718856  0.7503084693290205  0.5000183843229067  1.0000
  O   O2        1.0  0.9358808759601871  0.3569330592858221  0.7384006951798554  1.0000
  O   O3        1.0  0.3488845815384423  0.7932278354533865  0.7330822300090888  1.0000
  O   O4        1.0  0.651108185821741  0.2067704655593658  0.2669156241637439  1.0000
  O   O5        1.0  0.40127176861097524  0.6321416321906883  0.45056556146465004  1.0000
  O   O6        1.0  0.5987276100328174  0.36785636325915755  0.5494373581910494  1.0000
  O   O7        1.0  0.1833844231230159  0.9518295035359543  0.5689098697705148  1.0000
  O   O8        1.0  0.8166171550304712  0.04817334346807205  0.4310966882257434  1.0000
  O   O9        1.0  0.7507185290522286  0.24969074210129344  0.49998182399406227  1.0000
  O   O10       1.0  0.381321243159249  0.8188384178955701  0.4312894965499082  1.0000
  O   O11       1.0  0.6186832734649599  0.1811659454241124  0.5687189898859941  1.0000
  O   O12       1.0  0.3801124790485347  0.9523517868655061  0.56409766423441  1.0000
  O   O13       1.0  0.6198839530359593  0.047652475295500145  0.4359072804747658  1.0000
  O   O14       1.0  0.04470518774103739  0.617054305545082  0.43032405669566737  1.0000
  O   O15       1.0  0.9552941932951313  0.382945107472608  0.5696771408459327  1.0000
  O   O16       1.0  0.17878082460190106  0.5991837367443085  0.5476226312076592  1.0000
  O   O17       1.0  0.8212222388637684  0.4008124445118284  0.45237583737957715  1.0000
  O   O18       1.0  0.3838487155133307  0.614822619954552  0.5682274223749886  1.0000
  O   O19       1.0  0.6161506576472675  0.3851803281155881  0.43177822539484373  1.0000
  O   O20       1.0  0.04964594943958639  0.818448842216256  0.4376455533001434  1.0000
  O   O21       1.0  0.9503549018683798  0.18155522372395438  0.562355374852892  1.0000
  O   O22       1.0  0.2067795893466808  0.6170194668720795  0.2670102919835884  1.0000
  O   O23       1.0  0.7932190579986625  0.3829825767382006  0.7329893906096816  1.0000
  O   O24       1.0  0.38011180811943746  0.9359892722033081  0.7384094175728678  1.0000
  O   O25       1.0  0.6198846385200056  0.06400721106887626  0.2615874877368895  1.0000
  O   O26       1.0  0.0641192419764565  0.6430672652854311  0.2615994631275099  1.0000
  O   O27       1.0  0.4636133646603185  0.8037401155647856  0.9360403700074188  1.0000
  O   O28       1.0  0.5363823406257282  0.1962582853780717  0.06395996731735201  1.0000
  O   O29       1.0  0.9682510427625531  0.40300300021811347  0.08434105707306837  1.0000
  O   O30       1.0  0.0317490751740905  0.5969973243531402  0.9156591012343045  1.0000
  O   O31       1.0  0.6805557994893476  0.9674657256958314  0.08269137146817238  1.0000
  O   O32       1.0  0.3194369647206016  0.03253398933789945  0.9173082627959417  1.0000
  O   O33       1.0  0.8039768070707822  0.4722570139746765  0.9362304126416487  1.0000
  O   O34       1.0  0.1960225783118048  0.5277416938059433  0.06376814375160221  1.0000
