data_image0
_chemical_formula_structural       La4B10H14C8O28
_chemical_formula_sum              "La4 B10 H14 C8 O28"
_cell_length_a       6.490875988784053
_cell_length_b       10.899083026536335
_cell_length_c       11.423123655760634
_cell_angle_alpha    61.51306285705656
_cell_angle_beta     89.87780309830246
_cell_angle_gamma    89.74446225974573

_space_group_name_H-M_alt    "P 1"
_space_group_IT_number       1

loop_
  _space_group_symop_operation_xyz
  'x, y, z'

loop_
  _atom_site_type_symbol
  _atom_site_label
  _atom_site_symmetry_multiplicity
  _atom_site_fract_x
  _atom_site_fract_y
  _atom_site_fract_z
  _atom_site_occupancy
  La  La1       1.0  0.835734209457165  0.3847008174690955  0.47904235156564573  1.0000
  La  La2       1.0  0.3358666833865058  0.8638271265763606  0.520872941993474  1.0000
  La  La3       1.0  0.6648065605309198  0.8129906931358875  0.13565095214054437  1.0000
  La  La4       1.0  0.1647719248345751  0.9484590452271247  0.8644922320797332  1.0000
  B   B1        1.0  0.3209646974352011  0.5885606639631648  0.40987264725772826  1.0000
  B   B2        1.0  0.8209465166732244  0.9984662597330923  0.5900877738579381  1.0000
  B   B3        1.0  0.21103934740612826  0.7970729456972664  0.1946876021272104  1.0000
  B   B4        1.0  0.7110780700513504  0.9916622533344894  0.8053479832278683  1.0000
  B   B5        1.0  0.9737542248984139  0.6899717867853498  0.39023531795771044  1.0000
  B   B6        1.0  0.4736985834005481  0.08020932639991682  0.6098408843506106  1.0000
  B   B7        1.0  0.3686837994078331  0.3308534173602525  0.4658309709077527  1.0000
  B   B8        1.0  0.8687221173815374  0.7966641567240772  0.53420578498406  1.0000
  B   B9        1.0  0.6299993862317379  0.6284728340940691  0.5185390009859956  1.0000
  B   B10       1.0  0.13000729557770543  0.1470025001934729  0.4814966842307342  1.0000
  H   H1        1.0  0.0778798658501287  0.3727229492247801  0.17968250680673487  1.0000
  H   H2        1.0  0.5777101336143674  0.5531278714878738  0.8201328890981897  1.0000
  H   H3        1.0  0.2613893058567172  0.5107680061013014  0.12158777547977452  1.0000
  H   H4        1.0  0.7610257831483053  0.6331662374013616  0.8782646011227583  1.0000
  H   H5        1.0  0.09439348309329182  0.49780713815613353  0.005555885652128693  1.0000
  H   H6        1.0  0.5943980547746434  0.5038648847030485  0.9942983317304692  1.0000
  H   H7        1.0  0.7159167901939015  0.267030303692259  0.14053696079636777  1.0000
  H   H8        1.0  0.21596554881097768  0.4073473821807028  0.8593973350100299  1.0000
  H   H9        1.0  0.676125808734028  0.17659981620547438  0.31826424152901467  1.0000
  H   H10       1.0  0.17613980149774727  0.494809176091742  0.6816729345370475  1.0000
  H   H11       1.0  0.46113694702399494  0.23312413554749162  0.212242119233693  1.0000
  H   H12       1.0  0.9611433078112483  0.445377838385717  0.7877057512269233  1.0000
  H   H13       1.0  0.5788559231257295  0.43780707854681117  0.6846076081236917  1.0000
  H   H14       1.0  0.0790711759966953  0.12244654906349685  0.3153712204691104  1.0000
  C   C1        1.0  0.9550699501269619  0.5781115367924912  0.12499491877311192  1.0000
  C   C2        1.0  0.4545794608134485  0.7034248283384699  0.875249366168326  1.0000
  C   C3        1.0  0.1047230346622641  0.4820582021478685  0.10775633544493961  1.0000
  C   C4        1.0  0.6044676247790121  0.5904408087427272  0.8921602407125775  1.0000
  C   C5        1.0  0.6137635595220061  0.054558781460556816  0.22079736481066445  1.0000
  C   C6        1.0  0.11339332803026278  0.27532397199887987  0.7790072727710962  1.0000
  C   C7        1.0  0.6186710811704329  0.19255705637017684  0.22149940332385398  1.0000
  C   C8        1.0  0.118612825022602  0.4139870645416294  0.778400411318671  1.0000
  O   O1        1.0  0.4335208706817539  0.461985175293222  0.43178854891661433  1.0000
  O   O2        1.0  0.9335012173997652  0.8938134223624203  0.5681600413204606  1.0000
  O   O3        1.0  0.3535015175596853  0.6921215792595987  0.2681883592939586  1.0000
  O   O4        1.0  0.8535290948284526  0.9602825835755341  0.7317958154652328  1.0000
  O   O5        1.0  0.1001480845668326  0.5638287539894193  0.43615088955230163  1.0000
  O   O6        1.0  0.6000929925995422  4.128859480130312e-06  0.5638522387777839  1.0000
  O   O7        1.0  0.27786816697991407  0.8978208780395532  0.07607753081386191  1.0000
  O   O8        1.0  0.7780395242113584  0.973530196485754  0.9240658908198397  1.0000
  O   O9        1.0  0.015652737913811204  0.79017443817677  0.24792088822809424  1.0000
  O   O10       1.0  0.515710303884056  0.03808865291259897  0.7521614231465673  1.0000
  O   O11       1.0  0.5189534264835487  0.23131650060610554  0.5304041846973958  1.0000
  O   O12       1.0  0.019045121570187  0.7616302846873282  0.4697012626524569  1.0000
  O   O13       1.0  0.7547060721091796  0.6535742240529743  0.3998997684177894  1.0000
  O   O14       1.0  0.25465377059774136  0.05347515172899618  0.6001562873023827  1.0000
  O   O15       1.0  0.6796758520840597  0.7343368293132854  0.5633961246101433  1.0000
  O   O16       1.0  0.1796446687134862  0.2977134309605276  0.4366580566964798  1.0000
  O   O17       1.0  0.6905097784062733  0.4854467201822173  0.6229650789425845  1.0000
  O   O18       1.0  0.1906800737217438  0.10840374922594985  0.37704873797088817  1.0000
  O   O19       1.0  0.41094380979392053  0.6424640262805283  0.4950987119492467  1.0000
  O   O20       1.0  0.9109072694087104  0.13755703268986963  0.5048198360188393  1.0000
  O   O21       1.0  0.9567266571174643  0.7079352079014002  0.04030256430063878  1.0000
  O   O22       1.0  0.45624538316633334  0.748333920131863  0.960150543257832  1.0000
  O   O23       1.0  0.8275906240407308  0.5303741479830393  0.22266917141115533  1.0000
  O   O24       1.0  0.3270199283391052  0.7535098190266395  0.7776042210721881  1.0000
  O   O25       1.0  0.7197332790444618  0.03905612009024398  0.1358439828131566  1.0000
  O   O26       1.0  0.21965169952228797  0.17491312790201627  0.8637316120525752  1.0000
  O   O27       1.0  0.503183575564158  0.9539981373372585  0.30772172395523983  1.0000
  O   O28       1.0  0.0022869979325435  0.261731552357297  0.6922825546770496  1.0000
