data_image0
_chemical_formula_structural       In4H36C68O20F24
_chemical_formula_sum              "In4 H36 C68 O20 F24"
_cell_length_a       7.18724893004812
_cell_length_b       13.503048976426577
_cell_length_c       22.0791811619696
_cell_angle_alpha    87.52550310216874
_cell_angle_beta     80.63737998833479
_cell_angle_gamma    74.56311987153728

_space_group_name_H-M_alt    "P 1"
_space_group_IT_number       1

loop_
  _space_group_symop_operation_xyz
  'x, y, z'

loop_
  _atom_site_type_symbol
  _atom_site_label
  _atom_site_symmetry_multiplicity
  _atom_site_fract_x
  _atom_site_fract_y
  _atom_site_fract_z
  _atom_site_occupancy
  In  In1       1.0  0.6348613537531521  0.22942306650008953  0.25000467781721625  1.0000
  In  In2       1.0  0.11425659639611034  0.27066012461363437  0.2500111471595261  1.0000
  In  In3       1.0  0.36513651935695174  0.7705764276334717  0.7499962637508021  1.0000
  In  In4       1.0  0.8857431302793229  0.7293401376940521  0.7499889624188966  1.0000
  H   H1        1.0  0.45344918878532786  0.5153289955975139  0.17952666629059172  1.0000
  H   H2        1.0  0.14825918443684577  0.9848308960753156  0.3205168886360781  1.0000
  H   H3        1.0  0.5312493471098629  0.5152578856853581  0.3205145139966703  1.0000
  H   H4        1.0  0.3670221892084341  0.9849276369327457  0.1794842106171046  1.0000
  H   H5        1.0  0.5465563999111183  0.48467203485998317  0.8204728333717171  1.0000
  H   H6        1.0  0.8517356321782967  0.015169366364574399  0.6794839049134823  1.0000
  H   H7        1.0  0.468750262598341  0.4847408399962702  0.679485068473909  1.0000
  H   H8        1.0  0.6329727102728668  0.015073393589595698  0.8205146968492728  1.0000
  H   H9        1.0  0.31555445503587964  0.6655959987636493  0.1171187025539098  1.0000
  H   H10       1.0  0.09810501807764635  0.8345661469277557  0.3828988470947793  1.0000
  H   H11       1.0  0.519031173134124  0.6654775983607732  0.3829665427358151  1.0000
  H   H12       1.0  0.5675090692586335  0.8346495857919008  0.1170864945735275  1.0000
  H   H13       1.0  0.684446223600275  0.33440503182604425  0.8828814810795366  1.0000
  H   H14       1.0  0.9018923538740461  0.16543257886985432  0.6171015673959205  1.0000
  H   H15       1.0  0.4809676015805949  0.33452189566490625  0.6170334927875984  1.0000
  H   H16       1.0  0.4324900222567077  0.16535374956835366  0.8829127090823903  1.0000
  H   H17       1.0  0.891708544886022  0.6405557695920692  0.014209495662477416  1.0000
  H   H18       1.0  0.5466211627469871  0.8593297832245809  0.4857573227367667  1.0000
  H   H19       1.0  0.9677796886067327  0.6405923213383035  0.48585523612355536  1.0000
  H   H20       1.0  0.09424264114217357  0.8593861122135209  0.014221535141977906  1.0000
  H   H21       1.0  0.10829430489550823  0.35944449264546546  0.985790308942626  1.0000
  H   H22       1.0  0.4533824716719221  0.14066894227901366  0.5142410487158813  1.0000
  H   H23       1.0  0.03222130760946808  0.35940717272511336  0.5141454004711365  1.0000
  H   H24       1.0  0.9057530104664475  0.14061338188231787  0.9857788053547553  1.0000
  H   H25       1.0  0.029653660866230856  0.500638669487678  0.08241555640697842  1.0000
  H   H26       1.0  0.612920778465465  0.999274879526524  0.41761997969411624  1.0000
  H   H27       1.0  0.969622058673174  0.5007378211823977  0.4176161223375914  1.0000
  H   H28       1.0  0.8878643602549158  0.9992341368065139  0.0824399700063694  1.0000
  H   H29       1.0  0.9703496900737036  0.49936236108580073  0.9175847752754437  1.0000
  H   H30       1.0  0.38707794589314637  0.0007238461092668999  0.5823790757296693  1.0000
  H   H31       1.0  0.030379321734201856  0.4992609045909048  0.5823845142265824  1.0000
  H   H32       1.0  0.11213033939299065  0.0007645890073107  0.9175602964353473  1.0000
  H   H33       1.0  0.4212343373598343  0.2500556331822422  0.15677799366871883  1.0000
  H   H34       1.0  0.8280936483703982  0.24995163796963027  0.34321092672797704  1.0000
  H   H35       1.0  0.5787657231506741  0.7499430924454487  0.8432211357795509  1.0000
  H   H36       1.0  0.17190607830503501  0.7500486243380563  0.656789182850453  1.0000
  C   C1        1.0  0.8250379572154074  0.40723761891096183  0.1732551853941686  1.0000
  C   C2        1.0  0.40559177021376774  0.09282212573176449  0.3267867213681797  1.0000
  C   C3        1.0  0.2674270756013327  0.4073237508912797  0.3267248107041709  1.0000
  C   C4        1.0  0.0014661704047113579  0.09281590727224649  0.17326258692525442  1.0000
  C   C5        1.0  0.17496489256612321  0.5927626433265729  0.8267446192109349  1.0000
  C   C6        1.0  0.5944020944406604  0.9071773684261116  0.6732139981263714  1.0000
  C   C7        1.0  0.7325730352652752  0.5926757431262927  0.673275298843727  1.0000
  C   C8        1.0  0.9985313347692389  0.9071843549977102  0.8267369215818832  1.0000
  C   C9        1.0  0.750080323573684  0.49874567236874146  0.1349813086827751  1.0000
  C   C10       1.0  0.383876890917996  0.0013029390516478996  0.36505279053754697  1.0000
  C   C11       1.0  0.2510422073358073  0.49880165941066656  0.36503354485234507  1.0000
  C   C12       1.0  0.11485545088132906  0.0013268488480519998  0.1349722598547203  1.0000
  C   C13       1.0  0.24992205915051338  0.5012545900764491  0.8650203820360433  1.0000
  C   C14       1.0  0.6161179256971391  0.9986973233882352  0.6349480030120205  1.0000
  C   C15       1.0  0.7489587222692576  0.501197066416573  0.6349675447341312  1.0000
  C   C16       1.0  0.8851424384838038  0.9986726451317978  0.8650272486218926  1.0000
  C   C17       1.0  0.5486583303399399  0.5453617290110557  0.1442215227896213  1.0000
  C   C18       1.0  0.23821106272625792  0.954742160354698  0.3558203924107133  1.0000
  C   C19       1.0  0.40599523721586883  0.5453131224137876  0.35582649219890783  1.0000
  C   C20       1.0  0.30713240833216543  0.9548377458317816  0.14418521184758504  1.0000
  C   C21       1.0  0.45134846128613737  0.45463776496599434  0.8557789568807409  1.0000
  C   C22       1.0  0.76178280192817  0.045257333803178305  0.6441803270838307  1.0000
  C   C23       1.0  0.5940048070396174  0.454685603367615  0.6441740703407746  1.0000
  C   C24       1.0  0.6928651634529216  0.04516328467434508  0.8558138436677752  1.0000
  C   C25       1.0  0.47163226971403566  0.6283920424314073  0.10842710554400271  1.0000
  C   C26       1.0  0.20832834284581042  0.8717315684076609  0.3916110034581592  1.0000
  C   C27       1.0  0.4001165279548077  0.6282918653858898  0.39165891784491447  1.0000
  C   C28       1.0  0.4200855579060274  0.8718208446494413  0.1083948944298498  1.0000
  C   C29       1.0  0.5283724839889316  0.3716097563701409  0.8915728471711333  1.0000
  C   C30       1.0  0.791668711525837  0.12826869391624027  0.6083889580712807  1.0000
  C   C31       1.0  0.5998839671029755  0.3717068603415681  0.6083411916724586  1.0000
  C   C32       1.0  0.579913466998192  0.1281817224746433  0.8916047622178455  1.0000
  C   C33       1.0  0.592264640625295  0.6634269614833742  0.06049473424103981  1.0000
  C   C34       1.0  0.3161389792834152  0.8366393586871228  0.4395357416112802  1.0000
  C   C35       1.0  0.24444611700995725  0.6633826256112554  0.4395904245335204  1.0000
  C   C36       1.0  0.3473779743644911  0.8366936447153962  0.06048253817205311  1.0000
  C   C37       1.0  0.40773558720855596  0.3365740691602567  0.9395059024147089  1.0000
  C   C38       1.0  0.6838628519262642  0.16335936703222842  0.5604644419305914  1.0000
  C   C39       1.0  0.7555557141997226  0.3366161001081024  0.5604097590083512  1.0000
  C   C40       1.0  0.6526191466182919  0.16330738584467497  0.9395169703656095  1.0000
  C   C41       1.0  0.7934876302588662  0.616170902816485  0.051043622546394794  1.0000
  C   C42       1.0  0.46076964156686984  0.883805983459581  0.4489536211819641  1.0000
  C   C43       1.0  0.09041792730462822  0.6161758782665456  0.4490320951015293  1.0000
  C   C44       1.0  0.15558123940591168  0.883843079690365  0.05104246221452511  1.0000
  C   C45       1.0  0.20651667264178994  0.38383089603900084  0.9489567831910436  1.0000
  C   C46       1.0  0.5392299015301982  0.11619197398587028  0.5510464142803998  1.0000
  C   C47       1.0  0.9095838372939224  0.38382207921663525  0.5509685414321126  1.0000
  C   C48       1.0  0.8444175353088068  0.11615641433531472  0.9489575733088814  1.0000
  C   C49       1.0  0.872574981381241  0.5360318748563769  0.0891891708652253  1.0000
  C   C50       1.0  0.497899516032916  0.9639536065144086  0.4108279040664726  1.0000
  C   C51       1.0  0.09136889583351868  0.5360841606544468  0.410859604996439  1.0000
  C   C52       1.0  0.03823847888273965  0.9639446431975995  0.0891955214295308  1.0000
  C   C53       1.0  0.12742963909946042  0.46396838747283176  0.9108116878334658  1.0000
  C   C54       1.0  0.5020966529891523  0.036046655763655594  0.5891715304161806  1.0000
  C   C55       1.0  0.9086315326131355  0.46391379683684153  0.5891409575127184  1.0000
  C   C56       1.0  0.9617553857716811  0.03605485096027649  0.9108051980650131  1.0000
  C   C57       1.0  0.49009634943004693  0.7500234550780429  0.020006356101937683  1.0000
  C   C58       1.0  0.2600609904432785  0.7500547549320372  0.4800520270719987  1.0000
  C   C59       1.0  0.5099056653580049  0.24997757550355001  0.979993901556  1.0000
  C   C60       1.0  0.7399391204233292  0.24994473908553516  0.5199480824759064  1.0000
  C   C61       1.0  0.6352915602361618  0.8009202833874622  0.9778201709249574  1.0000
  C   C62       1.0  0.41407697226738077  0.6991838642311093  0.5222315125438399  1.0000
  C   C63       1.0  0.06394942088870424  0.8010004947297418  0.5222556986155809  1.0000
  C   C64       1.0  0.38697921100901284  0.699128508659399  0.9778261616891514  1.0000
  C   C65       1.0  0.3647100037495789  0.19908074724806812  0.022180539755282797  1.0000
  C   C66       1.0  0.5859249255534276  0.30081562972441833  0.47776821800624697  1.0000
  C   C67       1.0  0.9360511407802149  0.19899899923389336  0.4777439579100148  1.0000
  C   C68       1.0  0.6130246573443613  0.30087329009631963  0.022173263979190894  1.0000
  O   O1        1.0  0.39888945265460046  0.2501797536971181  0.20128722828629722  1.0000
  O   O2        1.0  0.8502871089131997  0.249940457445355  0.2987036063157689  1.0000
  O   O3        1.0  0.6011122615878429  0.7498174353961744  0.7987124281477238  1.0000
  O   O4        1.0  0.14971089741916913  0.7500605731605529  0.7012964292686945  1.0000
  O   O5        1.0  0.7075240209147182  0.3521608183971877  0.18924699589867802  1.0000
  O   O6        1.0  0.2489496694579287  0.14796906272254517  0.3108457754145064  1.0000
  O   O7        1.0  0.44002968181381147  0.3521862715931546  0.3108190066428805  1.0000
  O   O8        1.0  0.10305363034063218  0.14787020271784  0.1892471526131487  1.0000
  O   O9        1.0  0.29247799387332646  0.6478402121843982  0.8107532617592526  1.0000
  O   O10       1.0  0.7510441285853632  0.8520296631991611  0.6891553970718222  1.0000
  O   O11       1.0  0.5599708798551075  0.6478132223704802  0.6891806498827151  1.0000
  O   O12       1.0  0.8969451443740859  0.8521292913078397  0.8107528829102648  1.0000
  O   O13       1.0  0.9972071888317728  0.3917875155491826  0.18647285845602823  1.0000
  O   O14       1.0  0.5755313178588536  0.1082504494645988  0.3135376721128651  1.0000
  O   O15       1.0  0.1107462073744402  0.39189626952965984  0.313463622834675  1.0000
  O   O16       1.0  0.8160538235612407  0.10831538776564999  0.1864592036737278  1.0000
  O   O17       1.0  0.002794258186732136  0.6082119784602821  0.8135273251163682  1.0000
  O   O18       1.0  0.42446204563716344  0.8917482763573329  0.6864625203043602  1.0000
  O   O19       1.0  0.8892539034921755  0.6081032244879124  0.6865364867132231  1.0000
  O   O20       1.0  0.18394379857995347  0.8916864111303652  0.8135408319412606  1.0000
  F   F1        1.0  0.7515140910678818  0.7368835684764576  0.9323588388393986  1.0000
  F   F2        1.0  0.4209183855584296  0.7632813288042329  0.5676503385481766  1.0000
  F   F3        1.0  0.011778414522247375  0.7370323978456523  0.5677524800978802  1.0000
  F   F4        1.0  0.316138612756326  0.7631864417101114  0.9323952156499614  1.0000
  F   F5        1.0  0.24848785710903332  0.26311669386895886  0.0676418718103164  1.0000
  F   F6        1.0  0.5790863177884304  0.23671970160742714  0.43234863406733137  1.0000
  F   F7        1.0  0.9882221471466721  0.2629670961179825  0.4322471764277154  1.0000
  F   F8        1.0  0.6838651223747902  0.23681382057326056  0.06760511600194262  1.0000
  F   F9        1.0  0.7570933807739452  0.8303327194134338  0.010445101283778513  1.0000
  F   F10       1.0  0.5979085481644969  0.6697121083494577  0.48959736427180905  1.0000
  F   F11       1.0  0.9126800728777769  0.8303622117077009  0.4896463913736043  1.0000
  F   F12       1.0  0.232598119219979  0.6697104941307329  0.01046819987590199  1.0000
  F   F13       1.0  0.24290729786220322  0.16966831117625958  0.9895550823496677  1.0000
  F   F14       1.0  0.40209284849790083  0.3302866172701186  0.5104018392009593  1.0000
  F   F15       1.0  0.08732087298231747  0.1696365139658198  0.5103532651214664  1.0000
  F   F16       1.0  0.7674064005485163  0.33028823141869873  0.9895306986235399  1.0000
  F   F17       1.0  0.5394000065985906  0.8864770178370448  0.9498687392920075  1.0000
  F   F18       1.0  0.3758283863817624  0.6136779155039845  0.5502353463605587  1.0000
  F   F19       1.0  0.0742922520921424  0.8866011207912975  0.5501635799421436  1.0000
  F   F20       1.0  0.5107402967874675  0.6135785088292706  0.9498456531287404  1.0000
  F   F21       1.0  0.4605997200768498  0.11352324447064889  0.050131370286415206  1.0000
  F   F22       1.0  0.624171390649778  0.3863231151935905  0.4497657433174922  1.0000
  F   F23       1.0  0.9257052530818155  0.11339914147865929  0.44983592856499405  1.0000
  F   F24       1.0  0.48926657770476817  0.3864217532302376  0.050152940458424694  1.0000
