data_image0
_chemical_formula_structural       Li4H52C44N8O4
_chemical_formula_sum              "Li4 H52 C44 N8 O4"
_cell_length_a       8.246616018
_cell_length_b       10.661353791237937
_cell_length_c       12.667
_cell_angle_alpha    99.36042833893437
_cell_angle_beta     90.0
_cell_angle_gamma    90.0

_space_group_name_H-M_alt    "P 1"
_space_group_IT_number       1

loop_
  _space_group_symop_operation_xyz
  'x, y, z'

loop_
  _atom_site_type_symbol
  _atom_site_label
  _atom_site_symmetry_multiplicity
  _atom_site_fract_x
  _atom_site_fract_y
  _atom_site_fract_z
  _atom_site_occupancy
  Li  Li1       1.0  0.8645509848449464  0.5112679974322987  0.046889897489187086  1.0000
  Li  Li2       1.0  0.3645543812683911  0.4887305795771154  0.45311314447170753  1.0000
  Li  Li3       1.0  0.1354507106383878  0.4887353327021913  0.9531114267777879  1.0000
  Li  Li4       1.0  0.6354509520707481  0.5112660961822684  0.5468896372232662  1.0000
  H   H1        1.0  0.8821509312572926  0.4620788566571008  0.8429612236765464  1.0000
  H   H2        1.0  0.3821506898249254  0.5379263747274194  0.6570403608563565  1.0000
  H   H3        1.0  0.1178544020818535  0.5379149672272376  0.15704432543117255  1.0000
  H   H4        1.0  0.6178546435142138  0.46207505415704014  0.3429607031446976  1.0000
  H   H5        1.0  0.6487145743566956  0.0856798326002632  0.6810025872114167  1.0000
  H   H6        1.0  0.1487288843475767  0.9143301519093254  0.8189988585333905  1.0000
  H   H7        1.0  0.3512883337452379  0.9143282506593025  0.31899938772037467  1.0000
  H   H8        1.0  0.8512764489915625  0.0856674744750734  0.18099852712418138  1.0000
  H   H9        1.0  0.7285000279977893  0.9281493877521142  0.7970388606619918  1.0000
  H   H10       1.0  0.22851070013285824  0.0718529917573605  0.7029615440191177  1.0000
  H   H11       1.0  0.2714907539181155  0.0718520411323453  0.20296062443324564  1.0000
  H   H12       1.0  0.7714897827318694  0.9281455852520537  0.2970383401301433  1.0000
  H   H13       1.0  0.8978143257597253  5.8938750932199985e-05  0.9585870530072211  1.0000
  H   H14       1.0  0.3978213600389821  0.9999500951336485  0.5414103153400802  1.0000
  H   H15       1.0  0.1021764561561795  0.9999339345083982  0.0414144187029919  1.0000
  H   H16       1.0  0.6021742723513339  5.03831257959e-05  0.4585850923576515  1.0000
  H   H17       1.0  0.9881216710240678  0.2230204310146746  0.0050390684932679975  1.0000
  H   H18       1.0  0.4881250674475126  0.7769809978697849  0.49496041660196965  1.0000
  H   H19       1.0  0.0118788118406599  0.7769676891195728  0.9949680681754103  1.0000
  H   H20       1.0  0.5118778406544209  0.2230204310146746  0.5050367001345393  1.0000
  H   H21       1.0  0.7779918436842621  0.7463594648872061  0.1627114172312716  1.0000
  H   H22       1.0  0.2779903896332954  0.253638161497193  0.3372883367850221  1.0000
  H   H23       1.0  0.2220086391804657  0.2536410133722384  0.8372879377310055  1.0000
  H   H24       1.0  0.7220125184686379  0.7463632673872667  0.6627119377631202  1.0000
  H   H25       1.0  0.5659788196531039  0.7087346774192581  0.16751430699664377  1.0000
  H   H26       1.0  0.0659773656021372  0.2912667514652014  0.3324851780985938  1.0000
  H   H27       1.0  0.4340216632116238  0.2912658008401863  0.8324858374185451  1.0000
  H   H28       1.0  0.9340267551184026  0.7087365786692884  0.6675121989038357  1.0000
  H   H29       1.0  0.5493477555050177  0.9173673988321909  0.11385135869711858  1.0000
  H   H30       1.0  0.049341450979632384  0.0826330794272536  0.3861472068122465  1.0000
  H   H31       1.0  0.4506503021225043  0.0826330794272536  0.8861503646238801  1.0000
  H   H32       1.0  0.9506541814106839  0.9173693000822212  0.6138468822455891  1.0000
  H   H33       1.0  0.7308040033445877  0.8912080996699387  0.03752858988843137  1.0000
  H   H34       1.0  0.2307989114378088  0.1087904773394754  0.4624697153550059  1.0000
  H   H35       1.0  0.2691916290457286  0.108794279839536  0.9624718147926785  1.0000
  H   H36       1.0  0.7691955083339008  0.8912090502949537  0.5375263516626703  1.0000
  H   H37       1.0  0.5199817707821381  0.8378884932046516  0.8993887948204244  1.0000
  H   H38       1.0  0.0199803167311714  0.1621119850547927  0.6006105601418525  1.0000
  H   H39       1.0  0.480013861608171  0.1621148369298382  0.1006125294465576  1.0000
  H   H40       1.0  0.9800116778033328  0.8378865919546215  0.3993837978370465  1.0000
  H   H41       1.0  0.4004806326366293  0.7621598032612126  0.9869395660071659  1.0000
  H   H42       1.0  0.9004772362131845  0.237841625623247  0.5130622874468003  1.0000
  H   H43       1.0  0.5995174249908928  0.2378397243732238  0.013062027180872295  1.0000
  H   H44       1.0  0.0995171835585253  0.7621607538862278  0.4869318016110356  1.0000
  H   H45       1.0  0.5395109933927812  0.5765312565858096  0.8979617542246459  1.0000
  H   H46       1.0  0.0395131771976267  0.42346827104861967  0.6020390495104806  1.0000
  H   H47       1.0  0.4604931273277585  0.4234720735486802  0.1020340438719671  1.0000
  H   H48       1.0  0.9604860930485017  0.5765293553357793  0.3979599150529082  1.0000
  H   H49       1.0  0.7158706052415127  0.6659261317446195  0.8742585645877198  1.0000
  H   H50       1.0  0.2158715764277517  0.3340705440147644  0.6257394803897965  1.0000
  H   H51       1.0  0.2841310902418215  0.3340829021399614  0.12574117211831037  1.0000
  H   H52       1.0  0.7841240559625644  0.6659242304945892  0.37425909377470384  1.0000
  C   C1        1.0  0.7258747087210367  0.3296453845700285  0.7118653764066989  1.0000
  C   C2        1.0  0.2258841682375063  0.6703636493145524  0.7881375181109647  1.0000
  C   C3        1.0  0.2741366877111204  0.670355093689416  0.288141873084669  1.0000
  C   C4        1.0  0.7741187398644342  0.3296406314449527  0.2118544628540704  1.0000
  C   C5        1.0  0.7730673995351296  0.2422078463170578  0.7778156682561032  1.0000
  C   C6        1.0  0.2730756464329929  0.7578068913176139  0.7221872176064179  1.0000
  C   C7        1.0  0.2269415716598218  0.757794533192417  0.22219105204827366  1.0000
  C   C8        1.0  0.7269224111945292  0.24219263631682247  0.27780805995834607  1.0000
  C   C9        1.0  0.723356099881407  0.11407214992271258  0.7519375039677598  1.0000
  C   C10       1.0  0.2233607089234582  0.8859273777117167  0.7480727732022814  1.0000
  C   C11       1.0  0.2766468082205336  0.8859273777117167  0.24806566812609526  1.0000
  C   C12       1.0  0.7766361360854646  0.1140664461726217  0.25193040754671603  1.0000
  C   C13       1.0  0.7676033401073994  0.026701155420795396  0.8161577403657033  1.0000
  C   C14       1.0  0.267612799623869  0.9733221378390127  0.6838384221643921  1.0000
  C   C15       1.0  0.23239471752012256  0.9733021747136945  0.18384358390127886  1.0000
  C   C16       1.0  0.7323876832408587  0.0266840441705227  0.3161569768782043  1.0000
  C   C17       1.0  0.8639204231710806  0.0684250379533395  0.9071982133485861  1.0000
  C   C18       1.0  0.3639310953061496  0.931563082180908  0.5928010287910013  1.0000
  C   C19       1.0  0.1360739966006292  0.9315678353059837  0.0928024689087223  1.0000
  C   C20       1.0  0.6360681749399717  0.0684288404534001  0.4071955760687942  1.0000
  C   C21       1.0  0.9147958366842416  0.1929131861652067  0.9337407110488272  1.0000
  C   C22       1.0  0.4147955952518813  0.8071044033445105  0.5662625652125826  1.0000
  C   C23       1.0  0.0852070714176918  0.8070853908442146  0.06626548872370111  1.0000
  C   C24       1.0  0.5852024623756407  0.19289797616496426  0.4337338922039748  1.0000
  C   C25       1.0  0.8715368806201624  0.28818672641666143  0.8709480503402887  1.0000
  C   C26       1.0  0.3715414896622136  0.711813751842783  0.6290544624336221  1.0000
  C   C27       1.0  0.1284696653375832  0.7118118505927526  0.12905735997933476  1.0000
  C   C28       1.0  0.6284577805839078  0.2881810226665706  0.37094569063670235  1.0000
  C   C29       1.0  0.6650655236073604  0.7333387540570087  0.11613463853012716  1.0000
  C   C30       1.0  0.16506285693778713  0.2666607735774207  0.38386379684627764  1.0000
  C   C31       1.0  0.33493495925736727  0.2666617242024358  0.8838647164321429  1.0000
  C   C32       1.0  0.8349376259269405  0.733340655307039  0.6161333198902381  1.0000
  C   C33       1.0  0.6204884511211901  0.8456684083272563  0.061832977215750894  1.0000
  C   C34       1.0  0.1204821465958048  0.1543320699321882  0.4381663777465192  1.0000
  C   C35       1.0  0.3795096065063319  0.1543339711822185  0.9381682169182638  1.0000
  C   C36       1.0  0.8795146984131108  0.8456684083272563  0.5618290299512053  1.0000
  C   C37       1.0  0.5254397671168505  0.7809736229327058  0.964067012937171  1.0000
  C   C38       1.0  0.025435887828678  0.2190268553267387  0.5359339209309226  1.0000
  C   C39       1.0  0.4745582905106715  0.2190297072017842  0.035935890235627696  1.0000
  C   C40       1.0  0.9745585319430319  0.7809726723076906  0.4640613566338486  1.0000
  C   C41       1.0  0.6175757412353917  0.6565966978475969  0.9316172650691853  1.0000
  C   C42       1.0  0.1175754998030243  0.3434028297868323  0.5683811703072124  1.0000
  C   C43       1.0  0.382424741629336  0.34340758291190804  0.06838103151911668  1.0000
  C   C44       1.0  0.8824213452058913  0.6565957472225818  0.4316179243891368  1.0000
  N   N1        1.0  0.919972505502926  0.4092222045741138  0.899217320926482  1.0000
  N   N2        1.0  0.4199734766891652  0.5907839774354215  0.6007828148335648  1.0000
  N   N3        1.0  0.08003282783622008  0.59077447118527  0.1007894080330374  1.0000
  N   N4        1.0  0.5800318566499811  0.40921650082402283  0.3992157506758005  1.0000
  N   N5        1.0  0.689577396060109  0.40455938887562576  0.6578835107336898  1.0000
  N   N6        1.0  0.1895844303393659  0.5954467931339096  0.8421221511967261  1.0000
  N   N7        1.0  0.3104267246604309  0.5954401387588035  0.3421196613601722  1.0000
  N   N8        1.0  0.8104124146695568  0.40455083325049657  0.15787839227247957  1.0000
  O   O1        1.0  0.690488072631396  0.6276254498910276  0.02962733354313941  1.0000
  O   O2        1.0  0.1904854059618231  0.37237312711839365  0.4703741295119385  1.0000
  O   O3        1.0  0.3095124102333315  0.3723769296184543  0.9703714922321465  1.0000
  O   O4        1.0  0.8095138642842983  0.6276264005160357  0.529625884770283  1.0000
