data_image0
_chemical_formula_structural       Cd2H30C42S6N10O12
_chemical_formula_sum              "Cd2 H30 C42 S6 N10 O12"
_cell_length_a       10.521085708849645
_cell_length_b       10.94678404837787
_cell_length_c       12.601
_cell_angle_alpha    95.8364361637632
_cell_angle_beta     114.43438249986372
_cell_angle_gamma    113.61796549629261

_space_group_name_H-M_alt    "P 1"
_space_group_IT_number       1

loop_
  _space_group_symop_operation_xyz
  'x, y, z'

loop_
  _atom_site_type_symbol
  _atom_site_label
  _atom_site_symmetry_multiplicity
  _atom_site_fract_x
  _atom_site_fract_y
  _atom_site_fract_z
  _atom_site_occupancy
  Cd  Cd1       1.0  0.42129089296918204  0.8542943942191669  0.06593555165635223  1.0000
  Cd  Cd2       1.0  0.5787087854638671  0.14570467372647758  0.9340621122584595  1.0000
  H   H1        1.0  0.8294473437842314  0.8639991273402926  0.09217098688867521  1.0000
  H   H2        1.0  0.1705512906735507  0.1359999406053518  0.9078302844034098  1.0000
  H   H3        1.0  0.7918411913508124  0.8234476579016246  0.9387621591039449  1.0000
  H   H4        1.0  0.2081568581959559  0.176550357469921  0.06123881719122442  1.0000
  H   H5        1.0  0.7109083832562959  0.907068354005176  0.7180867909867248  1.0000
  H   H6        1.0  0.28909083611249287  0.09293176651455327  0.2819123945388569  1.0000
  H   H7        1.0  0.6741681879938214  0.961107507848844  0.5848211148922432  1.0000
  H   H8        1.0  0.3258303206172215  0.0388894549486167  0.41517754620434033  1.0000
  H   H9        1.0  0.19217494486640874  0.24680231004078476  0.7496308474658093  1.0000
  H   H10       1.0  0.8078263624529143  0.7531978104789516  0.2503714399467328  1.0000
  H   H11       1.0  0.019373427786838707  0.0881183451953689  0.6313439152929449  1.0000
  H   H12       1.0  0.9806283385967519  0.9118807227502757  0.3686568505088275  1.0000
  H   H13       1.0  0.2583339676466423  0.8202457275161095  0.7690924823158698  1.0000
  H   H14       1.0  0.7416629120781195  0.1797501827072594  0.23090393604640275  1.0000
  H   H15       1.0  0.035216370609376206  0.635713700712401  0.5680524664780293  1.0000
  H   H16       1.0  0.9647803832686462  0.3642801043627841  0.43194451603998374  1.0000
  H   H17       1.0  0.8805281649337005  0.3891608507312441  0.5659788032770906  1.0000
  H   H18       1.0  0.11946917385532166  0.6108340069180328  0.43401926782565436  1.0000
  H   H19       1.0  0.8375982508500003  0.2230467653758481  0.683795158469515  1.0000
  H   H20       1.0  0.1624017608005701  0.7769491448475208  0.31620472234149594  1.0000
  H   H21       1.0  0.9026320041146931  0.1814721939205057  0.8856577959677241  1.0000
  H   H22       1.0  0.09736930320463703  0.8185279265992235  0.11434449144482532  1.0000
  H   H23       1.0  0.06423357710208683  0.2729345670037091  0.11313148780068624  1.0000
  H   H24       1.0  0.9357657681134413  0.727067658664204  0.886869514332588  1.0000
  H   H25       1.0  0.2893316460306181  0.4761708354085457  0.30544045603021175  1.0000
  H   H26       1.0  0.7106688690069235  0.5238334954075512  0.6945603425090996  1.0000
  H   H27       1.0  0.4384996080952562  0.7084539384349213  0.28360307877901664  1.0000
  H   H28       1.0  0.5615018250708204  0.2915482872329918  0.7163954701265496  1.0000
  H   H29       1.0  0.3075318246532889  0.943922130661356  0.5992880477021814  1.0000
  H   H30       1.0  0.6924712373990616  0.0560811475806489  0.40071353752550465  1.0000
  C   C1        1.0  0.4814971996021882  0.6026323495991832  0.803254759242769  1.0000
  C   C2        1.0  0.5185014348555939  0.3973667183464613  0.19674571846150718  1.0000
  C   C3        1.0  0.45015715998328437  0.6252142741523983  0.6195172658490266  1.0000
  C   C4        1.0  0.5498431033607716  0.3747858463673381  0.3804838674139432  1.0000
  C   C5        1.0  0.2981210224330368  0.4168498647750951  0.6298684943915519  1.0000
  C   C6        1.0  0.7018802848862933  0.5831502557446342  0.37013220584538  1.0000
  C   C7        1.0  0.7393654885751246  0.8348901908473748  0.995756862139615  1.0000
  C   C8        1.0  0.2606325609716508  0.1651078245241777  0.004243320567745529  1.0000
  C   C9        1.0  0.7033656597951818  0.955512023979871  0.9800040626222712  1.0000
  C   C10       1.0  0.2966313457763192  0.0444859913916744  0.019995759523325805  1.0000
  C   C11       1.0  0.6166657247459213  0.8971773152699072  0.6302604513833715  1.0000
  C   C12       1.0  0.3833339536871279  0.1028217526757373  0.36973959329486666  1.0000
  C   C13       1.0  0.5202913132582339  0.956887738317107  0.6563425747649063  1.0000
  C   C14       1.0  0.479708950085822  0.04311238220262229  0.34365776491024763  1.0000
  C   C15       1.0  0.1452579703809178  0.1648078409081819  0.6650789200368479  1.0000
  C   C16       1.0  0.8547433369384052  0.8351922796115545  0.3349225737878855  1.0000
  C   C17       1.0  0.2403390008879427  0.0857321597305543  0.6860180145940121  1.0000
  C   C18       1.0  0.7596633504066547  0.9142679607891822  0.313983839792492  1.0000
  C   C19       1.0  0.18976783777072373  0.7123663563320193  0.7647736669118432  1.0000
  C   C20       1.0  0.810227997978764  0.2876295538913496  0.23522239088866576  1.0000
  C   C21       1.0  0.06550112182547002  0.6075899735688708  0.6520342558808849  1.0000
  C   C22       1.0  0.9344945880772784  0.3924038315063143  0.34796315966317337  1.0000
  C   C23       1.0  0.9810685000872112  0.4725015621265243  0.651025172496091  1.0000
  C   C24       1.0  0.018929882677085178  0.5274932955227527  0.34897325916842453  1.0000
  C   C25       1.0  0.02199049070477347  0.4421874282991496  0.7628840806294832  1.0000
  C   C26       1.0  0.9780095209457969  0.5578084819242193  0.23711500659371867  1.0000
  C   C27       1.0  0.9366384022558449  0.3062653781765476  0.7694038005393723  1.0000
  C   C28       1.0  0.06336173524147173  0.693732637195005  0.23059472252809604  1.0000
  C   C29       1.0  0.9725071172079395  0.2830445411499554  0.8799945462444115  1.0000
  C   C30       1.0  0.02749256122510962  0.7169545267956821  0.12000629202164256  1.0000
  C   C31       1.0  0.09837372386662933  0.3941584725163949  0.9926269470337061  1.0000
  C   C32       1.0  0.9016271243884404  0.6058427005774334  0.0073728940505617055  1.0000
  C   C33       1.0  0.1355572893199906  0.3753552889506864  0.10906801327387684  1.0000
  C   C34       1.0  0.864442514959805  0.6246458841431348  0.8909322608364294  1.0000
  C   C35       1.0  0.2586386938965433  0.48698813934409907  0.21430753160176866  1.0000
  C   C36       1.0  0.7413622802052658  0.5130151388979058  0.7856925389145746  1.0000
  C   C37       1.0  0.34276397620909904  0.6172252367999747  0.2027825398315671  1.0000
  C   C38       1.0  0.6572358280706965  0.3827759362938465  0.7972169406909374  1.0000
  C   C39       1.0  0.1884434009422478  0.5299489508775892  0.9898395300002106  1.0000
  C   C40       1.0  0.811556862401808  0.4700511696421472  0.010160016087134243  1.0000
  C   C41       1.0  0.14818622540013854  0.5548444332833213  0.8727322644738323  1.0000
  C   C42       1.0  0.8518128681219039  0.44515358208823125  0.12726589803186536  1.0000
  S   S1        1.0  0.5779338911792422  0.6651952484336192  0.9633587856378939  1.0000
  S   S2        1.0  0.42206428421427944  0.3348048720861172  0.03664242008935052  1.0000
  S   S3        1.0  0.5032285307767239  0.719689114284698  0.5273337766065398  1.0000
  S   S4        1.0  0.4967711476563252  0.2803099536609466  0.4726670616595074  1.0000
  S   S5        1.0  0.14279425548067343  0.244058249384949  0.5457857460220056  1.0000
  S   S6        1.0  0.8572064669276429  0.7559408185606955  0.45421545280581194  1.0000
  N   N1        1.0  0.5264672921132673  0.6882003077715098  0.7415075795132468  1.0000
  N   N2        1.0  0.4735308832802474  0.3117998127482267  0.25849362621399763  1.0000
  N   N3        1.0  0.33563945149649754  0.4904679492897017  0.5577711629576215  1.0000
  N   N4        1.0  0.6643602269365588  0.5095311186559428  0.44222967530842555  1.0000
  N   N5        1.0  0.3662058699396553  0.4663661077487546  0.7523785266701425  1.0000
  N   N6        1.0  0.633793808493401  0.5336329601968899  0.2476223115959115  1.0000
  N   N7        1.0  0.22861697648578175  0.6863667237045874  0.8713550250728448  1.0000
  N   N8        1.0  0.7713809472142471  0.3136291865187815  0.12864175385120546  1.0000
  N   N9        1.0  0.30801193268589344  0.6381083067699436  0.09437634229342252  1.0000
  N   N10       1.0  0.6919889155691692  0.3618928663238776  0.9056234987908455  1.0000
  O   O1        1.0  0.5601146049398551  0.9338153142373854  0.9463711228489659  1.0000
  O   O2        1.0  0.439882400631646  0.0661827011341671  0.05362711212100631  1.0000
  O   O3        1.0  0.8161886297693287  0.0712666339948029  0.999645289142407  1.0000
  O   O4        1.0  0.1838083758021796  0.9287313813767496  0.0003545330031826943  1.0000
  O   O5        1.0  0.3645909546063635  0.8837191029394588  0.5852961823825211  1.0000
  O   O6        1.0  0.6354109376239732  0.1162820701543694  0.4147048128513263  1.0000
  O   O7        1.0  0.5930386371584575  0.0710087533424542  0.7387669200864411  1.0000
  O   O8        1.0  0.4069616261856056  0.9289913671772821  0.2612334195887201  1.0000
  O   O9        1.0  0.32103123665522304  0.0916128911782437  0.7955516520043631  1.0000
  O   O10       1.0  0.6789694857531003  0.9083861767673937  0.20445034041126323  1.0000
  O   O11       1.0  0.2245920117767994  0.0153686343060286  0.5900305427307231  1.0000
  O   O12       1.0  0.775412094250818  0.9846346439359834  0.40997219664654955  1.0000
