data_image0
_chemical_formula_structural       Zn6H40C72N8O32
_chemical_formula_sum              "Zn6 H40 C72 N8 O32"
_cell_length_a       21.801088479791044
_cell_length_b       21.801092774474785
_cell_length_c       23.660471903597887
_cell_angle_alpha    117.44650941946755
_cell_angle_beta     117.44730900634097
_cell_angle_gamma    89.9883901527253

_space_group_name_H-M_alt    "P 1"
_space_group_IT_number       1

loop_
  _space_group_symop_operation_xyz
  'x, y, z'

loop_
  _atom_site_type_symbol
  _atom_site_label
  _atom_site_symmetry_multiplicity
  _atom_site_fract_x
  _atom_site_fract_y
  _atom_site_fract_z
  _atom_site_occupancy
  Zn  Zn1       1.0  1.9729890844578874e-05  0.44101977931590164  0.9999960824786033  1.0000
  Zn  Zn2       1.0  0.4646574091574749  0.46465367429849663  0.92933775602598  1.0000
  Zn  Zn3       1.0  0.5353469027891222  0.5353378622545364  0.07066087004370286  1.0000
  Zn  Zn4       1.0  0.5589813393910177  0.9999773633583827  5.644262699926025e-06  1.0000
  Zn  Zn5       1.0  7.231496177024944e-06  0.5590097334042241  1.1622742092673668e-06  1.0000
  Zn  Zn6       1.0  0.44099193415323873  0.9999922650471474  1.5955279622300565e-06  1.0000
  H   H1        1.0  0.3622915472280112  0.5145913144151706  0.10945601864718658  1.0000
  H   H2        1.0  0.5948430653123677  0.36224868126930687  0.10945251990755608  1.0000
  H   H3        1.0  0.7470975654201266  0.5948239387875632  0.10935333870843046  1.0000
  H   H4        1.0  0.5145089012313591  0.747079842891786  0.10932215153886192  1.0000
  H   H5        1.0  0.6377509086706465  0.40515506508951693  0.8905477807496427  1.0000
  H   H6        1.0  0.40517515430018136  0.252902941986058  0.8906442820471485  1.0000
  H   H7        1.0  0.25291912260817634  0.4854914887574043  0.8906780759693975  1.0000
  H   H8        1.0  0.4854102760323327  0.6377103996081815  0.8905451271936897  1.0000
  H   H9        1.0  0.7163592679448456  0.1351815558811964  0.23850008991768584  1.0000
  H   H10       1.0  0.10336343835636796  0.7163284821938731  0.2384773971570197  1.0000
  H   H11       1.0  0.5221183218525384  0.10329600243937166  0.23842551038109863  1.0000
  H   H12       1.0  0.13512364021580228  0.5220851878211833  0.2384361105515325  1.0000
  H   H13       1.0  0.2836720528949714  0.8966427968939075  0.7615242188611618  1.0000
  H   H14       1.0  0.896702833607449  0.4778842060884474  0.7615747089120077  1.0000
  H   H15       1.0  0.4779117407444105  0.8648719931595539  0.7615626201129118  1.0000
  H   H16       1.0  0.8648200057508431  0.28364300682389415  0.7614985048537193  1.0000
  H   H17       1.0  0.8254024394958889  0.19860163061691347  0.34345472065323435  1.0000
  H   H18       1.0  0.1448284538227327  0.8253590280099203  0.3433982366175954  1.0000
  H   H19       1.0  0.5180247216824228  0.14481630614994867  0.3433704124943803  1.0000
  H   H20       1.0  0.19857243126956792  0.5179919683157267  0.3434171126785087  1.0000
  H   H21       1.0  0.17463699660348908  0.8551768234118171  0.6566020197259235  1.0000
  H   H22       1.0  0.8551851269332431  0.4819804353268894  0.6566311656634127  1.0000
  H   H23       1.0  0.4820037003556124  0.8014184946821887  0.656584192693181  1.0000
  H   H24       1.0  0.801402941991121  0.17460148058373925  0.6565445750511432  1.0000
  H   H25       1.0  0.2939665664425917  0.5331261421465214  0.17055933937296427  1.0000
  H   H26       1.0  0.20334563799700328  0.5200672316674684  0.1261924501198664  1.0000
  H   H27       1.0  0.6374230250305216  0.2939687140867663  0.17056932934077904  1.0000
  H   H28       1.0  0.6061362591507019  0.2033486083105345  0.1262314529812301  1.0000
  H   H29       1.0  0.8765599554604009  0.6374367302085701  0.17055657716246478  1.0000
  H   H30       1.0  0.9228437105555045  0.6061516915193721  0.12623179663125217  1.0000
  H   H31       1.0  0.5330926965861597  0.8765492240599713  0.17053062719995185  1.0000
  H   H32       1.0  0.5200518832798195  0.9228324148245761  0.1262117758317414  1.0000
  H   H33       1.0  0.706029908376209  0.3625752474615711  0.8294321671525469  1.0000
  H   H34       1.0  0.7966510320243998  0.3938605239962104  0.8737720267593974  1.0000
  H   H35       1.0  0.36256318660534254  0.12344021887695808  0.8294409707069834  1.0000
  H   H36       1.0  0.39384856930571016  0.07715693141008757  0.8737667830756595  1.0000
  H   H37       1.0  0.12344904289539467  0.46690648184124234  0.8294683056143272  1.0000
  H   H38       1.0  0.07716634953943208  0.4799465508124856  0.8737870213121754  1.0000
  H   H39       1.0  0.4668746236559969  0.7060340286220566  0.8294412804152174  1.0000
  H   H40       1.0  0.4799324288868404  0.796654730683315  0.8738075801574327  1.0000
  C   C1        1.0  0.11746056209855038  0.5000882409854484  2.6050500935102843e-05  1.0000
  C   C2        1.0  0.23290243718064832  0.7328826144049644  0.4658263370923025  1.0000
  C   C3        1.0  0.14344522819251893  0.5801143805052505  0.2690549649139414  1.0000
  C   C4        1.0  0.3110795831103488  0.8743394479741156  0.7309202648636699  1.0000
  C   C5        1.0  0.8743936426105421  0.4198625309703419  0.7309526667845959  1.0000
  C   C6        1.0  0.41988276867079577  0.8565516039887701  0.7309451080904027  1.0000
  C   C7        1.0  0.8565201618326268  0.31105689052321867  0.7309016144029385  1.0000
  C   C8        1.0  0.6889456036613025  0.14348371698625328  0.2690976955862324  1.0000
  C   C9        1.0  0.12566416015279455  0.6889211201862653  0.26908132130248674  1.0000
  C   C10       1.0  0.5801389136371639  0.1256079399770087  0.2690472414937162  1.0000
  C   C11       1.0  0.26710880301772016  0.7670911627615171  0.5341731840383518  1.0000
  C   C12       1.0  0.6146079227471402  0.1146095384010337  0.22919100473539084  1.0000
  C   C13       1.0  0.11462276537780973  0.6145748981088772  0.22918521521615523  1.0000
  C   C14       1.0  0.3854247518598867  0.8853778290956457  0.7708147259603921  1.0000
  C   C15       1.0  0.8853910521102645  0.3853961901546441  0.7708090620377702  1.0000
  C   C16       1.0  0.7671219267623143  0.2671046228100524  0.5341733588777728  1.0000
  C   C17       1.0  0.6940114000419229  0.1939978690038232  0.3880095189284846  1.0000
  C   C18       1.0  0.1940109898395761  0.6939828955504339  0.3880051492356599  1.0000
  C   C19       1.0  0.3060111436079751  0.8059836539211888  0.6119930484832494  1.0000
  C   C20       1.0  0.8060110359654689  0.3059937577464072  0.6119925481039419  1.0000
  C   C21       1.0  0.8073001857512452  0.2087260877208977  0.3834805327128024  1.0000
  C   C22       1.0  0.7329042099466888  0.23288823320941535  0.4658283281200751  1.0000
  C   C23       1.0  0.17474270166057684  0.8072666889070561  0.3834408565165929  1.0000
  C   C24       1.0  0.5761681766399248  0.17471582988807918  0.38340225238781045  1.0000
  C   C25       1.0  0.2086810326213566  0.5761373198425517  0.38342951322845653  1.0000
  C   C26       1.0  0.19272793745425787  0.8252576277427437  0.6165566912498761  1.0000
  C   C27       1.0  0.8252856979916742  0.42383634496991374  0.6165977081089621  1.0000
  C   C28       1.0  0.4238579544354548  0.791308618199189  0.616569995376466  1.0000
  C   C29       1.0  0.7912827081411392  0.19270678600658203  0.6165222149335039  1.0000
  C   C30       1.0  0.3126796426414913  0.5083580583544745  0.062095943500906955  1.0000
  C   C31       1.0  0.5537202398480474  0.31263723589136566  0.062082912724235856  1.0000
  C   C32       1.0  0.749370217069952  0.5537350263172061  0.06199466137335455  1.0000
  C   C33       1.0  0.4999708723560587  0.11742312179020337  1.841053239100728e-05  1.0000
  C   C34       1.0  0.508238720844936  0.7493533766827271  0.061970670165237496  1.0000
  C   C35       1.0  0.6873636244640551  0.4462793770729476  0.9379180596537681  1.0000
  C   C36       1.0  0.44626663759442653  0.25063101103468477  0.9380053259083001  1.0000
  C   C37       1.0  0.250645239738482  0.49176167145606114  0.9380301895715422  1.0000
  C   C38       1.0  0.49164314397408737  0.6873224618658612  0.9379057714157498  1.0000
  C   C39       1.0  0.8825782769804533  0.5000253090073984  0.9999829797252461  1.0000
  C   C40       1.0  0.5000483947256883  0.38146018026369444  7.618893350526175e-05  1.0000
  C   C41       1.0  0.6185412764445957  0.4999537537512923  0.9999277596205899  1.0000
  C   C42       1.0  0.4999453532358088  0.6185309042811654  0.9999230567979326  1.0000
  C   C43       1.0  0.38147244507041467  0.5000541650560706  8.188483605647971e-05  1.0000
  C   C44       1.0  0.4999108222323727  0.8825393256930739  0.9999736451002263  1.0000
  C   C45       1.0  0.2483763756710005  0.5069582964887189  0.06209075207982554  1.0000
  C   C46       1.0  0.5551125490928186  0.24834071344997005  0.062084524106204186  1.0000
  C   C47       1.0  0.8136876751525505  0.5551798962941491  0.062043893137008733  1.0000
  C   C48       1.0  0.5068600197043693  0.8136724085907191  0.06202860100816564  1.0000
  C   C49       1.0  0.7516578719435146  0.4448847002872399  0.9379165098772688  1.0000
  C   C50       1.0  0.44481811932534737  0.18631303496755466  0.9379549990731777  1.0000
  C   C51       1.0  0.18632737953801368  0.4931396389684369  0.9379715564085275  1.0000
  C   C52       1.0  0.493042208267731  0.7516227923130079  0.9379083912856887  1.0000
  C   C53       1.0  0.9269344835232115  0.4269199276263794  0.8538560208692305  1.0000
  C   C54       1.0  0.4269563407446737  0.9269178845852227  0.8538570728013753  1.0000
  C   C55       1.0  0.07308170999591818  0.5730438786120899  0.14614170721857525  1.0000
  C   C56       1.0  0.5730813350642308  0.07306129846192995  0.14614369350204023  1.0000
  C   C57       1.0  0.31297829438509694  0.5000879827744598  8.869035825393937e-05  1.0000
  C   C58       1.0  0.5000140057156557  0.3129540023774808  5.940363855921797e-05  1.0000
  C   C59       1.0  0.6870437502773896  0.4999835054932265  0.9999367675388203  1.0000
  C   C60       1.0  0.4999120347864618  0.6870219814451278  0.9999113136710707  1.0000
  C   C61       1.0  0.18564034075584598  0.5000658568514567  3.0095134093071152e-05  1.0000
  C   C62       1.0  0.49995006346109966  0.1856067016104603  1.792032816175976e-05  1.0000
  C   C63       1.0  0.8143947772581727  0.5000476749525617  0.9999842828608081  1.0000
  C   C64       1.0  0.49993359564502526  0.814359098977356  0.9999694391742296  1.0000
  C   C65       1.0  0.7288702093454161  0.18198295366454428  0.34687540151817586  1.0000
  C   C66       1.0  0.16492018765121944  0.7288418987863069  0.3468466396713978  1.0000
  C   C67       1.0  0.6179905382062005  0.16487589489918983  0.34681472681128883  1.0000
  C   C68       1.0  0.18195441180080965  0.6179594480962649  0.346823294221288  1.0000
  C   C69       1.0  0.2711551606917053  0.8350808183473789  0.6531548149831039  1.0000
  C   C70       1.0  0.8351290459316159  0.3820135196886059  0.6531867188545278  1.0000
  C   C71       1.0  0.3820359013021315  0.818040181799674  0.6531769966514034  1.0000
  C   C72       1.0  0.8180248799072557  0.27113487259016034  0.6531255121383526  1.0000
  N   N1        1.0  0.24671275848896093  0.5106020578705214  0.12141220823861681  1.0000
  N   N2        1.0  0.6108042951991876  0.24670849315437954  0.12143451459830597  1.0000
  N   N3        1.0  0.8746853778708753  0.6108512307301481  0.12142618283650808  1.0000
  N   N4        1.0  0.5105575665115581  0.874672111000322  0.1213998725699453  1.0000
  N   N5        1.0  0.7532919754822982  0.38919421107030444  0.87856802302084  1.0000
  N   N6        1.0  0.38914733131874607  0.12531489649422412  0.8785725864964534  1.0000
  N   N7        1.0  0.12532593355192728  0.4894407012586443  0.8785988408205015  1.0000
  N   N8        1.0  0.4893994771264615  0.7532889601581519  0.8785889678730714  1.0000
  O   O1        1.0  0.08481334068729042  0.44308809228802215  0.9887662759751168  1.0000
  O   O2        1.0  0.5457026243526355  0.084752724066128  0.9887391494718757  1.0000
  O   O3        1.0  0.9039602199391792  0.5457342583941839  0.988680905635981  1.0000
  O   O4        1.0  0.44291559737835223  0.9039525053637619  0.988720211756544  1.0000
  O   O5        1.0  0.9152485611842137  0.4542958209250043  0.011261441178028318  1.0000
  O   O6        1.0  0.45426405409280335  0.09604335129782987  0.011321892864586399  1.0000
  O   O7        1.0  0.09604678547572826  0.5570828501268821  0.011279599559387028  1.0000
  O   O8        1.0  0.5569117331405311  0.915189687163476  0.0112339452652392  1.0000
  O   O9        1.0  0.9310130244561208  0.3924500735990224  0.8864265562259065  1.0000
  O   O10       1.0  0.494022553315574  0.9310196809063598  0.8864258625854547  1.0000
  O   O11       1.0  0.9554526738685424  0.493967603136511  0.886422408301847  1.0000
  O   O12       1.0  0.3924843212235059  0.9554171361595467  0.8864275041392843  1.0000
  O   O13       1.0  0.06897703481408972  0.5059791193500942  0.11357052042392721  1.0000
  O   O14       1.0  0.5060372278045193  0.044540656313756796  0.11357566346187306  1.0000
  O   O15       1.0  0.044585020651993476  0.6075182178481597  0.11357303077404882  1.0000
  O   O16       1.0  0.6075514883464875  0.06898195598788696  0.11357195888314912  1.0000
  O   O17       1.0  0.5434229851986673  0.43923320228378065  0.061550677156113  1.0000
  O   O18       1.0  0.6222543081715628  0.5433149088661722  0.06141280296832003  1.0000
  O   O19       1.0  0.5181160125253753  0.6222503680458474  0.061412420776519955  1.0000
  O   O20       1.0  0.4392552547246351  0.5181858053394208  0.06156367910102726  1.0000
  O   O21       1.0  0.4566800905760785  0.3777452438171028  0.9385843146489281  1.0000
  O   O22       1.0  0.3777503161357743  0.4818813670061674  0.9385853603044086  1.0000
  O   O23       1.0  0.4818073533044113  0.5607430435104068  0.9384337960964476  1.0000
  O   O24       1.0  0.560762425477769  0.4565750015483518  0.938444838591913  1.0000
  O   O25       1.0  0.850503363554232  0.23901006901982683  0.4504728357048507  1.0000
  O   O26       1.0  0.2114387465118952  0.8504447420155403  0.4504217992392372  1.0000
  O   O27       1.0  0.5999824163932884  0.21141002165565242  0.4503914610248573  1.0000
  O   O28       1.0  0.23890828405302508  0.5999544358953983  0.4504046697141604  1.0000
  O   O29       1.0  0.14955185560758372  0.7885617760905532  0.5495800616908468  1.0000
  O   O30       1.0  0.788588705439956  0.40002235824708543  0.5496069913414844  1.0000
  O   O31       1.0  0.40004007226090726  0.7610771555637117  0.549595586669888  1.0000
  O   O32       1.0  0.7610013679955542  0.14950295663716434  0.5495255890862083  1.0000
