data_image0
_chemical_formula_structural       Zn2H48C50N2O24
_chemical_formula_sum              "Zn2 H48 C50 N2 O24"
_cell_length_a       11.646029418798479
_cell_length_b       14.335055071994452
_cell_length_c       15.09164701910856
_cell_angle_alpha    89.98770157841913
_cell_angle_beta     93.46105424556775
_cell_angle_gamma    90.00022624295151

_space_group_name_H-M_alt    "P 1"
_space_group_IT_number       1

loop_
  _space_group_symop_operation_xyz
  'x, y, z'

loop_
  _atom_site_type_symbol
  _atom_site_label
  _atom_site_symmetry_multiplicity
  _atom_site_fract_x
  _atom_site_fract_y
  _atom_site_fract_z
  _atom_site_occupancy
  Zn  Zn1       1.0  0.5000424209622382  0.3990157835768073  0.5000635594677763  1.0000
  Zn  Zn2       1.0  0.5000306187881095  0.6030352365744774  0.4999970779921911  1.0000
  H   H1        1.0  0.3298510305093956  0.933413190066936  0.4345500901900935  1.0000
  H   H2        1.0  0.25796080226849943  0.3600534787317641  0.13025419055458096  1.0000
  H   H3        1.0  0.258509278999739  0.2153926403694939  0.035868765717154416  1.0000
  H   H4        1.0  0.24459658812312313  0.2852129210078758  0.9380439552801935  1.0000
  H   H5        1.0  0.1306850906065335  0.281268803881595  0.011874643872566506  1.0000
  H   H6        1.0  0.23851717706541828  0.5827999384748069  0.9934704284226046  1.0000
  H   H7        1.0  0.2223642657772659  0.636480698361609  0.8861569637237141  1.0000
  H   H8        1.0  0.24599232893856285  0.7944737905168322  0.9570181433936897  1.0000
  H   H9        1.0  0.13012147637660834  0.7330890967999081  0.0024625279936998025  1.0000
  H   H10       1.0  0.2653994423883362  0.7414091538746206  0.06376283311725933  1.0000
  H   H11       1.0  0.7580098981453105  0.4305802621122936  0.9681881895725372  1.0000
  H   H12       1.0  0.6856042004169539  0.06884890059015451  0.5000339788334858  1.0000
  H   H13       1.0  0.7427372994794512  0.3604443826758512  0.8699710623995787  1.0000
  H   H14       1.0  0.7425681867990761  0.21575649307015246  0.9643586392670118  1.0000
  H   H15       1.0  0.7559957771343522  0.28553106356461916  0.06220007903069562  1.0000
  H   H16       1.0  0.8701112711384128  0.2819111990996248  0.9885244542721384  1.0000
  H   H17       1.0  0.7620330934148287  0.5828625898721994  0.006776494346695501  1.0000
  H   H18       1.0  0.7779417358746203  0.6364963775240257  0.11409442508815462  1.0000
  H   H19       1.0  0.7543703693359803  0.7945125392796796  0.043245392668815406  1.0000
  H   H20       1.0  0.8703885446781429  0.7332126606795056  0.997927406857308  1.0000
  H   H21       1.0  0.7352149917199428  0.7415294544931754  0.9364751484737683  1.0000
  H   H22       1.0  0.5649762676783683  0.28129225505582406  0.28809934684719013  1.0000
  H   H23       1.0  0.6702501725006302  0.9334004856528323  0.5653664935697551  1.0000
  H   H24       1.0  0.5347863594535128  0.2633496436375324  0.17144167034246044  1.0000
  H   H25       1.0  0.47361700833836556  0.12634938650102603  0.266964992781091  1.0000
  H   H26       1.0  0.3704390031034849  0.20196955603561406  0.31283350168313023  1.0000
  H   H27       1.0  0.35893398373331564  0.1743383390136444  0.19796742872014764  1.0000
  H   H28       1.0  0.5014413107299944  0.7221889023966739  0.7296377194313381  1.0000
  H   H29       1.0  0.44263586119431864  0.7573892039243757  0.8317188794392084  1.0000
  H   H30       1.0  0.2637979216810891  0.8138704075996087  0.7478103811418608  1.0000
  H   H31       1.0  0.38639695999259527  0.8678962306874354  0.7048832346446405  1.0000
  H   H32       1.0  0.31648804854390283  0.7731268824530844  0.6465594117670223  1.0000
  H   H33       1.0  0.43525217996877075  0.2814447803484441  0.712100761610138  1.0000
  H   H34       1.0  0.31449048366826565  0.068844786128551  0.4998499460522653  1.0000
  H   H35       1.0  0.4655806561994212  0.2634028804213813  0.8287400570114445  1.0000
  H   H36       1.0  0.5265005435056624  0.1264299968678486  0.7331596160763854  1.0000
  H   H37       1.0  0.6296316565905187  0.20203074196940207  0.6871573148259673  1.0000
  H   H38       1.0  0.6413517445222255  0.1743472115054772  0.8020228052779645  1.0000
  H   H39       1.0  0.4987890170723973  0.7221834174421176  0.27034592097737703  1.0000
  H   H40       1.0  0.5576538872076499  0.7573079270757148  0.16825099172146454  1.0000
  H   H41       1.0  0.7364025705399726  0.8139033750044433  0.2521249450395828  1.0000
  H   H42       1.0  0.6137684567408429  0.8679148107486299  0.2950032224430288  1.0000
  H   H43       1.0  0.6837413384555334  0.7731948210038978  0.3534120689175638  1.0000
  H   H44       1.0  0.15227339930869024  0.7217369196725727  0.43828319309102454  1.0000
  H   H45       1.0  0.8103561375468545  0.3224591469570157  0.4325630842334293  1.0000
  H   H46       1.0  0.8478070094852584  0.7216392452064965  0.5615898778347345  1.0000
  H   H47       1.0  0.1898687502766805  0.3224896520757953  0.5674818382654294  1.0000
  H   H48       1.0  0.24230683916986356  0.43019469768939433  0.032027938069340706  1.0000
  C   C1        1.0  0.5303070107081141  0.5037117839272655  0.33548662231542903  1.0000
  C   C2        1.0  0.7186120603239132  0.4961470095387597  0.5287009185146232  1.0000
  C   C3        1.0  0.40566672443482343  0.898634946055509  0.4646255471213723  1.0000
  C   C4        1.0  0.6021899667494852  0.10308159936556652  0.5001371557537909  1.0000
  C   C5        1.0  0.5944367060763655  0.8986240611196051  0.5352833132299255  1.0000
  C   C6        1.0  0.3979128935366348  0.1030743288640963  0.49975904419887496  1.0000
  C   C7        1.0  0.15874209158948105  0.48707050067179125  0.47838696898242733  1.0000
  C   C8        1.0  0.8413067936368108  0.48700993634756873  0.5215018147283959  1.0000
  C   C9        1.0  0.0563736223952631  0.48269867178537856  0.49226548005916043  1.0000
  C   C10       1.0  0.943674692877565  0.4827002549954216  0.5075443591173114  1.0000
  C   C11       1.0  0.4089550668301527  0.8015700986898511  0.4654700020935466  1.0000
  C   C12       1.0  0.4698898611130816  0.5037434719661533  0.6645921171043201  1.0000
  C   C13       1.0  0.5991427057391975  0.20022043533546707  0.4986907469399854  1.0000
  C   C14       1.0  0.5911506571851747  0.8015585036132791  0.534451839171773  1.0000
  C   C15       1.0  0.4009638750501596  0.20021099154024563  0.5012715467605988  1.0000
  C   C16       1.0  0.45842870957140053  0.4315994356743005  0.09660080037545533  1.0000
  C   C17       1.0  0.4326989782348464  0.5755607340887107  0.9044715813694925  1.0000
  C   C18       1.0  0.5420586408599632  0.43164919134925134  0.903498564476479  1.0000
  C   C19       1.0  0.5677185378352619  0.5755395975214412  0.09562037894201585  1.0000
  C   C20       1.0  0.4732195403480263  0.42807914741222663  0.18958698888070563  1.0000
  C   C21       1.0  0.42342291148690964  0.5753002063606657  0.8111433485476315  1.0000
  C   C22       1.0  0.5272044581231657  0.428127998348387  0.8105161550094099  1.0000
  C   C23       1.0  0.5296868463758672  0.5013925089427359  0.23638391757629765  1.0000
  C   C24       1.0  0.5769302015012414  0.5752762330841888  0.18895471742327896  1.0000
  C   C25       1.0  0.30662242328681094  0.7525187078344615  0.41980417340334963  1.0000
  C   C26       1.0  0.7169053745674533  0.2453336409559768  0.4999498883522408  1.0000
  C   C27       1.0  0.693465046395666  0.7525014454229648  0.5801159105146355  1.0000
  C   C28       1.0  0.2832228056965533  0.24532834098565806  0.500060498073353  1.0000
  C   C29       1.0  0.27613547313954007  0.36354222529392644  0.05954766067487332  1.0000
  C   C30       1.0  0.22465897787274264  0.2814535670375449  0.008173321943317501  1.0000
  C   C31       1.0  0.26168312391542525  0.6442041893853344  0.954014482288301  1.0000
  C   C32       1.0  0.22381880449984246  0.7336736444122139  0.9968882218199869  1.0000
  C   C33       1.0  0.724447063615813  0.3638603867480654  0.9406666528484496  1.0000
  C   C34       1.0  0.47066938880242765  0.5014286545008416  0.763707852589768  1.0000
  C   C35       1.0  0.7761111711333017  0.28188061066534686  0.9921087396475843  1.0000
  C   C36       1.0  0.7387491804680267  0.6442328950702391  0.046196663379952006  1.0000
  C   C37       1.0  0.7766813136410987  0.7337582173526228  0.0033851896020422904  1.0000
  C   C38       1.0  0.49582966756958063  0.27150162286493906  0.23577480510468266  1.0000
  C   C39       1.0  0.4201036167021215  0.1888003080691192  0.254542066819795  1.0000
  C   C40       1.0  0.421396967781135  0.733204338051671  0.7633753630018065  1.0000
  C   C41       1.0  0.34216494020791544  0.8008431819339492  0.7126612159985088  1.0000
  C   C42       1.0  0.5044642633195624  0.2715731273404032  0.7643777690538232  1.0000
  C   C43       1.0  0.58007959672252  0.1888547796539939  0.7455187097343557  1.0000
  C   C44       1.0  0.5788535408362493  0.7331867311850996  0.23663372770339222  1.0000
  C   C45       1.0  0.5064223441927355  0.504663512260464  0.04905803562959932  1.0000
  C   C46       1.0  0.6580400373308637  0.8008693112663394  0.28729065667172904  1.0000
  C   C47       1.0  0.4940652164983703  0.5046905899587556  0.9510327570668127  1.0000
  C   C48       1.0  0.5000529275527797  0.9494447962236947  0.4999444650910264  1.0000
  C   C49       1.0  0.5000560233749526  0.0521479192379815  0.49993810410834544  1.0000
  C   C50       1.0  0.28146668261044283  0.49620401683811377  0.471301052984437  1.0000
  N   N1        1.0  0.5000604875199883  0.7522917312010547  0.49995809534156904  1.0000
  N   N2        1.0  0.5000519001781073  0.24976348164680937  0.5000047243823006  1.0000
  O   O1        1.0  0.5573469324596588  0.42959465483706066  0.3783660350251311  1.0000
  O   O2        1.0  0.21384536666477771  0.7581181787085427  0.4692212753086055  1.0000
  O   O3        1.0  0.7878240146907132  0.23073456659421512  0.561050223947035  1.0000
  O   O4        1.0  0.735298553653209  0.29107575832872357  0.4246386588473784  1.0000
  O   O5        1.0  0.69293527601166  0.7204220349622475  0.6544907430591709  1.0000
  O   O6        1.0  0.7862387156923917  0.7580613344548156  0.5306586224669021  1.0000
  O   O7        1.0  0.21224209566449306  0.2307681222453937  0.43901424539758  1.0000
  O   O8        1.0  0.2649118456914793  0.29107244527636317  0.5753843005479597  1.0000
  O   O9        1.0  0.3992609001241193  0.3614202084242848  0.05117670862699701  1.0000
  O   O10       1.0  0.3855783176322732  0.6474351472814704  0.9509780914535216  1.0000
  O   O11       1.0  0.601297234576265  0.36147388297806776  0.9489146902209529  1.0000
  O   O12       1.0  0.4999993367438195  0.5805879699064247  0.6305215536054122  1.0000
  O   O13       1.0  0.6148600628992684  0.6474309412895422  0.04909983819850791  1.0000
  O   O14       1.0  0.4248342305944065  0.35466026254048444  0.23297522790417  1.0000
  O   O15       1.0  0.3615609407047985  0.6444827481706171  0.7664311718443388  1.0000
  O   O16       1.0  0.5755242443156519  0.35469777514148854  0.7671372879812214  1.0000
  O   O17       1.0  0.6387111418075834  0.64446706927572  0.23367539864749184  1.0000
  O   O18       1.0  0.4427909397060503  0.42962328497262087  0.6217642857689044  1.0000
  O   O19       1.0  0.5000996661269639  0.5805479000485931  0.36948725542563926  1.0000
  O   O20       1.0  0.3350520853370328  0.42435965410530935  0.4470662653317207  1.0000
  O   O21       1.0  0.6777106204115952  0.5755348750255819  0.5070819290260646  1.0000
  O   O22       1.0  0.6650580944278276  0.42430583489642254  0.5530154377132208  1.0000
  O   O23       1.0  0.32234928465078383  0.5755828944104661  0.4929380274859272  1.0000
  O   O24       1.0  0.30719237044824155  0.7204393122042277  0.345448864206226  1.0000
