data_image0
_chemical_formula_structural       Cu2H20C8Cl4O8
_chemical_formula_sum              "Cu2 H20 C8 Cl4 O8"
_cell_length_a       6.322260888189898
_cell_length_b       7.442649271161367
_cell_length_c       9.540460593390364
_cell_angle_alpha    104.61491968091511
_cell_angle_beta     105.88076709389335
_cell_angle_gamma    99.3495711875581

_space_group_name_H-M_alt    "P 1"
_space_group_IT_number       1

loop_
  _space_group_symop_operation_xyz
  'x, y, z'

loop_
  _atom_site_type_symbol
  _atom_site_label
  _atom_site_symmetry_multiplicity
  _atom_site_fract_x
  _atom_site_fract_y
  _atom_site_fract_z
  _atom_site_occupancy
  Cu  Cu1       1.0  0.2856934060523812  0.1433922255049183  0.0997430719559489  1.0000
  Cu  Cu2       1.0  0.7143114012584632  0.8566123774857245  0.9002583163915858  1.0000
  H   H1        1.0  0.27918073447898445  0.5260980705526846  0.8998139513117493  1.0000
  H   H2        1.0  0.7208243149567438  0.47389644883629944  0.10018134169747132  1.0000
  H   H3        1.0  0.40041619939351847  0.6917132937074725  0.19324660207552566  1.0000
  H   H4        1.0  0.5995827452974182  0.3082883960690737  0.8067468949370137  1.0000
  H   H5        1.0  0.13181081237210887  0.5201459786358313  0.10581908878235421  1.0000
  H   H6        1.0  0.8681905506685936  0.47985282509997507  0.8941732322181223  1.0000
  H   H7        1.0  0.1811078358052285  0.2190723107497304  0.8298039309214857  1.0000
  H   H8        1.0  0.8188878608501823  0.7809237288196158  0.17019628550014687  1.0000
  H   H9        1.0  0.3471317181210408  0.4639021019841962  0.3208035728677174  1.0000
  H   H10       1.0  0.6528648474670503  0.5361025036426168  0.6791942575081151  1.0000
  H   H11       1.0  0.6374844300075254  0.3203364815053149  0.4645504735071526  1.0000
  H   H12       1.0  0.36251166787885575  0.6796609717412848  0.5354479904086701  1.0000
  H   H13       1.0  0.8504160970177709  0.11865095518201228  0.6499471323157735  1.0000
  H   H14       1.0  0.14957720745248068  0.881347990301087  0.35005636501874443  1.0000
  H   H15       1.0  0.06721591779720627  0.558060130886652  0.675310368442446  1.0000
  H   H16       1.0  0.9327761186277782  0.44194021290253716  0.3246889808712581  1.0000
  H   H17       1.0  0.9239780525430703  0.1576816687595226  0.43600308412395355  1.0000
  H   H18       1.0  0.07602589891739336  0.8423143781101601  0.5640017427197961  1.0000
  H   H19       1.0  0.20777810677368788  0.2802534761251252  0.5528959776886779  1.0000
  H   H20       1.0  0.7922243334574263  0.7197483636318932  0.44711493975878364  1.0000
  C   C1        1.0  0.37261750789654247  0.469823252502337  0.9871051252419107  1.0000
  C   C2        1.0  0.627385898427562  0.5301712713884896  0.012889877153135377  1.0000
  C   C3        1.0  0.3159239838867051  0.5397812320574147  0.1319162766006912  1.0000
  C   C4        1.0  0.6840815332507334  0.460220439711783  0.8680783828685535  1.0000
  C   C5        1.0  0.9709968228664465  0.45680381858076646  0.5599300313650488  1.0000
  C   C6        1.0  0.029001384774076662  0.5431950935238061  0.4400722329111844  1.0000
  C   C7        1.0  0.02978798372617319  0.2638573278274237  0.547111503647109  1.0000
  C   C8        1.0  0.9702078448115118  0.7361445001274234  0.4528950939924173  1.0000
  Cl  Cl1       1.0  0.41919282858669493  0.058928440922912294  0.31354167819812767  1.0000
  Cl  Cl2       1.0  0.5807963620929399  0.9410733553567353  0.6864584947326405  1.0000
  Cl  Cl3       1.0  0.152993641755188  0.8515765351283662  0.9247436739765149  1.0000
  Cl  Cl4       1.0  0.8470053683472826  0.14842520433072787  0.0752550852880844  1.0000
  O   O1        1.0  0.3039450420150018  0.2633003398843598  0.9339460929494267  1.0000
  O   O2        1.0  0.696062077927948  0.7366956085530701  0.06604984306897417  1.0000
  O   O3        1.0  0.39530817493138665  0.42366533370559956  0.22657805744355383  1.0000
  O   O4        1.0  0.6046945487899295  0.5763378303000976  0.773421635444393  1.0000
  O   O5        1.0  0.7351754462416551  0.44151793762233643  0.5443145192898767  1.0000
  O   O6        1.0  0.26481699141431386  0.5584838198441132  0.45568307751801024  1.0000
  O   O7        1.0  0.005523364458625185  0.19374461378273367  0.6703045421708325  1.0000
  O   O8        1.0  0.9944737855127528  0.8062615446324698  0.3297062700049338  1.0000
