data_image0
_chemical_formula_structural       Ag2H32C36N18
_chemical_formula_sum              "Ag2 H32 C36 N18"
_cell_length_a       7.583660553538916
_cell_length_b       8.189639694255423
_cell_length_c       14.99419093909098
_cell_angle_alpha    95.93531559208468
_cell_angle_beta     103.0367699186067
_cell_angle_gamma    102.55643395668223

_space_group_name_H-M_alt    "P 1"
_space_group_IT_number       1

loop_
  _space_group_symop_operation_xyz
  'x, y, z'

loop_
  _atom_site_type_symbol
  _atom_site_label
  _atom_site_symmetry_multiplicity
  _atom_site_fract_x
  _atom_site_fract_y
  _atom_site_fract_z
  _atom_site_occupancy
  Ag  Ag1       1.0  0.5230842552616011  0.646397081756639  0.9424804155301485  1.0000
  Ag  Ag2       1.0  0.47691038020695936  0.35360040130333914  0.05752318770243649  1.0000
  H   H1        1.0  0.5395504881696451  0.4805194108328621  0.7232738865732669  1.0000
  H   H2        1.0  0.4604566843096761  0.5194793206733052  0.27673060249061615  1.0000
  H   H3        1.0  0.10293660221471868  0.3541931562431627  0.8552322956352183  1.0000
  H   H4        1.0  0.8970622224318986  0.6458044089721329  0.1447651369880987  1.0000
  H   H5        1.0  0.0214288161465817  0.012659371481035504  0.6612363007292856  1.0000
  H   H6        1.0  0.9785812323020409  0.9873394727453899  0.3387598637408473  1.0000
  H   H7        1.0  0.9076956526822072  0.09828416936579028  0.7395661563404656  1.0000
  H   H8        1.0  0.09230493114790048  0.901709660828388  0.2604259269103436  1.0000
  H   H9        1.0  0.014016007922833789  0.1686407685552282  0.5084646358320839  1.0000
  H   H10       1.0  0.9859853386584732  0.8313606778865648  0.4915273214524162  1.0000
  H   H11       1.0  0.7804946349882727  0.22321162860530563  0.3781177434261735  1.0000
  H   H12       1.0  0.21950265009484576  0.7767948630179191  0.6218767013844226  1.0000
  H   H13       1.0  0.4011097804206684  0.22816443156042251  0.5541668212447559  1.0000
  H   H14       1.0  0.5988934619035148  0.7718394366272532  0.4458335066279914  1.0000
  H   H15       1.0  0.6369034931216787  0.1797223650098587  0.6832399122791912  1.0000
  H   H16       1.0  0.36310580204687437  0.8202739079556453  0.3167586789195837  1.0000
  H   H17       1.0  0.5186706887017678  0.11115332023787522  0.27315183530495796  1.0000
  H   H18       1.0  0.4813260920614509  0.88884675841814  0.7268475059531239  1.0000
  H   H19       1.0  0.2682087681160112  0.13183691426708316  0.14252948149740516  1.0000
  H   H20       1.0  0.7317879995129033  0.8681631552389178  0.8574705246324041  1.0000
  H   H21       1.0  0.04622962193848681  0.41810297991207795  0.3279428940413069  1.0000
  H   H22       1.0  0.9537729196428444  0.5818983536146974  0.672057201073194  1.0000
  H   H23       1.0  0.2961056251915933  0.3958667547170691  0.45991552662050583  1.0000
  H   H24       1.0  0.7039020516076275  0.604138389756315  0.5400840659958843  1.0000
  H   H25       1.0  0.9154354154689058  0.3842097366288115  0.16260436993568553  1.0000
  H   H26       1.0  0.08455994701112246  0.6157902993920743  0.8373981363116911  1.0000
  H   H27       1.0  0.03697043029276869  0.31351249448636054  0.08410592998480128  1.0000
  H   H28       1.0  0.9630209400237675  0.6864875966293269  0.9158927737959955  1.0000
  H   H29       1.0  0.8441327024885652  0.05055275775249161  0.9750902274523623  1.0000
  H   H30       1.0  0.1558564962647182  0.9494447194671453  0.024914068046371102  1.0000
  H   H31       1.0  0.5166482938726205  0.8412810331916489  0.1478722556387453  1.0000
  H   H32       1.0  0.4833469635329735  0.15871892962918116  0.8521355695824225  1.0000
  C   C1        1.0  0.40829994036377576  0.4220020988363373  0.7374616771383342  1.0000
  C   C2        1.0  0.5917059189067899  0.5779966632347708  0.26254065794105935  1.0000
  C   C3        1.0  0.1900169281266884  0.3617323007530758  0.8063235794018411  1.0000
  C   C4        1.0  0.809983874731806  0.6382627052714726  0.19367526894532008  1.0000
  C   C5        1.0  0.9745739189876372  0.12440889183001504  0.6832829801120608  1.0000
  C   C6        1.0  0.025429366402633508  0.8755899679710026  0.31671238751145836  1.0000
  C   C7        1.0  0.8399558608985771  0.16838015411867246  0.6043688880260517  1.0000
  C   C8        1.0  0.1600454105400786  0.8316162015863924  0.3956240928547245  1.0000
  C   C9        1.0  0.8792874429217791  0.18254719101441452  0.5180872956587805  1.0000
  C   C10       1.0  0.12071523000258823  0.8174542340124377  0.4819061507384886  1.0000
  C   C11       1.0  0.7474685362746597  0.21346727726224665  0.44485990903829986  1.0000
  C   C12       1.0  0.25253104165202694  0.7865328592139775  0.555135096856368  1.0000
  C   C13       1.0  0.5721763143372556  0.2296845257163653  0.455830466479071  1.0000
  C   C14       1.0  0.4278248877667038  0.7703168200753366  0.5441688043943883  1.0000
  C   C15       1.0  0.5358479760415519  0.21904154938070516  0.5430084917943246  1.0000
  C   C16       1.0  0.4641572970317256  0.7809597962162514  0.4569905923153782  1.0000
  C   C17       1.0  0.6683128239134675  0.18978632386774313  0.6162252483434613  1.0000
  C   C18       1.0  0.3316934908029623  0.8102137787338748  0.383771884141268  1.0000
  C   C19       1.0  0.42537270977602043  0.24911030442238064  0.3771274680932422  1.0000
  C   C20       1.0  0.5746295959794451  0.750894879960697  0.6228694924306879  1.0000
  C   C21       1.0  0.4151916443496545  0.1778032346266158  0.28613647810186643  1.0000
  C   C22       1.0  0.584808905885488  0.8222006489408997  0.7138628661605181  1.0000
  C   C23       1.0  0.27350589751842586  0.1903122895440461  0.2120448784794817  1.0000
  C   C24       1.0  0.7264918986193365  0.8096865278166021  0.7879538408970885  1.0000
  C   C25       1.0  0.1379751575827797  0.2754399031248127  0.22561038260813143  1.0000
  C   C26       1.0  0.8620219472832599  0.724561424561628  0.7743904047725251  1.0000
  C   C27       1.0  0.14828701453401286  0.3484267036176121  0.31590524496314737  1.0000
  C   C28       1.0  0.8517125108554564  0.6515733962585842  0.6840924204184161  1.0000
  C   C29       1.0  0.28945737941445054  0.33520531583056373  0.3905988467475367  1.0000
  C   C30       1.0  0.7105441599266342  0.6647972881415856  0.6094012053767627  1.0000
  C   C31       1.0  0.984019198519306  0.2856178837181248  0.14475844570485918  1.0000
  C   C32       1.0  0.015974837617662253  0.714382173717702  0.8552425714297555  1.0000
  C   C33       1.0  0.7875134373477549  0.021325460616211  0.033676249085367274  1.0000
  C   C34       1.0  0.2124744219281567  0.9786720288683526  0.9663272221723246  1.0000
  C   C35       1.0  0.6230842703657657  0.9214950167199021  0.12291880207390449  1.0000
  C   C36       1.0  0.37690148301840043  0.0784999046186599  0.8770869365431151  1.0000
  N   N1        1.0  0.35813825411847217  0.46739835278056313  0.8167382232445205  1.0000
  N   N2        1.0  0.6418628334399301  0.5325978748243968  0.18326406584038318  1.0000
  N   N3        1.0  0.280444714653612  0.29614008958898813  0.6790586145995332  1.0000
  N   N4        1.0  0.7195642133460253  0.7038599427327342  0.3209434907259022  1.0000
  N   N5        1.0  0.14316049231200617  0.26040518460383316  0.7238918082028005  1.0000
  N   N6        1.0  0.8568427405410474  0.7395936385971567  0.276106218907607  1.0000
  N   N7        1.0  0.8388650569387295  0.12634359073359042  0.1151300805140423  1.0000
  N   N8        1.0  0.1611289266610214  0.8736564301022013  0.8848735961074609  1.0000
  N   N9        1.0  0.7352839349967794  0.06482809510035989  0.17303424824027755  1.0000
  N   N10       1.0  0.264714053900768  0.9351718797906444  0.826972565976092  1.0000
  N   N11       1.0  0.6507496208280087  0.8884482663656073  0.036334853459443664  1.0000
  N   N12       1.0  0.349241906508574  0.1115479189937361  0.9636709741422606  1.0000
  N   N13       1.0  0.7532339521902714  0.4738091670371745  0.9820418161657896  1.0000
  N   N14       1.0  0.24676238626138766  0.5261895802383377  0.017962062815236393  1.0000
  N   N15       1.0  0.7827648503492879  0.37247130411729057  0.9276691693159264  1.0000
  N   N16       1.0  0.21723593204854544  0.6275337644306092  0.07233627517108228  1.0000
  N   N17       1.0  0.8126970255249049  0.2708523223251902  0.8746124470782917  1.0000
  N   N18       1.0  0.1873119119458622  0.7291527549832184  0.1253919590094839  1.0000
