data_image0
_chemical_formula_structural       Zr12H96C112O64
_chemical_formula_sum              "Zr12 H96 C112 O64"
_cell_length_a       17.563398645146208
_cell_length_b       19.68058941716461
_cell_length_c       27.691515021586127
_cell_angle_alpha    90.07467409914095
_cell_angle_beta     89.96088067897459
_cell_angle_gamma    89.95159913849851

_space_group_name_H-M_alt    "P 1"
_space_group_IT_number       1

loop_
  _space_group_symop_operation_xyz
  'x, y, z'

loop_
  _atom_site_type_symbol
  _atom_site_label
  _atom_site_symmetry_multiplicity
  _atom_site_fract_x
  _atom_site_fract_y
  _atom_site_fract_z
  _atom_site_occupancy
  Zr  Zr1       1.0  0.9014485010472059  0.08899461865838282  0.0046096275682075  1.0000
  Zr  Zr2       1.0  0.10503092014351981  0.0839199823809906  0.0045476390894592  1.0000
  Zr  Zr3       1.0  0.8957668242469197  0.9074982900460995  0.0039622711938918  1.0000
  Zr  Zr4       1.0  0.0990113486017847  0.9029041863211879  0.0037430347276342004  1.0000
  Zr  Zr5       1.0  0.0001375139561546001  0.9960481764603557  0.9147593974060726  1.0000
  Zr  Zr6       1.0  0.00014297875938499975  0.9956121500878016  0.0938045085140971  1.0000
  Zr  Zr7       1.0  0.4034039796215013  0.40245559159618693  0.504932762846451  1.0000
  Zr  Zr8       1.0  0.6067001553086728  0.4088981315574572  0.5041142041181388  1.0000
  Zr  Zr9       1.0  0.39566583934529126  0.5841626726026448  0.5045855495102742  1.0000
  Zr  Zr10      1.0  0.5982862014975439  0.5896390204986589  0.5047526279586805  1.0000
  Zr  Zr11      1.0  0.5004486984227938  0.4959456480958194  0.5942037035994829  1.0000
  Zr  Zr12      1.0  0.5004720532144448  0.4955660236983591  0.4148615536078282  1.0000
  H   H1        1.0  0.9992157575294415  0.13860405775709955  0.07534065974264341  1.0000
  H   H2        1.0  0.1599848194710276  0.992222612377958  0.933115918559217  1.0000
  H   H3        1.0  0.0015395319086764  0.8527543604755511  0.07455087788829931  1.0000
  H   H4        1.0  0.8412961726824976  0.996637195107091  0.9328448070184266  1.0000
  H   H5        1.0  0.2527552019497463  0.07885253622166033  0.9777950595748521  1.0000
  H   H6        1.0  0.2298880659413811  0.9861843324747427  0.0066778867007571  1.0000
  H   H7        1.0  0.0927061575865409  0.773529055776777  0.9777399572334672  1.0000
  H   H8        1.0  0.988005853943406  0.7904340740941292  0.0030434846859819006  1.0000
  H   H9        1.0  0.7518333436919704  0.9168623538632731  0.0330181858021561  1.0000
  H   H10       1.0  0.7702820486166005  0.008521288903679597  0.005476532003214599  1.0000
  H   H11       1.0  0.9105264925587094  0.21786146704076972  0.9769417723044497  1.0000
  H   H12       1.0  0.013751256981173302  0.2005465847392358  0.0029011094093079003  1.0000
  H   H13       1.0  0.909180183908511  0.7691044101190627  0.0313401365415586  1.0000
  H   H14       1.0  0.7479704931420698  0.0780170018156738  0.9753776150955602  1.0000
  H   H15       1.0  0.092694053396535  0.22044805687197314  0.031920117276556  1.0000
  H   H16       1.0  0.24234666343981098  0.9180527248728013  0.0391810214151604  1.0000
  H   H17       1.0  0.5006033420283345  0.35262649590531947  0.43395015163287814  1.0000
  H   H18       1.0  0.6608156585345313  0.5010717161655124  0.5751920361165546  1.0000
  H   H19       1.0  0.5014866976664294  0.6388975994806216  0.4337058684029529  1.0000
  H   H20       1.0  0.3397730879159724  0.4928588331180421  0.5753470568416859  1.0000
  H   H21       1.0  0.755037737895904  0.4155868529951618  0.5296641558656532  1.0000
  H   H22       1.0  0.7300733558602417  0.5079609461191766  0.5016430535551137  1.0000
  H   H23       1.0  0.5907989427128726  0.7188387856138336  0.530277471178664  1.0000
  H   H24       1.0  0.48644063853092223  0.7018563828723501  0.5044810928145793  1.0000
  H   H25       1.0  0.2507579263846011  0.5783681068968036  0.47758733697097  1.0000
  H   H26       1.0  0.2719143479995267  0.48309976428816265  0.5026189982165832  1.0000
  H   H27       1.0  0.4120932158770074  0.27309398242238814  0.5305410844675578  1.0000
  H   H28       1.0  0.515984459616391  0.29147739401837214  0.5056021987036772  1.0000
  H   H29       1.0  0.40809018630974236  0.7215775134668051  0.4753503084424723  1.0000
  H   H30       1.0  0.2596532952629076  0.41387095767586163  0.4708641783818095  1.0000
  H   H31       1.0  0.595951903923769  0.2716115403517918  0.4777780649029708  1.0000
  H   H32       1.0  0.7418614631567169  0.5767612600655739  0.4696139686289911  1.0000
  H   H33       1.0  0.31215052529071136  0.7356431120689635  0.1807772063142394  1.0000
  H   H34       1.0  0.2508254745996439  0.8007713324261303  0.1149559821469524  1.0000
  H   H35       1.0  0.0850355393546423  0.8784134964496744  0.2147973364960194  1.0000
  H   H36       1.0  0.14139127772172344  0.8090803982278916  0.2803257032259268  1.0000
  H   H37       1.0  0.2254609594487178  0.79097995358962  0.33294938573530425  1.0000
  H   H38       1.0  0.2811394514459239  0.7209239253157167  0.3980774841935215  1.0000
  H   H39       1.0  0.376496331247978  0.5850375305857797  0.29284254415360783  1.0000
  H   H40       1.0  0.31596462601851977  0.6512678350216277  0.22709126994564596  1.0000
  H   H41       1.0  0.8174585146268001  0.8369816063693775  0.280796002679125  1.0000
  H   H42       1.0  0.8785071725759722  0.9033949279188105  0.2152847303597838  1.0000
  H   H43       1.0  0.7775623581917088  0.7722026207597497  0.1092799440220631  1.0000
  H   H44       1.0  0.7209337425413836  0.7020156959929835  0.174122412141152  1.0000
  H   H45       1.0  0.637305890212808  0.6847130022310779  0.2280801449956869  1.0000
  H   H46       1.0  0.5814936641215098  0.6152307719968135  0.29381217682910693  1.0000
  H   H47       1.0  0.7533920603024884  0.686513815563096  0.3916231237670473  1.0000
  H   H48       1.0  0.8144154547108189  0.750971583678286  0.3254077537572684  1.0000
  H   H49       1.0  0.18888389074338366  0.23337371297747467  0.3305161941934358  1.0000
  H   H50       1.0  0.25193615294388394  0.29873186335063917  0.3955732511512551  1.0000
  H   H51       1.0  0.4113369176718892  0.37998943964812076  0.29331941492051067  1.0000
  H   H52       1.0  0.35340130058926894  0.3104546306626403  0.22842066007338963  1.0000
  H   H53       1.0  0.2683782372494292  0.29259381356748554  0.1774635380564291  1.0000
  H   H54       1.0  0.2135484109097234  0.2222399184664923  0.1120383125977895  1.0000
  H   H55       1.0  0.12256137769997374  0.08383399801293481  0.2167771877081464  1.0000
  H   H56       1.0  0.18280933607100996  0.15002533868409523  0.282716384752888  1.0000
  H   H57       1.0  0.1439994225114063  0.8069263303440339  0.7282660510204337  1.0000
  H   H58       1.0  0.08334184252458952  0.8735594720759396  0.7938999970886299  1.0000
  H   H59       1.0  0.2425922264152831  0.7919289742495438  0.8960154756972117  1.0000
  H   H60       1.0  0.3080851319627841  0.7292834239231355  0.8303901314070359  1.0000
  H   H61       1.0  0.23166623354225646  0.7915835292031019  0.6776267055973761  1.0000
  H   H62       1.0  0.2924497484892612  0.7247487352529662  0.6120645404662852  1.0000
  H   H63       1.0  0.38114101281370694  0.5845470996070858  0.7162980345012855  1.0000
  H   H64       1.0  0.316061799595623  0.6473386202840673  0.7820862373658386  1.0000
  H   H65       1.0  0.8341141572837714  0.16462234591491415  0.7268798765002344  1.0000
  H   H66       1.0  0.8970526624979911  0.1008544570467222  0.7929635039015749  1.0000
  H   H67       1.0  0.7735865461523304  0.21760053067073667  0.8980749626869553  1.0000
  H   H68       1.0  0.7127376690676428  0.28416322013222134  0.8327821019157824  1.0000
  H   H69       1.0  0.63021637377895  0.2928076179479575  0.7760329352264179  1.0000
  H   H70       1.0  0.5715545910391101  0.36085342504570417  0.7104874822742602  1.0000
  H   H71       1.0  0.7610323574697163  0.3155750354947956  0.6177798941420249  1.0000
  H   H72       1.0  0.8248025644661183  0.2542315625692667  0.6845463588314545  1.0000
  H   H73       1.0  0.8524172207670374  0.8139561301264493  0.7274277691770337  1.0000
  H   H74       1.0  0.9132055441653365  0.8805386100657201  0.7929058696249031  1.0000
  H   H75       1.0  0.7590175522824367  0.7943595351061816  0.8962295850378652  1.0000
  H   H76       1.0  0.6930210550180433  0.7316535840475922  0.8307231007474343  1.0000
  H   H77       1.0  0.6859599187021318  0.6501725418768062  0.781545266983798  1.0000
  H   H78       1.0  0.620488899342881  0.5876574107333711  0.7159004656312931  1.0000
  H   H79       1.0  0.7036174911679892  0.7315995132969704  0.6122568244576598  1.0000
  H   H80       1.0  0.7636684043317887  0.7982842194118478  0.6777361391302109  1.0000
  H   H81       1.0  0.6832621076997968  0.24862449057189914  0.1810748710600478  1.0000
  H   H82       1.0  0.7456513774012024  0.1831318358513059  0.1154313164843188  1.0000
  H   H83       1.0  0.9205091393132321  0.11912975982196632  0.2135597085981686  1.0000
  H   H84       1.0  0.8633247072760426  0.1893102901725214  0.2784829392914006  1.0000
  H   H85       1.0  0.7819375817610066  0.20569173237613123  0.33239860892923906  1.0000
  H   H86       1.0  0.7256246506075357  0.27602065142135507  0.3974308312650621  1.0000
  H   H87       1.0  0.6139353100431748  0.4004395442349349  0.2918728200077965  1.0000
  H   H88       1.0  0.6743338031893772  0.3340099747246086  0.2260584136446369  1.0000
  H   H89       1.0  0.14259345407030824  0.18140172151211686  0.7277460562154374  1.0000
  H   H90       1.0  0.0827692273978471  0.11495315812074135  0.793661972333716  1.0000
  H   H91       1.0  0.24661278593187325  0.1929259217133392  0.8943528563524552  1.0000
  H   H92       1.0  0.3117331730804338  0.25461252761199665  0.8282292119925145  1.0000
  H   H93       1.0  0.3168527524980718  0.3383848957573435  0.7813482532888614  1.0000
  H   H94       1.0  0.38217906478737257  0.40171465817246615  0.7160268061665107  1.0000
  H   H95       1.0  0.29158222463019  0.2636120840656133  0.6107807300192718  1.0000
  H   H96       1.0  0.23073565664748236  0.19632310302034037  0.6757377301837834  1.0000
  C   C1        1.0  0.8770620254972104  0.11572718454115719  0.888756691399962  1.0000
  C   C2        1.0  0.1281859612450518  0.10862131970888812  0.12085507639458369  1.0000
  C   C3        1.0  0.12410237109832419  0.11037484459345144  0.8875506049795446  1.0000
  C   C4        1.0  0.8732822103568764  0.1065370656057567  0.12137184791176739  1.0000
  C   C5        1.0  0.8695745694110926  0.8821159069128726  0.11941275723175691  1.0000
  C   C6        1.0  0.12117035620222082  0.876033232370425  0.8882225668061352  1.0000
  C   C7        1.0  0.1280257275811394  0.8842369239167739  0.1215588000547854  1.0000
  C   C8        1.0  0.8774191483463767  0.8810024792182389  0.8876665419949674  1.0000
  C   C9        1.0  0.38011774085959626  0.3756049664032801  0.6204430550587005  1.0000
  C   C10       1.0  0.6292838682021796  0.38267657611431366  0.3880410862516753  1.0000
  C   C11       1.0  0.6261580635921931  0.38225986025916825  0.6207358567813729  1.0000
  C   C12       1.0  0.37222683073560603  0.3843775996558705  0.38739820054021823  1.0000
  C   C13       1.0  0.36943947822898343  0.6084587222160565  0.3886812183772719  1.0000
  C   C14       1.0  0.6200665576849007  0.6163766930608148  0.6207539562482296  1.0000
  C   C15       1.0  0.627550095948358  0.6070132605450596  0.3864314636062858  1.0000
  C   C16       1.0  0.37793520930625135  0.6111343699541579  0.620887220122647  1.0000
  C   C17       1.0  0.1672007434171121  0.8082418290584029  0.2445077777615339  1.0000
  C   C18       1.0  0.23150795528965767  0.7671675282432986  0.23573484455221214  1.0000
  C   C19       1.0  0.26143040089293385  0.7657340936640225  0.1885180995520912  1.0000
  C   C20       1.0  0.22809856204163736  0.8030367104254523  0.15154784734631477  1.0000
  C   C21       1.0  0.1647757145174964  0.8443362076568305  0.1609378803601516  1.0000
  C   C22       1.0  0.13477244681787684  0.8467215290613129  0.20787652093072498  1.0000
  C   C23       1.0  0.26617427781980757  0.7265660158086932  0.274803046984637  1.0000
  C   C24       1.0  0.2570270110867909  0.7450749523683129  0.3236303100391353  1.0000
  C   C25       1.0  0.2889326689971838  0.7064130713379555  0.3604009697312094  1.0000
  C   C26       1.0  0.33255467172500636  0.6487169275527053  0.34952652872960505  1.0000
  C   C27       1.0  0.3426463922384785  0.630031973628526  0.3010508158622542  1.0000
  C   C28       1.0  0.3093383008920724  0.6679462536205849  0.2644198526804971  1.0000
  C   C29       1.0  0.7540750724900604  0.74689091207226  0.183649983139226  1.0000
  C   C30       1.0  0.7648828424325773  0.7639726952413213  0.23259006066356847  1.0000
  C   C31       1.0  0.809732095177047  0.8213759469593855  0.2433252200433387  1.0000
  C   C32       1.0  0.8433561999366294  0.8593530775230533  0.20687139552130418  1.0000
  C   C33       1.0  0.8319881982477284  0.841892747444767  0.1582974463341813  1.0000
  C   C34       1.0  0.7864557916100808  0.7855834618659686  0.1470578852146787  1.0000
  C   C35       1.0  0.7304152421080519  0.7231807088755462  0.2716005444849756  1.0000
  C   C36       1.0  0.6645252453242706  0.6840651970240686  0.2634611942423177  1.0000
  C   C37       1.0  0.6324078768786237  0.6455476091438686  0.3002244858689593  1.0000
  C   C38       1.0  0.6641710737541757  0.6462797643932277  0.3466950663215869  1.0000
  C   C39       1.0  0.7292104609283356  0.6855550936809466  0.3553968475003231  1.0000
  C   C40       1.0  0.7623814966007245  0.7225639986799592  0.31824399766339445  1.0000
  C   C41       1.0  0.3292103771574163  0.30892264422006827  0.2646709461228909  1.0000
  C   C42       1.0  0.26601049551425154  0.26693716553374003  0.2742090150291929  1.0000
  C   C43       1.0  0.238455879650367  0.2644416978090902  0.3219734345595029  1.0000
  C   C44       1.0  0.2727699700338917  0.3018608932844345  0.3585699070273378  1.0000
  C   C45       1.0  0.334749263485449  0.34430558479413526  0.3483712965001828  1.0000
  C   C46       1.0  0.3625478644411899  0.3475534296611045  0.30094112691259767  1.0000
  C   C47       1.0  0.2304427199097745  0.2265967395817015  0.2352796348481689  1.0000
  C   C48       1.0  0.2380529139964267  0.24603518098437857  0.1865660332234  1.0000
  C   C49       1.0  0.20643537508149729  0.20741003796248236  0.1496701639678122  1.0000
  C   C50       1.0  0.1643312821601626  0.14888104995150542  0.1603523981845143  1.0000
  C   C51       1.0  0.15533495341694703  0.1294342332095368  0.2087119202522913  1.0000
  C   C52       1.0  0.1884950014346671  0.1673222768278109  0.2454928700107928  1.0000
  C   C53       1.0  0.25768103023587224  0.7594192566921552  0.8220581964419509  1.0000
  C   C54       1.0  0.2310318659432298  0.7629711858188061  0.7741384293520781  1.0000
  C   C55       1.0  0.1671878523624173  0.8042875037313949  0.7647343233473194  1.0000
  C   C56       1.0  0.13220199644998593  0.8410941633724818  0.8014080213719552  1.0000
  C   C57       1.0  0.15883004515622196  0.8364458721565815  0.849024814704876  1.0000
  C   C58       1.0  0.2216933470368119  0.7948991948278208  0.8590241040129314  1.0000
  C   C59       1.0  0.2688033254263118  0.72453579891085  0.7350168727221771  1.0000
  C   C60       1.0  0.262955277506599  0.7454065333513711  0.6865055797727635  1.0000
  C   C61       1.0  0.2975284123976607  0.7087545969894367  0.6495763126022212  1.0000
  C   C62       1.0  0.3404531344563893  0.6506593323526602  0.6601882091994327  1.0000
  C   C63       1.0  0.3476633786247946  0.6297732742157792  0.7083504733756102  1.0000
  C   C64       1.0  0.311755202771991  0.6657493333872394  0.7450666356466797  1.0000
  C   C65       1.0  0.7521609138766011  0.24333894654611748  0.8235188905297335  1.0000
  C   C66       1.0  0.7687921345409381  0.22963480283370075  0.7746838940251237  1.0000
  C   C67       1.0  0.8214383323817885  0.1775456998590101  0.7643376811452286  1.0000
  C   C68       1.0  0.8564696947081601  0.14120245434978781  0.8011043478771498  1.0000
  C   C69       1.0  0.8394381289558055  0.155336612058008  0.8495946661076133  1.0000
  C   C70       1.0  0.7866629784509485  0.20663765753428012  0.8603783191092589  1.0000
  C   C71       1.0  0.7322933580478548  0.2685356724065926  0.7354355423750717  1.0000
  C   C72       1.0  0.6604883761523582  0.29920964327918403  0.7419339076718572  1.0000
  C   C73       1.0  0.6267583080001559  0.3366182517981997  0.7051764432883018  1.0000
  C   C74       1.0  0.6627314639548204  0.34242527085523733  0.6601565109569449  1.0000
  C   C75       1.0  0.7334187597840867  0.3110752245696347  0.6528748008918157  1.0000
  C   C76       1.0  0.768277472295111  0.27576674107903903  0.6902514003654332  1.0000
  C   C77       1.0  0.7423948076459226  0.7629156051194884  0.8221056782961398  1.0000
  C   C78       1.0  0.767663577475098  0.7677776642510211  0.7739223467181091  1.0000
  C   C79       1.0  0.8302380140924868  0.8103690918480523  0.7641223834132304  1.0000
  C   C80       1.0  0.8652836698545202  0.8471677684433061  0.8007041123344506  1.0000
  C   C81       1.0  0.839900361637959  0.8413246311920947  0.8485256571984507  1.0000
  C   C82       1.0  0.7784365016031244  0.79845232698262  0.8589642062781664  1.0000
  C   C83       1.0  0.7298248690540065  0.7293865056820154  0.7348667863958269  1.0000
  C   C84       1.0  0.6886869401001477  0.6695434330337238  0.7447149965740606  1.0000
  C   C85       1.0  0.6525747389015282  0.6337041129825921  0.7080492184362086  1.0000
  C   C86       1.0  0.6578855826477082  0.65570912727096  0.660014581321235  1.0000
  C   C87       1.0  0.6993565248325027  0.7147054992470744  0.649622924727197  1.0000
  C   C88       1.0  0.733924967931337  0.7513105130109282  0.6865209963546803  1.0000
  C   C89       1.0  0.8356697881258558  0.18688681763652681  0.24328873188139263  1.0000
  C   C90       1.0  0.7683357306855643  0.22402719586524708  0.23500970664345291  1.0000
  C   C91       1.0  0.7362027317252213  0.22159936521947537  0.1884194534182981  1.0000
  C   C92       1.0  0.7701710764781852  0.1843058507427244  0.1515695043568428  1.0000
  C   C93       1.0  0.836316727247315  0.1466081264808139  0.1606227503461781  1.0000
  C   C94       1.0  0.8686118567881635  0.14804831485579234  0.2069154577489627  1.0000
  C   C95       1.0  0.7328835384355018  0.2644519108134347  0.2740001551264584  1.0000
  C   C96       1.0  0.7463991075216683  0.24912120320583142  0.32294305337989465  1.0000
  C   C97       1.0  0.7141634839012311  0.2877878005579078  0.359681994283946  1.0000
  C   C98       1.0  0.665929582359162  0.34239664056842406  0.3487229895773254  1.0000
  C   C99       1.0  0.6513397904549976  0.3578519432339533  0.3001822024025387  1.0000
  C   C100      1.0  0.6847733451699014  0.3198504127583917  0.2635242105177937  1.0000
  C   C101      1.0  0.26042793199100345  0.22549521985470017  0.8203851365703727  1.0000
  C   C102      1.0  0.232002683759795  0.22319129754314568  0.7728493776047998  1.0000
  C   C103      1.0  0.1670369606981623  0.18312558050521235  0.7639295732344067  1.0000
  C   C104      1.0  0.13260482515272537  0.1463517256340126  0.8007739074720704  1.0000
  C   C105      1.0  0.1610105587308155  0.1498402450475282  0.8480327129565025  1.0000
  C   C106      1.0  0.22494107542633662  0.19020961378067372  0.8575269364982603  1.0000
  C   C107      1.0  0.2692595652027805  0.26194782857478316  0.7337544433746928  1.0000
  C   C108      1.0  0.31250713251068174  0.3204509746686597  0.7441720244000933  1.0000
  C   C109      1.0  0.348574051443137  0.35667176482545676  0.7077310278377524  1.0000
  C   C110      1.0  0.3413787488384514  0.3363235734964505  0.6593975384250825  1.0000
  C   C111      1.0  0.29749418044146125  0.2789234679851873  0.648420300895303  1.0000
  C   C112      1.0  0.26267744585863534  0.24198477389652606  0.6850472372055377  1.0000
  O   O1        1.0  0.8587334474720337  0.12995502790865027  0.9325746591713228  1.0000
  O   O2        1.0  0.9242414443221065  0.070042068117786  0.8758717113358544  1.0000
  O   O3        1.0  0.1440611122757645  0.1252078091536504  0.077373910922617  1.0000
  O   O4        1.0  0.0826405169098194  0.06134887293198692  0.1335304856396391  1.0000
  O   O5        1.0  0.14370622580004516  0.12339616918688989  0.9309319801788547  1.0000
  O   O6        1.0  0.0758847359511137  0.0651631961919534  0.8746570998972985  1.0000
  O   O7        1.0  0.8537097213950346  0.11873453833851497  0.0780203392943548  1.0000
  O   O8        1.0  0.9239161307591031  0.06336672619583791  0.1345656262543429  1.0000
  O   O9        1.0  0.9318886603072871  0.19432562273708956  0.0046763348486962  1.0000
  O   O10       1.0  0.773875831399167  0.0630297490715179  0.004504314170020499  1.0000
  O   O11       1.0  0.07486102527286678  0.19710672591585177  0.0030822128104262  1.0000
  O   O12       1.0  0.22362750013935082  0.06127944660705962  0.0048615028800114  1.0000
  O   O13       1.0  0.0023927443470129  0.07176961706289121  0.9666343745073435  1.0000
  O   O14       1.0  0.0008350176375416001  0.0985268439624178  0.05497298224879189  1.0000
  O   O15       1.0  0.8522442106183377  0.8673925101672495  0.07551520688675592  1.0000
  O   O16       1.0  0.9171448195658698  0.9272099276545871  0.1324514806316799  1.0000
  O   O17       1.0  0.138665817438401  0.8613156735589342  0.9319176794889118  1.0000
  O   O18       1.0  0.07462012340999281  0.9223267431686466  0.8752863824600183  1.0000
  O   O19       1.0  0.15011165806671303  0.8737950918931292  0.07818032926422798  1.0000
  O   O20       1.0  0.0753510857897481  0.9253566273974839  0.1342852122563372  1.0000
  O   O21       1.0  0.8604080131060243  0.8666757664638923  0.9311854273194484  1.0000
  O   O22       1.0  0.9236253873516561  0.9277532458853128  0.8743372454587118  1.0000
  O   O23       1.0  0.9271851832416687  0.7937665337974238  0.003163122390383  1.0000
  O   O24       1.0  0.7777653781854141  0.935280829828088  0.004891537396126499  1.0000
  O   O25       1.0  0.0707588725608801  0.7972694354103852  0.0052793190532938  1.0000
  O   O26       1.0  0.22569681723985724  0.9323867383242689  0.0071704842249858  1.0000
  O   O27       1.0  0.9995651591097642  0.8928635453915064  0.0542927919116423  1.0000
  O   O28       1.0  0.9984834256453611  0.9204572455436164  0.9664369769050437  1.0000
  O   O29       1.0  0.916228206722984  0.9966036087042554  0.0417712583384287  1.0000
  O   O30       1.0  0.1155402666407781  0.9925497264148221  0.9538950677674691  1.0000
  O   O31       1.0  0.8851379805595059  0.9980968903219319  0.9540687353055333  1.0000
  O   O32       1.0  0.08526335448264183  0.9953273939789893  0.04208667241254461  1.0000
  O   O33       1.0  0.36529817950398075  0.35948201250172923  0.576638247610596  1.0000
  O   O34       1.0  0.4251359088775076  0.42290427068527947  0.6336904785507116  1.0000
  O   O35       1.0  0.6456124541578063  0.36691842653649326  0.4316359842043553  1.0000
  O   O36       1.0  0.5827964658744165  0.42927667572865164  0.3752758038446943  1.0000
  O   O37       1.0  0.6471314397038483  0.37033961619079037  0.5774090538525272  1.0000
  O   O38       1.0  0.5767939500201037  0.4263921399242323  0.6337834867470562  1.0000
  O   O39       1.0  0.3514642612660026  0.3734715428201838  0.4309652798155597  1.0000
  O   O40       1.0  0.42389179923156933  0.42623639486700443  0.3743587375409518  1.0000
  O   O41       1.0  0.4334343205067627  0.29697335521922236  0.5029335851488526  1.0000
  O   O42       1.0  0.2762081695706016  0.4292223390489128  0.5026879343612976  1.0000
  O   O43       1.0  0.5768410206444089  0.29549959899961925  0.5060876606316427  1.0000
  O   O44       1.0  0.7249197792205138  0.4331657004932978  0.5030570306769278  1.0000
  O   O45       1.0  0.5041316763525359  0.4203973762567515  0.542345771806751  1.0000
  O   O46       1.0  0.5014965545894442  0.39309918393086474  0.4539415300451424  1.0000
  O   O47       1.0  0.35212070517401634  0.6237752680188252  0.4324488496048673  1.0000
  O   O48       1.0  0.4165562581243947  0.562681773846819  0.3759045532175662  1.0000
  O   O49       1.0  0.6354336467790985  0.6326997657108537  0.5770394877733551  1.0000
  O   O50       1.0  0.5754066371178795  0.5686258347699821  0.6337194344396693  1.0000
  O   O51       1.0  0.6495001398376985  0.6181917196717422  0.4296931197754787  1.0000
  O   O52       1.0  0.5749272788768067  0.5656867684320944  0.3740132358573689  1.0000
  O   O53       1.0  0.36232711180824145  0.6265048391933521  0.5773787698826851  1.0000
  O   O54       1.0  0.4230537698317748  0.5634502080182459  0.6341477899394121  1.0000
  O   O55       1.0  0.4257542648844392  0.6983893129693542  0.50424351836989  1.0000
  O   O56       1.0  0.2782372896130597  0.5579306331934363  0.5043643309344148  1.0000
  O   O57       1.0  0.5695890771436396  0.6950754366257287  0.5025496031373463  1.0000
  O   O58       1.0  0.7251322035219374  0.5618647814907975  0.5014951260504148  1.0000
  O   O59       1.0  0.4992523387899724  0.5988521039573842  0.45401453452571167  1.0000
  O   O60       1.0  0.49811739271113725  0.5710698017156234  0.5421781849845572  1.0000
  O   O61       1.0  0.41733966679174034  0.4949517606392675  0.4670807931772387  1.0000
  O   O62       1.0  0.6162011969484739  0.5004817570224915  0.5546076782813714  1.0000
  O   O63       1.0  0.38418222863960955  0.49277295323778253  0.5544629044011486  1.0000
  O   O64       1.0  0.5856796796072103  0.49687969245827895  0.4663712014636516  1.0000
