data_image0
_chemical_formula_structural       Tb4H76C108O32
_chemical_formula_sum              "Tb4 H76 C108 O32"
_cell_length_a       13.785703890820423
_cell_length_b       13.500324814043928
_cell_length_c       22.141795532412477
_cell_angle_alpha    107.75802960422031
_cell_angle_beta     102.00591505193088
_cell_angle_gamma    89.98611639375736

_space_group_name_H-M_alt    "P 1"
_space_group_IT_number       1

loop_
  _space_group_symop_operation_xyz
  'x, y, z'

loop_
  _atom_site_type_symbol
  _atom_site_label
  _atom_site_symmetry_multiplicity
  _atom_site_fract_x
  _atom_site_fract_y
  _atom_site_fract_z
  _atom_site_occupancy
  Tb  Tb1       1.0  0.9529836633972905  0.9988187337933213  0.4099475278404298  1.0000
  Tb  Tb2       1.0  0.5469831540271952  0.5888792305668389  0.5900907920690556  1.0000
  Tb  Tb3       1.0  0.04702054116013699  0.0011780312042759616  0.5900647562431587  1.0000
  Tb  Tb4       1.0  0.4530068917358392  0.4111027898431558  0.40989874270336907  1.0000
  H   H1        1.0  0.08040756607605459  0.27760544025469613  0.6334422946528377  1.0000
  H   H2        1.0  0.4197362065073874  0.6442595643504703  0.3664227642409798  1.0000
  H   H3        1.0  0.9195972552968995  0.7224046583971245  0.36656009528185507  1.0000
  H   H4        1.0  0.5802682664782138  0.3557462291550309  0.6335716319495788  1.0000
  H   H5        1.0  0.3055958399862532  0.5160286773341626  0.6542481683849672  1.0000
  H   H6        1.0  0.1942845419979093  0.8617762259933457  0.3457895654791726  1.0000
  H   H7        1.0  0.6944047829565675  0.4839794415141726  0.3457461911739159  1.0000
  H   H8        1.0  0.8057019216650191  0.13820380442700037  0.6542094519722923  1.0000
  H   H9        1.0  0.19259912486095485  0.2893070833122379  0.46799019669903424  1.0000
  H   H10       1.0  0.3075965380249598  0.8214097731991715  0.5320084161883115  1.0000
  H   H11       1.0  0.8073786702515591  0.7106924959993393  0.5320178904214714  1.0000
  H   H12       1.0  0.6923925154605611  0.17857358057015188  0.46798850583382995  1.0000
  H   H13       1.0  0.1521317145197258  0.3052904710056977  0.7379020416795399  1.0000
  H   H14       1.0  0.34837897940925444  0.5677285265112106  0.2620428824379886  1.0000
  H   H15       1.0  0.8478774242919654  0.694712181661025  0.2621022660453959  1.0000
  H   H16       1.0  0.6516134284266784  0.432262233972608  0.737946011333591  1.0000
  H   H17       1.0  0.1299295938050804  0.38566510755337896  0.848134465383481  1.0000
  H   H18       1.0  0.3707165051979047  0.5381139831829956  0.15191318025191689  1.0000
  H   H19       1.0  0.8700653931590949  0.6143354849854462  0.15186703786022085  1.0000
  H   H20       1.0  0.6292888693726011  0.46189743056804383  0.8480783006498668  1.0000
  H   H21       1.0  0.19846328099427515  0.6893541657480712  0.8350229355923204  1.0000
  H   H22       1.0  0.3014170380577923  0.8548225266869384  0.1650486562570776  1.0000
  H   H23       1.0  0.8015363098657388  0.3106568327508158  0.1649795520149482  1.0000
  H   H24       1.0  0.6985994200400965  0.14519446627636498  0.8349566581085952  1.0000
  H   H25       1.0  0.21879506464087936  0.6088089591734942  0.7243199959076776  1.0000
  H   H26       1.0  0.28100600116142255  0.8847619609605177  0.2757632023386661  1.0000
  H   H27       1.0  0.7812182615384629  0.39120167355052626  0.2756875082083283  1.0000
  H   H28       1.0  0.7190010329039608  0.11524270193137194  0.7242346732059914  1.0000
  H   H29       1.0  0.138381949168803  0.45314661079223134  0.9435788978655567  1.0000
  H   H30       1.0  0.3622158951381991  0.5103375166239559  0.05649943560118934  1.0000
  H   H31       1.0  0.861610003982257  0.5468645569711512  0.05642068514205783  1.0000
  H   H32       1.0  0.6378078399579151  0.4896623629747906  0.9434999337632843  1.0000
  H   H33       1.0  0.09651954359259918  0.5344686199625954  0.047861825562385656  1.0000
  H   H34       1.0  0.4041826721972157  0.48757266707442437  0.9522899398087857  1.0000
  H   H35       1.0  0.9035033313725052  0.4655453799905089  0.9521474547020432  1.0000
  H   H36       1.0  0.5958256286475461  0.5124363839017718  0.04771829808894519  1.0000
  H   H37       1.0  0.09405214802441007  0.8317957575792931  0.012549829251234648  1.0000
  H   H38       1.0  0.4064483923397972  0.8202167707035882  0.9877859787278495  1.0000
  H   H39       1.0  0.9059510815285705  0.16820800807910544  0.9874555431243692  1.0000
  H   H40       1.0  0.5935231435171742  0.1797626080249302  0.012191794192695168  1.0000
  H   H41       1.0  0.1296733306743647  0.7493989647608358  0.9069683387438799  1.0000
  H   H42       1.0  0.3707538177109768  0.8432586630112058  0.09334312995878948  1.0000
  H   H43       1.0  0.870311925323854  0.2506047331601451  0.09302472754585267  1.0000
  H   H44       1.0  0.6292356474117113  0.15674050600723885  0.9066432618053141  1.0000
  H   H45       1.0  0.09126482177980218  0.6089649176494234  0.14003517840168903  1.0000
  H   H46       1.0  0.40851236763334237  0.47001769069164817  0.8602203421215293  1.0000
  H   H47       1.0  0.9086850114854172  0.39102694900790885  0.8599592388600996  1.0000
  H   H48       1.0  0.5914625454743997  0.5299623896109082  0.13978249959366446  1.0000
  H   H49       1.0  0.0455966863475794  0.6947019551614986  0.24447139132213636  1.0000
  H   H50       1.0  0.45425223503932693  0.4509453881650955  0.7556866609237075  1.0000
  H   H51       1.0  0.9543573002442187  0.3053020400219494  0.7555195886940567  1.0000
  H   H52       1.0  0.5457230433215655  0.5490398776703032  0.2443059853883795  1.0000
  H   H53       1.0  0.9980881154972607  0.9757422591131188  0.19328246362093887  1.0000
  H   H54       1.0  0.5027912906174378  0.7830610075306905  0.8069786025085718  1.0000
  H   H55       1.0  0.0019802919651183927  0.024312651952868705  0.8067362336476549  1.0000
  H   H56       1.0  0.49723097040639885  0.21690447407850402  0.19302161483924607  1.0000
  H   H57       1.0  0.037269469926314976  0.8898790328294697  0.08682551493092909  1.0000
  H   H58       1.0  0.4636594466653321  0.8040919218235274  0.913370668549284  1.0000
  H   H59       1.0  0.9628230198027977  0.11017402767249261  0.9131967856207056  1.0000
  H   H60       1.0  0.5363601462058014  0.19589410745801675  0.08662132334887926  1.0000
  H   H61       1.0  0.8806315809042927  0.09412187825117259  0.3186310773329879  1.0000
  H   H62       1.0  0.6198072904801464  0.7756003715483716  0.6812607301330259  1.0000
  H   H63       1.0  0.11939043144712261  0.9058732421039367  0.6813804213907771  1.0000
  H   H64       1.0  0.38020292637155234  0.2244031050377727  0.3187390488473624  1.0000
  H   H65       1.0  0.8888250876247454  0.18571110913287475  0.3823980475087083  1.0000
  H   H66       1.0  0.6113983921612062  0.8030911155333554  0.6173716933059623  1.0000
  H   H67       1.0  0.11117893966304844  0.8142808783609683  0.6176080696515526  1.0000
  H   H68       1.0  0.38858881429229086  0.19690764644369813  0.3826234378926401  1.0000
  H   H69       1.0  0.7810256162868895  0.8381802307192957  0.3587028860520291  1.0000
  H   H70       1.0  0.7188154859860987  0.4790512940285653  0.6412624462231874  1.0000
  H   H71       1.0  0.218961140004609  0.1618250407387476  0.6412917137269573  1.0000
  H   H72       1.0  0.28114923941495806  0.5209262251296565  0.35873102117467676  1.0000
  H   H73       1.0  0.7500733400762413  0.9514840265783633  0.38875116482835637  1.0000
  H   H74       1.0  0.7498251426516588  0.5621962872369296  0.6112070839785915  1.0000
  H   H75       1.0  0.24991711278153864  0.04852556764795674  0.6112468846899972  1.0000
  H   H76       1.0  0.25015465421072486  0.4377977357319908  0.3888032270780712  1.0000
  C   C1        1.0  0.06398016245113777  0.18231056669506526  0.5048520468780211  1.0000
  C   C2        1.0  0.43620973537575475  0.6775457126448643  0.49510521369698773  1.0000
  C   C3        1.0  0.9360122974743419  0.8176870079885533  0.49515261064825467  1.0000
  C   C4        1.0  0.563769369642067  0.3224305891477782  0.5048817794053093  1.0000
  C   C5        1.0  0.1313122662443718  0.2739993410711961  0.5472011910759562  1.0000
  C   C6        1.0  0.3689962776381606  0.7269842777375076  0.45276574956514537  1.0000
  C   C7        1.0  0.8686891831369579  0.725997175112454  0.45280398718080755  1.0000
  C   C8        1.0  0.6309839783928408  0.272971161690556  0.5472383002964705  1.0000
  C   C9        1.0  0.13147189418596378  0.31390882840857154  0.6135279261659505  1.0000
  C   C10       1.0  0.3687113657362673  0.7005131748604398  0.38640533598613297  1.0000
  C   C11       1.0  0.8685281181127917  0.686093345878085  0.3864728432960333  1.0000
  C   C12       1.0  0.6312709803288853  0.29947614391880234  0.613595840060796  1.0000
  C   C13       1.0  0.19219995090543307  0.40344467971402775  0.6531952913944181  1.0000
  C   C14       1.0  0.30794362069443076  0.7504579764195402  0.3467984892702346  1.0000
  C   C15       1.0  0.8077935304476327  0.5965608024877866  0.3468002942882719  1.0000
  C   C16       1.0  0.6920560895814489  0.24954838320569914  0.6532017759410067  1.0000
  C   C17       1.0  0.255095174984433  0.4486153369684943  0.6249503709770678  1.0000
  C   C18       1.0  0.24493079109920046  0.8237229453414232  0.375068655820442  1.0000
  C   C19       1.0  0.7449093267244249  0.5513927712682403  0.3750462747784055  1.0000
  C   C20       1.0  0.7550730146103672  0.17628184796981117  0.6249354315224949  1.0000
  C   C21       1.0  0.2561853420233646  0.4075972280732285  0.5589325032498421  1.0000
  C   C22       1.0  0.24390473122377895  0.8487306510312893  0.441091757741546  1.0000
  C   C23       1.0  0.7438134986528269  0.5923732890315847  0.4410656842874444  1.0000
  C   C24       1.0  0.7560997129994647  0.15126854928025324  0.5589160375807509  1.0000
  C   C25       1.0  0.1929931907060976  0.320935558087335  0.5195434105449976  1.0000
  C   C26       1.0  0.3072527925545572  0.8015396476866742  0.4804561484136087  1.0000
  C   C27       1.0  0.8070047672677488  0.6790520145017924  0.4804667784298715  1.0000
  C   C28       1.0  0.6927185483133371  0.19842022085897076  0.5195415150484024  1.0000
  C   C29       1.0  0.3274351903832055  0.45526650122258877  0.5311827152825046  1.0000
  C   C30       1.0  0.17257841214261296  0.9239526680749537  0.4688265827207516  1.0000
  C   C31       1.0  0.6725614955129942  0.5447252857136463  0.4688049029192102  1.0000
  C   C32       1.0  0.8274174866153031  0.07603369216300843  0.5311847075364682  1.0000
  C   C33       1.0  0.18627917304903718  0.4506783898016239  0.7218299067682921  1.0000
  C   C34       1.0  0.3138759103018883  0.7291652261844562  0.2781789290128102  1.0000
  C   C35       1.0  0.8137091180036362  0.5493312328709692  0.27816892597784454  1.0000
  C   C36       1.0  0.6861224937770274  0.2708409393312651  0.721823429181903  1.0000
  C   C37       1.0  0.16316569649885077  0.3898100599990144  0.7589729396827991  1.0000
  C   C38       1.0  0.3371694026050207  0.6312202706753568  0.24100890493383528  1.0000
  C   C39       1.0  0.8368201524630976  0.6101891282672441  0.24102412547199484  1.0000
  C   C40       1.0  0.6628398905172544  0.36878744694149646  0.7589919457141789  1.0000
  C   C41       1.0  0.15061076943036503  0.43588449660947504  0.8219780113588655  1.0000
  C   C42       1.0  0.3498034511667996  0.6144421410465526  0.17804909342819283  1.0000
  C   C43       1.0  0.8493864876727384  0.5641152896318787  0.17802347662461665  1.0000
  C   C44       1.0  0.6502007202031874  0.38557262471247367  0.8219486887011769  1.0000
  C   C45       1.0  0.1596162133386443  0.5448098397912702  0.8509293447722115  1.0000
  C   C46       1.0  0.34077093002223785  0.6945205022020318  0.1491950676668168  1.0000
  C   C47       1.0  0.8403904612377955  0.4551922397453795  0.14907135174021843  1.0000
  C   C48       1.0  0.6592346033426111  0.30547780023784527  0.8507973841990334  1.0000
  C   C49       1.0  0.18689210824484798  0.6049321164190856  0.8143111502300399  1.0000
  C   C50       1.0  0.31317772336694827  0.7911411059794278  0.18577114371496606  1.0000
  C   C51       1.0  0.8131167457779114  0.39507611042495944  0.185694002983098  1.0000
  C   C52       1.0  0.6868322997956962  0.2088657780941075  0.8142288989822432  1.0000
  C   C53       1.0  0.19973810535086758  0.5592252957271883  0.7514440102013751  1.0000
  C   C54       1.0  0.300190009126652  0.8081140056664395  0.24859469670969495  1.0000
  C   C55       1.0  0.8002594833324536  0.4407843329680504  0.2485601876285131  1.0000
  C   C56       1.0  0.6998112404137159  0.1918806681434119  0.7514064051613616  1.0000
  C   C57       1.0  0.13788471463443838  0.5938598135658354  0.91569817949064  1.0000
  C   C58       1.0  0.36259007198329113  0.6789208471880104  0.08450141536529535  1.0000
  C   C59       1.0  0.8621166962025056  0.40615688811656986  0.08430376143679294  1.0000
  C   C60       1.0  0.6374167856269892  0.321088612029996  0.9154980736351277  1.0000
  C   C61       1.0  0.12769766496683127  0.5363990990213311  0.9577576532270342  1.0000
  C   C62       1.0  0.37292311251464116  0.5794834515698285  0.04241117857408474  1.0000
  C   C63       1.0  0.8723102989798831  0.463606572701032  0.04224349075252574  1.0000
  C   C64       1.0  0.6270948963370343  0.4205227814705878  0.9575958722773663  1.0000
  C   C65       1.0  0.1046297640626506  0.5832396216042782  0.017836175309376767  1.0000
  C   C66       1.0  0.3959732629983747  0.5663371195137971  0.9823535296603582  1.0000
  C   C67       1.0  0.8953703574040188  0.4167734878924206  0.9821653181509262  1.0000
  C   C68       1.0  0.6040323401167951  0.4336763121109186  0.01765210154036365  1.0000
  C   C69       1.0  0.09134638693811326  0.6907175524176739  0.039999599676690305  1.0000
  C   C70       1.0  0.4091269342237069  0.6516904513283635  0.9602229694383054  1.0000
  C   C71       1.0  0.9086553497343954  0.3093085287723767  0.960004601184167  1.0000
  C   C72       1.0  0.5908746686536901  0.34830155597554574  0.039770971362450794  1.0000
  C   C73       1.0  0.10229191310859417  0.7481096517157442  0.9980305233665376  1.0000
  C   C74       1.0  0.3981946935112929  0.7509906014407265  0.0022677430794500885  1.0000
  C   C75       1.0  0.8977057896727628  0.2519018013059053  0.0019670679955651653  1.0000
  C   C76       1.0  0.6018034754442354  0.24900137019384513  0.9977200588725806  1.0000
  C   C77       1.0  0.1241117842798403  0.7011901094858858  0.9377670030826124  1.0000
  C   C78       1.0  0.3763828155148586  0.7642454652842263  0.06252304481315453  1.0000
  C   C79       1.0  0.8758924732598956  0.29883160046682633  0.06223752774148038  1.0000
  C   C80       1.0  0.6236160502544762  0.2357593951057168  0.9374650959304915  1.0000
  C   C81       1.0  0.06674872254649959  0.741407620763063  0.10378530949520832  1.0000
  C   C82       1.0  0.4336128787194368  0.6386779523995969  0.896440777080805  1.0000
  C   C83       1.0  0.9332577357695512  0.2586008013909193  0.8962177412716557  1.0000
  C   C84       1.0  0.5663873884036617  0.3612998330023275  0.10355305110775244  1.0000
  C   C85       1.0  0.06882486296376558  0.6886879257221781  0.15003639212877562  1.0000
  C   C86       1.0  0.4311906554061693  0.5396128858583893  0.8501903262488  1.0000
  C   C87       1.0  0.9311617619957457  0.3113141325707288  0.8499634643790585  1.0000
  C   C88       1.0  0.5687901095333457  0.4603635912213947  0.14979912733759448  1.0000
  C   C89       1.0  0.0441113830155331  0.736876923331927  0.2094646316275471  1.0000
  C   C90       1.0  0.4558714778567817  0.5281375090036848  0.7907272059667605  1.0000
  C   C91       1.0  0.9558800739967666  0.26313491111112336  0.790538645004922  1.0000
  C   C92       1.0  0.5441083682638848  0.47183195899182107  0.20926381316947124  1.0000
  C   C93       1.0  0.01740275593611067  0.8403764165216075  0.2253220522128955  1.0000
  C   C94       1.0  0.4828598368060211  0.6156869559327091  0.7748819635792472  1.0000
  C   C95       1.0  0.9826270341103935  0.15966213677904761  0.7746913025765138  1.0000
  C   C96       1.0  0.5171239118933639  0.3842960662974164  0.22511309743625665  1.0000
  C   C97       1.0  0.017447137346124488  0.8948007839648542  0.18055694311954795  1.0000
  C   C98       1.0  0.48310685473561665  0.7149005962865614  0.819641084290012  1.0000
  C   C99       1.0  0.9826284564218637  0.10524396734145103  0.8194602811087748  1.0000
  C   C100      1.0  0.5168824256850684  0.2850677669280373  0.18034660292456547  1.0000
  C   C101      1.0  0.040568802826925286  0.8458408791602993  0.12090973353141261  1.0000
  C   C102      1.0  0.46005414210516443  0.7258762006027126  0.8793248038694229  1.0000
  C   C103      1.0  0.9594784806673002  0.1541875758827161  0.8791014757907051  1.0000
  C   C104      1.0  0.5399499701501539  0.2741105095713721  0.12066856706859849  1.0000
  C   C105      1.0  0.9881602439664973  0.8925037216516502  0.2877153243031002  1.0000
  C   C106      1.0  0.5120179509881523  0.6051918897329784  0.7124245886215306  1.0000
  C   C107      1.0  0.01186269504339778  0.1075292230027642  0.7122910366865653  1.0000
  C   C108      1.0  0.4879670571169186  0.3947759099754506  0.28756482407588624  1.0000
  O   O1        1.0  0.8517547876812586  0.11927309768075396  0.3571498090328902  1.0000
  O   O2        1.0  0.6484364977511561  0.7618734980285995  0.6426300403995668  1.0000
  O   O3        1.0  0.14825684859223284  0.8807164058173527  0.6428569631621173  1.0000
  O   O4        1.0  0.3515527675110021  0.238121689384684  0.35736009932714546  1.0000
  O   O5        1.0  0.7855298416907388  0.9093087409958758  0.35683662906619407  1.0000
  O   O6        1.0  0.7142988464533246  0.5520326085421985  0.6431012412485444  1.0000
  O   O7        1.0  0.2144668856397871  0.09070064730889987  0.6431658090950236  1.0000
  O   O8        1.0  0.2856756792763093  0.4479542867351257  0.35690212790028397  1.0000
  O   O9        1.0  0.032992333056036195  0.17148874272195513  0.4448997868249478  1.0000
  O   O10       1.0  0.467067202508879  0.7265736890543338  0.5550962162331458  1.0000
  O   O11       1.0  0.9669948618690397  0.8285048148998798  0.5551100932443375  1.0000
  O   O12       1.0  0.5329356380369318  0.2734177439190688  0.4448941228179137  1.0000
  O   O13       1.0  0.038208906007348296  0.11398306699020803  0.5292247008481751  1.0000
  O   O14       1.0  0.4618702251097701  0.5847644732503667  0.4707372651616594  1.0000
  O   O15       1.0  0.9618056697174208  0.8860305649793858  0.47079181588195235  1.0000
  O   O16       1.0  0.5381354100101632  0.4152208753308315  0.5292555487280026  1.0000
  O   O17       1.0  0.3305363156226022  0.4109779519827725  0.47168615573720973  1.0000
  O   O18       1.0  0.16942670030059043  0.9391449661484546  0.5283116427507365  1.0000
  O   O19       1.0  0.6694377989749183  0.5890086111171796  0.5282925121175949  1.0000
  O   O20       1.0  0.8305776219849718  0.06082159462165736  0.4717063312236078  1.0000
  O   O21       1.0  0.380944629676307  0.5356637779620642  0.5687587897282995  1.0000
  O   O22       1.0  0.1190169790994844  0.9667059820534973  0.4312171711317345  1.0000
  O   O23       1.0  0.6190480921377384  0.46433492768468915  0.4312119252645558  1.0000
  O   O24       1.0  0.8809729139428908  0.03328584260339782  0.5688070301724294  1.0000
  O   O25       1.0  0.9795425637566593  0.9916612583192761  0.3047049039986262  1.0000
  O   O26       1.0  0.5208881185562149  0.6872935737489101  0.6954298287861818  1.0000
  O   O27       1.0  0.020507886104454094  0.008374195409139392  0.6953146393993777  1.0000
  O   O28       1.0  0.4791245883640371  0.3126750038312593  0.3045642283414479  1.0000
  O   O29       1.0  0.9723327802006094  0.840199774379407  0.3244667902022299  1.0000
  O   O30       1.0  0.52738692404359  0.5159804020064483  0.6756342112531967  1.0000
  O   O31       1.0  0.027655842451842695  0.15982182997844055  0.6755269280419967  1.0000
  O   O32       1.0  0.4725815024466158  0.4839875421214757  0.32435148522837653  1.0000
