data_image0
_chemical_formula_structural       Lu2H36C30N8O16
_chemical_formula_sum              "Lu2 H36 C30 N8 O16"
_cell_length_a       8.256479953205746
_cell_length_b       10.25664522667013
_cell_length_c       11.438945226785899
_cell_angle_alpha    113.82534221091021
_cell_angle_beta     100.53958591701206
_cell_angle_gamma    98.72149887555253

_space_group_name_H-M_alt    "P 1"
_space_group_IT_number       1

loop_
  _space_group_symop_operation_xyz
  'x, y, z'

loop_
  _atom_site_type_symbol
  _atom_site_label
  _atom_site_symmetry_multiplicity
  _atom_site_fract_x
  _atom_site_fract_y
  _atom_site_fract_z
  _atom_site_occupancy
  Lu  Lu1       1.0  0.8657149486264046  0.09583301490705762  0.1588930075038135  1.0000
  Lu  Lu2       1.0  0.1342872790099393  0.9041601097055294  0.8411037238381096  1.0000
  H   H1        1.0  0.5912703053204567  0.9949732926257014  0.9057815211050337  1.0000
  H   H2        1.0  0.40873165975122555  0.0050363374058903995  0.09421771514247006  1.0000
  H   H3        1.0  0.7413976501726366  0.920348301766886  0.8699858443048851  1.0000
  H   H4        1.0  0.25860618933401003  0.07966793623823781  0.13001516908848737  1.0000
  H   H5        1.0  0.8687974089890176  0.9281440189165054  0.6001237189667775  1.0000
  H   H6        1.0  0.13118620409578338  0.07184906282866171  0.3998610430221703  1.0000
  H   H7        1.0  0.8851836707299724  0.9410883243960767  0.4581846469492206  1.0000
  H   H8        1.0  0.1148193400695732  0.058908135396940516  0.5418002884835004  1.0000
  H   H9        1.0  0.10768537590098501  0.6840862090886547  0.33405330233257047  1.0000
  H   H10       1.0  0.8923208343427902  0.3159200841426824  0.66596622872229  1.0000
  H   H11       1.0  0.03669058091617935  0.8084643547262474  0.28734191282968163  1.0000
  H   H12       1.0  0.9633033392691888  0.19152983765735607  0.7126550401939652  1.0000
  H   H13       1.0  0.09666500877222013  0.5319641501128132  0.44209037581446603  1.0000
  H   H14       1.0  0.9033166585527468  0.4680387903546617  0.5579108601878744  1.0000
  H   H15       1.0  0.20988906444974023  0.7091671390442472  0.5515123842327226  1.0000
  H   H16       1.0  0.7901081515430806  0.2908171753883266  0.4484778739309404  1.0000
  H   H17       1.0  0.34669257326571307  0.0062881766117968  0.29676566531726667  1.0000
  H   H18       1.0  0.653320883494004  0.9936697278126585  0.7032458256408912  1.0000
  H   H19       1.0  0.9397575975916792  0.5684641479403326  0.8166472251316603  1.0000
  H   H20       1.0  0.06023953417396653  0.4315422045969869  0.1833344695647909  1.0000
  H   H21       1.0  0.4797667690236693  0.2358916706678258  0.3708267807690858  1.0000
  H   H22       1.0  0.5202280185777256  0.7641355047199314  0.629188460386608  1.0000
  H   H23       1.0  0.8284743252491893  0.4674542650543359  0.2917075510329923  1.0000
  H   H24       1.0  0.1715316664385895  0.5325608808512925  0.7082933332564068  1.0000
  H   H25       1.0  0.5738897376327118  0.6565106023196492  0.18882361416852692  1.0000
  H   H26       1.0  0.4260954235751129  0.3434956327195309  0.8111862590233229  1.0000
  H   H27       1.0  0.7392802094767605  0.6638273432518248  0.31692230789589354  1.0000
  H   H28       1.0  0.2607316893294254  0.33619111685282393  0.6830831525093045  1.0000
  H   H29       1.0  0.5209215885460099  0.6223419984380244  0.3201599977069165  1.0000
  H   H30       1.0  0.4790875737338923  0.37765772607440357  0.679849634054655  1.0000
  H   H31       1.0  0.3889605736856509  0.42586490590033327  0.02970852671013797  1.0000
  H   H32       1.0  0.6110601501225332  0.5741359293833953  0.970315202112701  1.0000
  H   H33       1.0  0.3426593211418307  0.32961227489617073  0.12338114216091609  1.0000
  H   H34       1.0  0.657359431869537  0.6704216098158824  0.8766299441927925  1.0000
  H   H35       1.0  0.45974412903638046  0.2612868100264835  0.005493469846179315  1.0000
  H   H36       1.0  0.5402610111845052  0.7387162061091744  0.9945142377373414  1.0000
  C   C1        1.0  0.6729375079687756  0.02012742823158221  0.3076250534320124  1.0000
  C   C2        1.0  0.3270206325704947  0.9798633994359419  0.6923408242593394  1.0000
  C   C3        1.0  0.5843353125113636  0.9971778521424709  0.4023950664930565  1.0000
  C   C4        1.0  0.4156411746894122  0.002798695419770101  0.5975871267252373  1.0000
  C   C5        1.0  0.41357009743522616  0.0016674344604439004  0.3855902142431944  1.0000
  C   C6        1.0  0.5864137038425312  0.9982991839184692  0.6144119971997595  1.0000
  C   C7        1.0  0.6729078236962993  0.9902356872379061  0.5179676967344093  1.0000
  C   C8        1.0  0.327059736046273  0.009735320254684201  0.48201484704629377  1.0000
  C   C9        1.0  0.9620194232802817  0.7901119944482106  0.04172112350531882  1.0000
  C   C10       1.0  0.037978358086682804  0.20988658272104033  0.9582892826568141  1.0000
  C   C11       1.0  0.9814212581257068  0.6427978202814515  0.02580654012349024  1.0000
  C   C12       1.0  0.018578552486289403  0.3572084981010093  0.9741929632960548  1.0000
  C   C13       1.0  0.9664219084418804  0.5370830653834703  0.8970531472060015  1.0000
  C   C14       1.0  0.03358950619681879  0.46293432817139296  0.10293787453961294  1.0000
  C   C15       1.0  0.015686263927214845  0.6060457959416966  0.13379552028163028  1.0000
  C   C16       1.0  0.9843290202389596  0.39397157649889186  0.86620996746241  1.0000
  C   C17       1.0  0.17672310031676372  0.29165158325183443  0.3359464110017072  1.0000
  C   C18       1.0  0.8232923098067033  0.7083316945906619  0.6640466266065913  1.0000
  C   C19       1.0  0.3410338102988177  0.40148303513359457  0.418281760444863  1.0000
  C   C20       1.0  0.6589820225240857  0.5985057259150325  0.5817203290037084  1.0000
  C   C21       1.0  0.4901669649931506  0.35250421465237747  0.42760149319637003  1.0000
  C   C22       1.0  0.5098530371205643  0.6474988418008183  0.5724133404523002  1.0000
  C   C23       1.0  0.3499614935049493  0.5542393087051849  0.4913713108193746  1.0000
  C   C24       1.0  0.6500543947186586  0.4457538453356448  0.508635014520486  1.0000
  C   C25       1.0  0.7154001299850492  0.3897421547422724  0.21258055705403922  1.0000
  C   C26       1.0  0.2846106039459642  0.6102850955164812  0.7874297195234161  1.0000
  C   C27       1.0  0.6080088706590772  0.6076697947397703  0.2563864578036926  1.0000
  C   C28       1.0  0.3919975968502954  0.3923508236155656  0.7436278522853426  1.0000
  C   C29       1.0  0.4380264035960834  0.3614361354948342  0.0779953262844089  1.0000
  C   C30       1.0  0.5620037804035576  0.6385724611608836  0.9220210628284135  1.0000
  N   N1        1.0  0.8373629361858193  0.9741941588268048  0.5380777202027146  1.0000
  N   N2        1.0  0.1626134212432291  0.0257780108022487  0.461894113581188  1.0000
  N   N3        1.0  0.029402954275120394  0.7005608764313322  0.26387181417343425  1.0000
  N   N4        1.0  0.9705951283654315  0.29943440011094685  0.7361382972545198  1.0000
  N   N5        1.0  0.20905830744992224  0.6099517356343611  0.47920767004520554  1.0000
  N   N6        1.0  0.7909355421532211  0.39002925841106867  0.5207844484314278  1.0000
  N   N7        1.0  0.5958390065538097  0.45154571568684077  0.17967483756540756  1.0000
  N   N8        1.0  0.4041792008213463  0.5484815461255296  0.8203425012121099  1.0000
  O   O1        1.0  0.5963216316704845  0.9852521942196122  0.18711122688465306  1.0000
  O   O2        1.0  0.4036678908119384  0.014758578479451506  0.8128518952493237  1.0000
  O   O3        1.0  0.8322573960346489  0.08843203995792952  0.3521185985184445  1.0000
  O   O4        1.0  0.16770058058037318  0.9115400394753908  0.6478605113336613  1.0000
  O   O5        1.0  0.916069999963824  0.8742198035885239  0.14047853815527842  1.0000
  O   O6        1.0  0.08392404999328558  0.125778766728267  0.8595287743027598  1.0000
  O   O7        1.0  0.987341681777245  0.8287598282763753  0.9519712869034291  1.0000
  O   O8        1.0  0.012678472099715102  0.1712179367734237  0.048032570057088685  1.0000
  O   O9        1.0  0.1708692075166738  0.15476279160711928  0.2672766413522396  1.0000
  O   O10       1.0  0.8291001583571787  0.8452060292694625  0.7327027069592518  1.0000
  O   O11       1.0  0.03549238898040134  0.3294972597310491  0.3320467404998126  1.0000
  O   O12       1.0  0.9645505775916875  0.6705300714285158  0.6679816002610721  1.0000
  O   O13       1.0  0.7027739688267758  0.253023621259402  0.1589545002151738  1.0000
  O   O14       1.0  0.29722041960258855  0.7470024703682726  0.8410533006159253  1.0000
  O   O15       1.0  0.6930956244318621  0.9706126367122747  0.9444655474845188  1.0000
  O   O16       1.0  0.3069019300332129  0.029399199031182415  0.05552519905220519  1.0000
