data_image0
_chemical_formula_structural       Li8B8H80C24O16
_chemical_formula_sum              "Li8 B8 H80 C24 O16"
_cell_length_a       7.009149741393731
_cell_length_b       12.697975684035866
_cell_length_c       13.15588995726733
_cell_angle_alpha    90.00021301673154
_cell_angle_beta     102.31615528777664
_cell_angle_gamma    90.00011941701948

_space_group_name_H-M_alt    "P 1"
_space_group_IT_number       1

loop_
  _space_group_symop_operation_xyz
  'x, y, z'

loop_
  _atom_site_type_symbol
  _atom_site_label
  _atom_site_symmetry_multiplicity
  _atom_site_fract_x
  _atom_site_fract_y
  _atom_site_fract_z
  _atom_site_occupancy
  Li  Li1       1.0  0.31191286400164137  0.7918681653636169  0.4291437965546194  1.0000
  Li  Li2       1.0  0.18808595454627414  0.29186645230043945  0.07085686373980592  1.0000
  Li  Li3       1.0  0.6880889281774004  0.2081323041618859  0.5708566195394482  1.0000
  Li  Li4       1.0  0.8119129170446656  0.7081332296956332  0.9291432287983667  1.0000
  Li  Li5       1.0  0.8707507511659217  0.029251267929915104  0.2235730386162871  1.0000
  Li  Li6       1.0  0.6292496021657853  0.5292506096531753  0.27642761408884536  1.0000
  Li  Li7       1.0  0.12924957269547122  0.9707492015929661  0.7764264546843691  1.0000
  Li  Li8       1.0  0.3707492694251542  0.4707490723428903  0.7235724784493198  1.0000
  B   B1        1.0  0.5114725434946052  0.6712402629164417  0.3607196781134335  1.0000
  B   B2        1.0  0.9885271007813331  0.17123995024593341  0.1392798926610865  1.0000
  B   B3        1.0  0.4885263120491318  0.3287602066038176  0.6392788923938112  1.0000
  B   B4        1.0  0.011471762787067498  0.8287605192757893  0.8607194388624534  1.0000
  B   B5        1.0  0.1013670066780463  0.913988092680043  0.3231307375351519  1.0000
  B   B6        1.0  0.3986324637675978  0.413988605547047  0.1768696794028912  1.0000
  B   B7        1.0  0.8986318568882298  0.08601158931457321  0.6768685939867253  1.0000
  B   B8        1.0  0.6013678681163269  0.5860110764501912  0.8231305749123905  1.0000
  H   H1        1.0  0.044104014501989815  0.8503536158097447  0.3803828475702601  1.0000
  H   H2        1.0  0.45589511206854644  0.350352402410806  0.11961729962339969  1.0000
  H   H3        1.0  0.9558948490664109  0.1496468537119711  0.619616483953287  1.0000
  H   H4        1.0  0.5441052117885832  0.649646492057869  0.8803821936739167  1.0000
  H   H5        1.0  0.27757238816742813  0.9076517624617608  0.3281847221666964  1.0000
  H   H6        1.0  0.22242704001030947  0.40765126210077796  0.1718149068937862  1.0000
  H   H7        1.0  0.7224279356939649  0.0923487070611202  0.6718147711339597  1.0000
  H   H8        1.0  0.7775732838489517  0.5923484198950034  0.8281845864052074  1.0000
  H   H9        1.0  0.0177910586485339  0.896087380949467  0.23305129212318576  1.0000
  H   H10       1.0  0.48220830703682793  0.39608676013507704  0.2669482879166836  1.0000
  H   H11       1.0  0.9822092652128589  0.10391308857341389  0.7669482011774775  1.0000
  H   H12       1.0  0.5177920168245649  0.603913709387804  0.7330512053839725  1.0000
  H   H13       1.0  0.0676923687853304  0.0032350828971133  0.35114290433345724  1.0000
  H   H14       1.0  0.43230927894637017  0.5032358683059428  0.148857778824663  1.0000
  H   H15       1.0  0.9323064947809385  0.9967645990975028  0.648856427188413  1.0000
  H   H16       1.0  0.5676910529396865  0.49676460121839483  0.8511424754922886  1.0000
  H   H17       1.0  0.6011620619069403  0.9418432877779638  0.772261227690869  1.0000
  H   H18       1.0  0.8988381176254379  0.44183848215440963  0.7277385267437564  1.0000
  H   H19       1.0  0.3988368016593355  0.05815639421665251  0.22773810383100818  1.0000
  H   H20       1.0  0.10116076199016531  0.5581611998431129  0.2722623268107114  1.0000
  H   H21       1.0  0.4728164227992124  0.8212389738023446  0.7850002779582254  1.0000
  H   H22       1.0  0.027183079695980408  0.32123368420226933  0.7149989441977596  1.0000
  H   H23       1.0  0.527182440764939  0.17875992066517205  0.2149990535619821  1.0000
  H   H24       1.0  0.9728157918970911  0.678766785320903  0.28500114834208296  1.0000
  H   H25       1.0  0.5568468662053618  0.7538988585880161  0.629243182983565  1.0000
  H   H26       1.0  0.9431523298101753  0.25389622525099753  0.8707588188416011  1.0000
  H   H27       1.0  0.44315345765389935  0.24610082340776526  0.37075631031542844  1.0000
  H   H28       1.0  0.05684800207162511  0.7461026692191409  0.12924143547201078  1.0000
  H   H29       1.0  0.7168416340255206  0.8658404287057307  0.6352470858809625  1.0000
  H   H30       1.0  0.7831610794713201  0.3658399476219998  0.8647549529967691  1.0000
  H   H31       1.0  0.2831586978562726  0.1341584657644006  0.3647531684326495  1.0000
  H   H32       1.0  0.21683925241260477  0.6341597343752311  0.1352453013185126  1.0000
  H   H33       1.0  0.41711593463846  0.04060155013614519  0.5945907613700143  1.0000
  H   H34       1.0  0.08289228142027841  0.5405989667587293  0.9054091646514378  1.0000
  H   H35       1.0  0.5828829289299406  0.9593989193855704  0.4054085701535328  1.0000
  H   H36       1.0  0.9171080584861784  0.45939992771285887  0.09459185067847638  1.0000
  H   H37       1.0  0.18582400252283549  0.9774293712273021  0.5372815924179903  1.0000
  H   H38       1.0  0.3141807008063609  0.4774245748442993  0.9627164940983023  1.0000
  H   H39       1.0  0.8141763133138938  0.0225710982941223  0.4627171398663776  1.0000
  H   H40       1.0  0.6858181868317743  0.5225743196275802  0.037285120470791376  1.0000
  H   H41       1.0  0.4818258446378323  0.5781167719766032  0.3771171043652828  1.0000
  H   H42       1.0  0.0181732711046294  0.07811663327969141  0.1228820506206958  1.0000
  H   H43       1.0  0.5181730189305683  0.42188369754511257  0.6228822271582574  1.0000
  H   H44       1.0  0.9818255924637713  0.9218838362420244  0.8771172809028512  1.0000
  H   H45       1.0  0.3590558354229927  0.7093823793388551  0.3111717437422996  1.0000
  H   H46       1.0  0.1409454499516798  0.2093826359152473  0.18882812944453062  1.0000
  H   H47       1.0  0.6409430281432762  0.2906173026557611  0.6888275877795778  1.0000
  H   H48       1.0  0.859054881932245  0.790617046081991  0.8111721248707582  1.0000
  H   H49       1.0  0.5671790760049192  0.7158050390493785  0.4445495569193411  1.0000
  H   H50       1.0  0.9328178965316526  0.2158051290097731  0.055450640224115916  1.0000
  H   H51       1.0  0.4328197795366934  0.2841946429437884  0.5554490135862409  1.0000
  H   H52       1.0  0.06718097506354331  0.7841961280404988  0.9445494523173892  1.0000
  H   H53       1.0  0.6381347007093012  0.6819986488487614  0.3103584161079808  1.0000
  H   H54       1.0  0.8618650097279998  0.1819983798139191  0.18964196128674618  1.0000
  H   H55       1.0  0.3618656231499601  0.31800103314702005  0.6896410771910126  1.0000
  H   H56       1.0  0.1381338538404009  0.8180020897077966  0.8103573702367939  1.0000
  H   H57       1.0  0.8914567945660323  0.6958273644034277  0.5090383699182937  1.0000
  H   H58       1.0  0.608540603282229  0.1958279474925035  0.9909609409279411  1.0000
  H   H59       1.0  0.10854206900236822  0.30417310511829493  0.4909609616052463  1.0000
  H   H60       1.0  0.3914582843622867  0.8041733095606816  0.009040673646161708  1.0000
  H   H61       1.0  0.037372176922112005  0.795278298393882  0.587287020328148  1.0000
  H   H62       1.0  0.4626257410540405  0.29527742289678127  0.9127134520477397  1.0000
  H   H63       1.0  0.962628162988608  0.20472217113191246  0.41271399500509887  1.0000
  H   H64       1.0  0.5373731385636874  0.7047230466278479  0.0872874015083909  1.0000
  H   H65       1.0  0.9367241320033912  0.6083413273950954  0.6781014993030112  1.0000
  H   H66       1.0  0.5632757297199974  0.10834200036438091  0.8218992862849247  1.0000
  H   H67       1.0  0.06327620790519721  0.3916583546035994  0.3218995160285658  1.0000
  H   H68       1.0  0.4367246262421816  0.8916592566914262  0.1781032510825824  1.0000
  H   H69       1.0  0.1679741695980326  0.6713013946468821  0.7244080264868555  1.0000
  H   H70       1.0  0.3320260150625529  0.17130063084970001  0.7755937659493383  1.0000
  H   H71       1.0  0.8320290908965406  0.32869828735413625  0.2755933123989536  1.0000
  H   H72       1.0  0.6679757931679476  0.8287006262058159  0.2244081721789897  1.0000
  H   H73       1.0  0.12199164384610843  0.5406461747497174  0.45742092366799614  1.0000
  H   H74       1.0  0.37800872970034055  0.04064457636449249  0.0425782342575687  1.0000
  H   H75       1.0  0.8780086719906207  0.45935429477170703  0.5425778086163646  1.0000
  H   H76       1.0  0.6219916021835843  0.9593551056327384  0.957422020057713  1.0000
  H   H77       1.0  0.37387526665839493  0.5629846570147309  0.5247998124557611  1.0000
  H   H78       1.0  0.12612576889003443  0.06298205049787949  0.9751993995600116  1.0000
  H   H79       1.0  0.6261265174938585  0.437015024982216  0.4751998426203414  1.0000
  H   H80       1.0  0.8738760072332993  0.9370160564434046  0.024799494496455965  1.0000
  C   C1        1.0  0.4988451074797596  0.8826431619298275  0.7310568355495164  1.0000
  C   C2        1.0  0.0011561871272149993  0.3826380475188246  0.7689428086706869  1.0000
  C   C3        1.0  0.5011537560886411  0.11735730759189521  0.2689424959740236  1.0000
  C   C4        1.0  0.99884414475671  0.6173616344784137  0.23105744564459482  1.0000
  C   C5        1.0  0.5678724623889339  0.8398480103532151  0.6357355218126912  1.0000
  C   C6        1.0  0.9321286343008381  0.33984533934260963  0.8642647230712086  1.0000
  C   C7        1.0  0.432127869494991  0.160151671644023  0.3642647325025905  1.0000
  C   C8        1.0  0.06787023728796981  0.6601535551263565  0.1357353694652872  1.0000
  C   C9        1.0  0.3309558280075677  0.9673492049652169  0.5874477680292003  1.0000
  C   C10       1.0  0.1690488529540985  0.46734640986544923  0.9125533198276087  1.0000
  C   C11       1.0  0.6690444958516935  0.0326504770305647  0.4125517252697861  1.0000
  C   C12       1.0  0.8309514949791533  0.5326532721347021  0.08744845652026356  1.0000
  C   C13       1.0  0.030205091911106804  0.712309119634277  0.5641086424452268  1.0000
  C   C14       1.0  0.4697923857379181  0.2123083409107522  0.9358922392484033  1.0000
  C   C15       1.0  0.9697952479996063  0.28769134989151723  0.43589237288802  1.0000
  C   C16       1.0  0.5302079621974657  0.7876921286164987  0.0641095371011389  1.0000
  C   C17       1.0  0.07014088025623273  0.6369469122821556  0.6560826931199273  1.0000
  C   C18       1.0  0.4298561901443848  0.13694494855784  0.8439178691176962  1.0000
  C   C19       1.0  0.9298594516298239  0.363053557242182  0.3439175611970313  1.0000
  C   C20       1.0  0.5701426894712186  0.8630547334396822  0.15608298443677168  1.0000
  C   C21       1.0  0.22009807507758694  0.5807125853517405  0.5225999552382063  1.0000
  C   C22       1.0  0.27990160400401726  0.08071095490417689  0.977399931165884  1.0000
  C   C23       1.0  0.7799022407591424  0.4192878841696839  0.47739877704615447  1.0000
  C   C24       1.0  0.7200987359045713  0.9192887270945106  0.022601084165692984  1.0000
  O   O1        1.0  0.3123801773625133  0.9312200032486971  0.6871374157985386  1.0000
  O   O2        1.0  0.18762135567292407  0.4312152747422289  0.8128601512863867  1.0000
  O   O3        1.0  0.6876186781812238  0.0687804662715692  0.3128611547087132  1.0000
  O   O4        1.0  0.8123789762088762  0.5687836197279026  0.18714010302722525  1.0000
  O   O5        1.0  0.43194700465407004  0.8849392013042776  0.5472223358884492  1.0000
  O   O6        1.0  0.0680542943441509  0.3849372287869244  0.9527765570548181  1.0000
  O   O7        1.0  0.5680533192073227  0.1150612682186036  0.452777157412207  1.0000
  O   O8        1.0  0.9319445772467818  0.6150624532091484  0.047223535483347207  1.0000
  O   O9        1.0  0.19297286364763985  0.6912427718414377  0.5152532696374124  1.0000
  O   O10       1.0  0.3070259524305571  0.19124198871103462  0.9847469235187134  1.0000
  O   O11       1.0  0.8070259999207607  0.30875769768028505  0.4847460618861347  1.0000
  O   O12       1.0  0.692972927187171  0.8087584808135945  0.015253930037424404  1.0000
  O   O13       1.0  0.169071828900428  0.5488738049053268  0.6184201977625818  1.0000
  O   O14       1.0  0.3309276861555119  0.04887265641234249  0.8815803146971459  1.0000
  O   O15       1.0  0.8309285029856284  0.4511266646190108  0.3815800565543697  1.0000
  O   O16       1.0  0.6690741220707324  0.951127025588967  0.11842162342783519  1.0000
