data_image0
_chemical_formula_structural       Na4H28C28N4O10
_chemical_formula_sum              "Na4 H28 C28 N4 O10"
_cell_length_a       5.647199806791678
_cell_length_b       8.020189418167673
_cell_length_c       15.454748524173175
_cell_angle_alpha    103.49520961507922
_cell_angle_beta     89.99927964467568
_cell_angle_gamma    90.00201531437425

_space_group_name_H-M_alt    "P 1"
_space_group_IT_number       1

loop_
  _space_group_symop_operation_xyz
  'x, y, z'

loop_
  _atom_site_type_symbol
  _atom_site_label
  _atom_site_symmetry_multiplicity
  _atom_site_fract_x
  _atom_site_fract_y
  _atom_site_fract_z
  _atom_site_occupancy
  Na  Na1       1.0  0.9037922247384244  0.666378010438443  0.5739110172401708  1.0000
  Na  Na2       1.0  0.09622137889964223  0.16638106504044  0.5739102624164685  1.0000
  Na  Na3       1.0  0.6442415356766348  0.06316899247873663  0.6947079178262141  1.0000
  Na  Na4       1.0  0.3557523495623087  0.563165973626482  0.6947072249144454  1.0000
  H   H1        1.0  0.12075881720154769  0.7182285793718107  0.9168858234939421  1.0000
  H   H2        1.0  0.8792118947596279  0.21819370565765436  0.916869352628801  1.0000
  H   H3        1.0  0.43677567174601956  0.8727935226277523  0.7800239749594551  1.0000
  H   H4        1.0  0.5632358822390842  0.3727959800612055  0.7800216256985735  1.0000
  H   H5        1.0  0.7208975957117048  0.05694927376599419  0.12267875527545158  1.0000
  H   H6        1.0  0.2790580704756492  0.5569085127172427  0.12267616712083644  1.0000
  H   H7        1.0  0.0753468347508246  0.8679637165604177  0.07597846832387488  1.0000
  H   H8        1.0  0.9246219152324355  0.3679144110802639  0.07596651064091728  1.0000
  H   H9        1.0  0.4254821541297814  0.09510091387357988  0.010360711348020897  1.0000
  H   H10       1.0  0.5745053775090057  0.5950643358754845  0.010368039686824211  1.0000
  H   H11       1.0  0.8651255007843587  0.43635587955570526  0.6891480345212455  1.0000
  H   H12       1.0  0.13488994764619383  0.9363618880448003  0.6891433686744151  1.0000
  H   H13       1.0  0.05194411869035779  0.6128579797492221  0.24911029253742353  1.0000
  H   H14       1.0  0.9480689688323309  0.11288110342753302  0.2491028120199985  1.0000
  H   H15       1.0  0.7613156435688283  0.673052466982284  0.14068595857060728  1.0000
  H   H16       1.0  0.23872320441529377  0.1730730410824535  0.1406824076203748  1.0000
  H   H17       1.0  0.1092918172049977  0.8266870975123695  0.466166853910522  1.0000
  H   H18       1.0  0.890726196776633  0.3266921104408879  0.4661631124851481  1.0000
  H   H19       1.0  0.27424153974299514  0.9963724191010571  0.8661315074105644  1.0000
  H   H20       1.0  0.7257619677051038  0.4963643619465969  0.8661402522237367  1.0000
  H   H21       1.0  0.6990331610696856  0.3856763782477231  0.6040233062792879  1.0000
  H   H22       1.0  0.3009817102135344  0.8856682947399436  0.6040182740408183  1.0000
  H   H23       1.0  0.4080238431447256  0.8587794350819208  0.19432906894334678  1.0000
  H   H24       1.0  0.5920081387672697  0.35880050646571954  0.1943296074343621  1.0000
  H   H25       1.0  0.18203493571965618  0.6558382567852944  0.3863677968008047  1.0000
  H   H26       1.0  0.8179671147234088  0.1558505733253455  0.3863632667691447  1.0000
  H   H27       1.0  0.3488521518746666  0.9697224069904989  0.35703841514697376  1.0000
  H   H28       1.0  0.6511588055760882  0.4697268808604064  0.3570386209705845  1.0000
  C   C1        1.0  0.6046098390508802  0.9294811757772122  0.8999362877924992  1.0000
  C   C2        1.0  0.3953585348904483  0.42947594093711666  0.8999283434597627  1.0000
  C   C3        1.0  0.8726318032967058  0.7618988994618262  0.3643064514437242  1.0000
  C   C4        1.0  0.12737502712461432  0.2619117688564643  0.3643003553183063  1.0000
  C   C5        1.0  0.6675125772129462  0.8613862707933108  0.39535649904544806  1.0000
  C   C6        1.0  0.3324821218345662  0.36139870811778957  0.3953561520887874  1.0000
  C   C7        1.0  0.8057639822186644  0.8227024621139307  0.8730973553914153  1.0000
  C   C8        1.0  0.19422480420968924  0.32267707306952786  0.87309077348268  1.0000
  C   C9        1.0  0.5032369221244936  0.8919200694660675  0.33237609994926487  1.0000
  C   C10       1.0  0.4967728473247419  0.3919388877799932  0.33237795987942315  1.0000
  C   C11       1.0  0.8965536415319375  0.6918299682223362  0.2721647383480601  1.0000
  C   C12       1.0  0.10345191396166338  0.1918397345181688  0.27215703677188685  1.0000
  C   C13       1.0  0.5798511829721136  0.013071736332804606  0.9907281643974527  1.0000
  C   C14       1.0  0.4201213865176143  0.5130677161878195  0.990723901075391  1.0000
  C   C15       1.0  0.7321540430163085  0.7248941522024452  0.2115930022863353  1.0000
  C   C16       1.0  0.26787368986785504  0.22491675723706814  0.2115857287139917  1.0000
  C   C17       1.0  0.8387461905850416  0.722576462582815  0.7796678812539353  1.0000
  C   C18       1.0  0.1612468892518493  0.2225786077551462  0.7796590358884856  1.0000
  C   C19       1.0  0.9708668393004629  0.8032786793395416  0.9381750090763104  1.0000
  C   C20       1.0  0.029096739488196  0.30326367874199167  0.9381612081299193  1.0000
  C   C21       1.0  0.5346564136358721  0.8279381099107325  0.24143965622506158  1.0000
  C   C22       1.0  0.4653611992226629  0.3279588002506912  0.24143926483764486  1.0000
  C   C23       1.0  0.9449280724055668  0.886670903357839  0.027158881542384015  1.0000
  C   C24       1.0  0.055050947602090596  0.38664620932339483  0.027146368872941192  1.0000
  C   C25       1.0  0.7468001928682781  0.9920574404111732  0.05304803017276067  1.0000
  C   C26       1.0  0.2531690082832938  0.4920179697108011  0.05304402006446909  1.0000
  C   C27       1.0  0.6170039852497311  0.9307109624699165  0.49220297718913736  1.0000
  C   C28       1.0  0.38299704945178087  0.43072332298854127  0.4922011621006489  1.0000
  N   N1        1.0  0.4357370264242775  0.956139571383069  0.8408279475750644  1.0000
  N   N2        1.0  0.5642743720975716  0.45612659013343654  0.8408281883801862  1.0000
  N   N3        1.0  0.04490953735943039  0.7227057709397896  0.42091595733691617  1.0000
  N   N4        1.0  0.9550891402185542  0.2227109990570355  0.42091268051874653  1.0000
  O   O1        1.0  0.7028066243633617  0.7510376863474305  0.7177689110505552  1.0000
  O   O2        1.0  0.29720845198256274  0.25105590467205013  0.7177577565300054  1.0000
  O   O3        1.0  0.7868411847085142  0.9424137867457177  0.5480717180823973  1.0000
  O   O4        1.0  0.2131349172078103  0.442423493404874  0.5480675345419143  1.0000
  O   O5        1.0  0.9973265089516372  0.6054914338904922  0.763574079970432  1.0000
  O   O6        1.0  0.0026824169409849006  0.1054898853781268  0.7635639932090754  1.0000
  O   O7        1.0  0.4035677954648023  0.9730776034989786  0.5162839965835957  1.0000
  O   O8        1.0  0.5964255145408259  0.47307168850896636  0.5162908425486988  1.0000
  O   O9        1.0  0.7759822744196185  0.3383171450074088  0.6508782529873613  1.0000
  O   O10       1.0  0.22403685334802498  0.8383225795049611  0.6508790487686935  1.0000
