data_image0
_chemical_formula_structural       Cu4H24C20Br4N8
_chemical_formula_sum              "Cu4 H24 C20 Br4 N8"
_cell_length_a       4.018734494245624
_cell_length_b       12.4481631956822
_cell_length_c       12.8357003976609
_cell_angle_alpha    90.00009538801525
_cell_angle_beta     89.9981209185341
_cell_angle_gamma    98.9309953751553

_space_group_name_H-M_alt    "P 1"
_space_group_IT_number       1

loop_
  _space_group_symop_operation_xyz
  'x, y, z'

loop_
  _atom_site_type_symbol
  _atom_site_label
  _atom_site_symmetry_multiplicity
  _atom_site_fract_x
  _atom_site_fract_y
  _atom_site_fract_z
  _atom_site_occupancy
  Cu  Cu1       1.0  0.457668321927443  0.6695704197831561  0.30525592293811593  1.0000
  Cu  Cu2       1.0  0.45767827753693524  0.16957543739239614  0.194746698635889  1.0000
  Cu  Cu3       1.0  0.5423609247514847  0.3304270142277589  0.6947447630402124  1.0000
  Cu  Cu4       1.0  0.5423310133649865  0.8304218890333744  0.8052539874471519  1.0000
  H   H1        1.0  0.7269325721090352  0.6381756086540307  0.6863213496930457  1.0000
  H   H2        1.0  0.7269568806489488  0.1381844861731167  0.8136768234488798  1.0000
  H   H3        1.0  0.27305636749844103  0.36182647521180666  0.31368089465343724  1.0000
  H   H4        1.0  0.2730455811602823  0.8618201041801254  0.1863191882112503  1.0000
  H   H5        1.0  0.7291781860637486  0.5888227671989839  0.49906857795068044  1.0000
  H   H6        1.0  0.7291954305903446  0.08882745850666399  0.0009303309233743999  1.0000
  H   H7        1.0  0.27082672409478903  0.4111875146946175  0.5009375617015763  1.0000
  H   H8        1.0  0.2707814325781542  0.9111696931043837  0.9990625645589971  1.0000
  H   H9        1.0  0.2628691691649367  0.9056446240212354  0.614309933158168  1.0000
  H   H10       1.0  0.26290097198251766  0.40565337637621474  0.8856941659578227  1.0000
  H   H11       1.0  0.7371097925136212  0.09435740605091074  0.3856930903177442  1.0000
  H   H12       1.0  0.7370996950735177  0.5943528266885281  0.1143010666354769  1.0000
  H   H13       1.0  0.14316144531257197  0.9464660385218411  0.435742220138131  1.0000
  H   H14       1.0  0.1431713730996478  0.4464746007478695  0.0642647668626992  1.0000
  H   H15       1.0  0.8568221557539246  0.0535352053751268  0.5642553497734539  1.0000
  H   H16       1.0  0.8568207605372038  0.5535291227212937  0.9357398146990974  1.0000
  H   H17       1.0  0.04850805674153955  0.8297597111687195  0.3544210332595483  1.0000
  H   H18       1.0  0.048493180181438354  0.3297647079355883  0.1455837115891256  1.0000
  H   H19       1.0  0.9514969905728351  0.1702335364148269  0.6455780946895117  1.0000
  H   H20       1.0  0.9515064825903966  0.6702333777746506  0.8544185326990146  1.0000
  H   H21       1.0  0.44982626560591404  0.9120667538417138  0.3469600847086197  1.0000
  H   H22       1.0  0.4498149042209576  0.4120701300217959  0.1530428682014602  1.0000
  H   H23       1.0  0.5501787362323753  0.08793217185186111  0.6530367060123509  1.0000
  H   H24       1.0  0.5501904472949023  0.5879296087465917  0.8469570388264175  1.0000
  C   C1        1.0  0.6229012318717441  0.6880986216778242  0.6290613141332955  1.0000
  C   C2        1.0  0.6229217436132403  0.18810653589201823  0.8709341071549729  1.0000
  C   C3        1.0  0.3771066141566593  0.31190113053982327  0.3709378138044102  1.0000
  C   C4        1.0  0.37707966843570523  0.8118956152167556  0.1290665789719014  1.0000
  C   C5        1.0  0.6255711049938881  0.6603330126743215  0.5245488744991604  1.0000
  C   C6        1.0  0.6255850153747317  0.1603447069755362  0.9754527229127063  1.0000
  C   C7        1.0  0.37444277937526493  0.3396692056740492  0.4754525906393567  1.0000
  C   C8        1.0  0.3744053694296312  0.8396549511073346  0.0245448469624563  1.0000
  C   C9        1.0  0.3764918821948058  0.8097212877565028  0.48186073009561176  1.0000
  C   C10       1.0  0.37649836694073696  0.3097339934207639  0.018142887654534  1.0000
  C   C11       1.0  0.6235223976513709  0.1902760655655555  0.5181399559612458  1.0000
  C   C12       1.0  0.623497706445967  0.6902673177158007  0.9818554612686938  1.0000
  C   C13       1.0  0.37129064543970725  0.8355831686168431  0.587170177895878  1.0000
  C   C14       1.0  0.3713018212277603  0.33559093618391234  0.9128288156668773  1.0000
  C   C15       1.0  0.6287172004674346  0.1644165835974576  0.4128312872730718  1.0000
  C   C16       1.0  0.6287038801677697  0.6644096156648517  0.0871703122824954  1.0000
  C   C17       1.0  0.24711321886379523  0.8784222682246038  0.4009971389090978  1.0000
  C   C18       1.0  0.24712063659192302  0.37842749226685857  0.099007128673783  1.0000
  C   C19       1.0  0.7528821547231388  0.12157741675009962  0.5990035472482163  1.0000
  C   C20       1.0  0.7528797258988362  0.62157221960301  0.9009943365344313  1.0000
  Br  Br1       1.0  0.9240256583259735  0.5381501470049914  0.3039289762065351  1.0000
  Br  Br2       1.0  0.9240341227869564  0.03814623040571521  0.1960678349066285  1.0000
  Br  Br3       1.0  0.07596582159349911  0.46184627220897306  0.6960685936612165  1.0000
  Br  Br4       1.0  0.07594917375470098  0.9618485222975013  0.8039351885427948  1.0000
  N   N1        1.0  0.4947565529646172  0.7762698938186293  0.6621587846708296  1.0000
  N   N2        1.0  0.4947658361090319  0.2762843131291319  0.8378435261651233  1.0000
  N   N3        1.0  0.5052502435864383  0.22372741916234412  0.33783956419405575  1.0000
  N   N4        1.0  0.5052412648051928  0.7237194910411305  0.1621524854702514  1.0000
  N   N5        1.0  0.5035543376342346  0.7198041705213922  0.4497939833219959  1.0000
  N   N6        1.0  0.503558939888876  0.2198143587319663  0.05021054529306209  1.0000
  N   N7        1.0  0.49646637586803166  0.280190783900629  0.5502113771623485  1.0000
  N   N8        1.0  0.4964371791355973  0.7801812742990181  0.9497870245499273  1.0000
