data_image0
_chemical_formula_structural       Ag2H16C26N2O8
_chemical_formula_sum              "Ag2 H16 C26 N2 O8"
_cell_length_a       5.158869091221045
_cell_length_b       7.427847336100906
_cell_length_c       14.94269550500379
_cell_angle_alpha    104.79977016577443
_cell_angle_beta     94.02535318893653
_cell_angle_gamma    102.61053900529812

_space_group_name_H-M_alt    "P 1"
_space_group_IT_number       1

loop_
  _space_group_symop_operation_xyz
  'x, y, z'

loop_
  _atom_site_type_symbol
  _atom_site_label
  _atom_site_symmetry_multiplicity
  _atom_site_fract_x
  _atom_site_fract_y
  _atom_site_fract_z
  _atom_site_occupancy
  Ag  Ag1       1.0  0.8384032707070899  0.14855288409085426  0.0265282622837617  1.0000
  Ag  Ag2       1.0  0.16161038318783472  0.8514493384387051  0.973470682736611  1.0000
  H   H1        1.0  0.4389841950535142  0.8419752738720518  0.46665717727333333  1.0000
  H   H2        1.0  0.5609944888540852  0.1580217822593539  0.533340962471172  1.0000
  H   H3        1.0  0.7182030773331575  0.5286575023256359  0.5475102738907367  1.0000
  H   H4        1.0  0.2817763199491806  0.47133107760812004  0.4524935563126675  1.0000
  H   H5        1.0  0.006213447169727683  0.3975647700916695  0.6388766920316795  1.0000
  H   H6        1.0  0.993783499975919  0.6024291485224039  0.3611235235395113  1.0000
  H   H7        1.0  0.5134935490008202  0.9681281241149546  0.7619414628978162  1.0000
  H   H8        1.0  0.4865013369850286  0.031875901995583406  0.2380585799416934  1.0000
  H   H9        1.0  0.22499875497241817  0.0968271307546473  0.6679622762560911  1.0000
  H   H10       1.0  0.7749815584959593  0.9031743139794627  0.3320391084293348  1.0000
  H   H11       1.0  0.088748987528426  0.35944712701356  0.7731078758847474  1.0000
  H   H12       1.0  0.9112771107336284  0.6405519747109307  0.22689032788294836  1.0000
  H   H13       1.0  0.8025772207727329  0.42923552667286197  0.9556662221544413  1.0000
  H   H14       1.0  0.19743417532708205  0.5707710684574961  0.04433319390282259  1.0000
  H   H15       1.0  0.7928737626052893  0.8232884098208118  0.8036111553159699  1.0000
  H   H16       1.0  0.2071302458774014  0.1767140169947226  0.1963889176043807  1.0000
  C   C1        1.0  0.892399036417231  0.6245126657199267  0.5943245964850661  1.0000
  C   C2        1.0  0.10759108251543377  0.3754786017337252  0.4056791492984146  1.0000
  C   C3        1.0  0.7624049187803905  0.9038941948722081  0.5560159265235001  1.0000
  C   C4        1.0  0.23759598879315286  0.09611556977928609  0.4439869615151366  1.0000
  C   C5        1.0  0.05404368477774572  0.5515438511311147  0.6468185104265985  1.0000
  C   C6        1.0  0.9459568295251656  0.4484544437290552  0.3531856651491978  1.0000
  C   C7        1.0  0.28482115879107534  0.20244611762708334  0.8964475941411365  1.0000
  C   C8        1.0  0.7151916398269049  0.7975590294225158  0.10355235118395001  1.0000
  C   C9        1.0  0.3406179820382675  0.8705928723484464  0.7145609794401082  1.0000
  C   C10       1.0  0.6593712329658032  0.12940115676475022  0.2854383915413905  1.0000
  C   C11       1.0  0.9486857334634209  0.8223424562247458  0.6036901681031139  1.0000
  C   C12       1.0  0.051295447444815075  0.17765610470444662  0.39631156005427925  1.0000
  C   C13       1.0  0.4307846663541071  0.3702385641914319  0.8651653079547402  1.0000
  C   C14       1.0  0.5692191090045213  0.6297580055830707  0.1348313774041614  1.0000
  C   C15       1.0  0.17806548652885812  0.9438734552194459  0.66242177846879  1.0000
  C   C16       1.0  0.8219159092590688  0.05613090167809529  0.3375813215850343  1.0000
  C   C17       1.0  0.29603717367284327  0.4351056600501266  0.8002913791529876  1.0000
  C   C18       1.0  0.7039753918210819  0.5648936299584404  0.19970517861065668  1.0000
  C   C19       1.0  0.6914787657579353  0.4742449855603823  0.9040984715326131  1.0000
  C   C20       1.0  0.30852329904681136  0.5257574332541993  0.09590021443572279  1.0000
  C   C21       1.0  0.27524658154219134  0.673914716726486  0.7100557672187691  1.0000
  C   C22       1.0  0.7247633876190915  0.32607765930961113  0.2899485961139661  1.0000
  C   C23       1.0  0.421669490661408  0.5983016165279836  0.7745874668516706  1.0000
  C   C24       1.0  0.5783290130675239  0.4016964463980627  0.2254079310003974  1.0000
  C   C25       1.0  0.6831886438578464  0.6931297645290184  0.8182017035111284  1.0000
  C   C26       1.0  0.3168109543535564  0.30687125127557385  0.18179675348600444  1.0000
  N   N1        1.0  0.8134044276494734  0.6338892170780781  0.8821890500377805  1.0000
  N   N2        1.0  0.1866149033086941  0.36612302280638426  0.11781123872894031  1.0000
  O   O1        1.0  0.033486806332632596  0.1494242811881037  0.8746232642576572  1.0000
  O   O2        1.0  0.9665339393066219  0.8505865513307144  0.1253788975535528  1.0000
  O   O3        1.0  0.42129006239423455  0.1262661692965352  0.9446454865525453  1.0000
  O   O4        1.0  0.5787221829010606  0.8737374809562227  0.05535225731166801  1.0000
  O   O5        1.0  0.7793130060418392  0.08082406542995099  0.5763270077140277  1.0000
  O   O6        1.0  0.22067068596410166  0.9191655387210744  0.4236656725341846  1.0000
  O   O7        1.0  0.5749470317357818  0.7769911341158461  0.49204781253632035  1.0000
  O   O8        1.0  0.425048869579065  0.22299999448016183  0.5079547189965083  1.0000
