data_image0
_chemical_formula_structural       Li4H44C32S4N8O8
_chemical_formula_sum              "Li4 H44 C32 S4 N8 O8"
_cell_length_a       7.36495153701427
_cell_length_b       10.307542254922707
_cell_length_c       13.1434087827988
_cell_angle_alpha    108.15336570722518
_cell_angle_beta     89.99982701743474
_cell_angle_gamma    90.00019806043578

_space_group_name_H-M_alt    "P 1"
_space_group_IT_number       1

loop_
  _space_group_symop_operation_xyz
  'x, y, z'

loop_
  _atom_site_type_symbol
  _atom_site_label
  _atom_site_symmetry_multiplicity
  _atom_site_fract_x
  _atom_site_fract_y
  _atom_site_fract_z
  _atom_site_occupancy
  Li  Li1       1.0  0.5314741283370878  0.5090817956330937  0.9004061979193384  1.0000
  Li  Li2       1.0  0.03147285279299441  0.9909133789489675  0.5995932264638315  1.0000
  Li  Li3       1.0  0.46852269703025234  0.4909149298114457  0.09959160893563994  1.0000
  Li  Li4       1.0  0.9685226147871546  0.009086352541423499  0.4004091441928568  1.0000
  H   H1        1.0  0.2090836274223236  0.2604957576179672  0.6952989361454914  1.0000
  H   H2        1.0  0.7090811358965183  0.23949713003431577  0.8047033462062461  1.0000
  H   H3        1.0  0.7909213446255594  0.7395008997834581  0.3047034188212623  1.0000
  H   H4        1.0  0.2909197628035117  0.7604964872905171  0.19529671902039075  1.0000
  H   H5        1.0  0.3196124546606995  0.9622614339976535  0.364361282689842  1.0000
  H   H6        1.0  0.8196166746613471  0.5377370521744067  0.1356375626473607  1.0000
  H   H7        1.0  0.6803789395851965  0.037739375116729014  0.6356375557732933  1.0000
  H   H8        1.0  0.180378792921168  0.46226168108086796  0.8643630340692143  1.0000
  H   H9        1.0  0.544268558722294  0.9950752879913409  0.3285236834884629  1.0000
  H   H10       1.0  0.0442726292531788  0.5049206351560827  0.17147421780603625  1.0000
  H   H11       1.0  0.45572419329273833  0.004919384269882694  0.671474365585944  1.0000
  H   H12       1.0  0.9557214805466145  0.495080117251767  0.8285284107526893  1.0000
  H   H13       1.0  0.6344166879974509  0.5833251611220049  0.6212977453050215  1.0000
  H   H14       1.0  0.13442031052203873  0.9166762927061284  0.8787061352661497  1.0000
  H   H15       1.0  0.36558556847348456  0.4166714282258115  0.3787091577800228  1.0000
  H   H16       1.0  0.86558873491866  0.0833357805573129  0.12129326604157604  1.0000
  H   H17       1.0  0.7290488090972361  0.49587376930568894  0.4928130061976292  1.0000
  H   H18       1.0  0.2290551298952153  0.0041341963303836  0.007189839053246803  1.0000
  H   H19       1.0  0.27095208961450373  0.5041310327583232  0.5071929280202667  1.0000
  H   H20       1.0  0.7709566311062019  0.9958758350981397  0.9928090464504041  1.0000
  H   H21       1.0  0.8726993797567886  0.5864692621807491  0.6004179998511177  1.0000
  H   H22       1.0  0.3727028727837833  0.9135367475147473  0.8995858689146631  1.0000
  H   H23       1.0  0.12730695006855086  0.41352939169221514  0.3995879029950516  1.0000
  H   H24       1.0  0.6273075304312526  0.0864732612287966  0.10041453262869034  1.0000
  H   H25       1.0  0.8900499257541057  0.3341392033244546  0.5737827549535626  1.0000
  H   H26       1.0  0.3900534038804082  0.16586333601868117  0.9262140515680531  1.0000
  H   H27       1.0  0.1099523307388708  0.6658534611339065  0.426212504254366  1.0000
  H   H28       1.0  0.6099583571262175  0.8341507677430969  0.07378662355994696  1.0000
  H   H29       1.0  0.7874326960063059  0.42255804993442325  0.7000709783869186  1.0000
  H   H30       1.0  0.2874337094614959  0.07744018458075169  0.7999264354747101  1.0000
  H   H31       1.0  0.2125722760335265  0.5774294645653769  0.29992602339102364  1.0000
  H   H32       1.0  0.7125753359750034  0.922571865999025  0.20007448187190854  1.0000
  H   H33       1.0  0.20241230018218198  0.15326160702977626  0.2993846899909515  1.0000
  H   H34       1.0  0.7024163391497782  0.34673509966492594  0.20061383421143125  1.0000
  H   H35       1.0  0.7975818096226065  0.8467361393309151  0.7006133747668744  1.0000
  H   H36       1.0  0.2975777706589398  0.6532636789563641  0.7993837304281829  1.0000
  H   H37       1.0  0.3174748065377955  0.027697169561221802  0.19614175683157958  1.0000
  H   H38       1.0  0.8174789044264303  0.47230078058890274  0.3038568874617483  1.0000
  H   H39       1.0  0.6825179454869074  0.97230058813998  0.8038555499076242  1.0000
  H   H40       1.0  0.1825111320273436  0.5276979526611214  0.696143709258074  1.0000
  H   H41       1.0  0.4282007874988452  0.18380574665548013  0.2640838524719912  1.0000
  H   H42       1.0  0.9282031247053341  0.31619240630066503  0.23591541722543505  1.0000
  H   H43       1.0  0.5717946800881322  0.8161919997065185  0.7359142122850246  1.0000
  H   H44       1.0  0.07178826953035873  0.6838073365276145  0.7640861954142439  1.0000
  C   C1        1.0  0.31635534169711116  0.24948351606840197  0.6366771709532986  1.0000
  C   C2        1.0  0.8163553004575733  0.2505146949907768  0.863325514404437  1.0000
  C   C3        1.0  0.6836469147960715  0.7505162267703867  0.36332444167987904  1.0000
  C   C4        1.0  0.18364695603221998  0.7494819964335238  0.1366745665056187  1.0000
  C   C5        1.0  0.5940560772095864  0.2163426790396343  0.4842048785404602  1.0000
  C   C6        1.0  0.0940583051540571  0.283655882608194  0.015792775204715795  1.0000
  C   C7        1.0  0.405940748164042  0.7836540804303951  0.5157906542561863  1.0000
  C   C8        1.0  0.9059439513482559  0.7163489648244478  0.9842101269345991  1.0000
  C   C9        1.0  0.4112930835801053  0.04082793944655091  0.3542028714007159  1.0000
  C   C10       1.0  0.9112979788426331  0.4591691939184485  0.14579388658596326  1.0000
  C   C11       1.0  0.5887010262265164  0.9591708278329065  0.6457954512583373  1.0000
  C   C12       1.0  0.0886974887440743  0.540829562020491  0.8542051940917192  1.0000
  C   C13       1.0  0.2934876169652654  0.1552590963054072  0.5353936426038859  1.0000
  C   C14       1.0  0.7934888478084546  0.3447360417968568  0.9646060223797337  1.0000
  C   C15       1.0  0.7065092083997088  0.8447386273742412  0.4646059381912055  1.0000
  C   C16       1.0  0.20650933533688232  0.6552606609653325  0.03539330051332006  1.0000
  C   C17       1.0  0.47599804849778593  0.32583876444738996  0.6662687924722095  1.0000
  C   C18       1.0  0.9759991481252615  0.17415778158325418  0.8337286377618229  1.0000
  C   C19       1.0  0.5240055657786584  0.6741569400849414  0.3337287564774771  1.0000
  C   C20       1.0  0.024005823938040308  0.8258440144375283  0.16627273265273604  1.0000
  C   C21       1.0  0.7503169393567006  0.5228550605349228  0.5795963631883156  1.0000
  C   C22       1.0  0.25031791845048457  0.9771405713276804  0.9204005250273614  1.0000
  C   C23       1.0  0.24968531711922992  0.47713852276573493  0.4204059760958288  1.0000
  C   C24       1.0  0.7496897691957827  0.022862336349156503  0.07959503913125592  1.0000
  C   C25       1.0  0.7731218407495319  0.3950217825848412  0.6131207882819754  1.0000
  C   C26       1.0  0.27312387401468646  0.10497744517218877  0.8868769006203582  1.0000
  C   C27       1.0  0.2268817735154229  0.6049698155887313  0.38687724510168675  1.0000
  C   C28       1.0  0.7268865292061052  0.895034616750735  0.11312325870599699  1.0000
  C   C29       1.0  0.3350974421030841  0.1058241704489973  0.2742210422929433  1.0000
  C   C30       1.0  0.8350975055031286  0.3941727815196785  0.22577808101440416  1.0000
  C   C31       1.0  0.6648980254838932  0.8941735759130012  0.7257770224640725  1.0000
  C   C32       1.0  0.16489117317055962  0.6058259630708633  0.774221757686789  1.0000
  S   S1        1.0  0.7556038621317639  0.200947381871373  0.3902512456965469  1.0000
  S   S2        1.0  0.25560565372183663  0.2990514808756473  0.10974697258271254  1.0000
  S   S3        1.0  0.2443916054596755  0.7990493775973491  0.6097442871009096  1.0000
  S   S4        1.0  0.7443911716417801  0.7009512906887068  0.8902576878157337  1.0000
  N   N1        1.0  0.43667134509811945  0.14049553625950748  0.46133771955375397  1.0000
  N   N2        1.0  0.9366749732290387  0.3595026444222  0.0386607819782796  1.0000
  N   N3        1.0  0.5633241224946061  0.8595042632818702  0.5386601029862704  1.0000
  N   N4        1.0  0.0633232099235954  0.6404981420150831  0.961339572519677  1.0000
  N   N5        1.0  0.6115795603965992  0.30646519237522085  0.585743422079979  1.0000
  N   N6        1.0  0.1115818831348676  0.19353474387006742  0.9142547182024362  1.0000
  N   N7        1.0  0.3884213383154744  0.6935305121544887  0.4142541268713346  1.0000
  N   N8        1.0  0.8884244467275978  0.806474221267102  0.08574694148101258  1.0000
  O   O1        1.0  0.5072052703447554  0.40869533661913243  0.7576211174441456  1.0000
  O   O2        1.0  0.007212097646061  0.09130541868422172  0.742377405745778  1.0000
  O   O3        1.0  0.49279562836887447  0.5913023984062846  0.24237770532906217  1.0000
  O   O4        1.0  0.9927969477559487  0.9086943128192999  0.25762496490277453  1.0000
  O   O5        1.0  0.15332365446158042  0.07982050483870749  0.5062488979279822  1.0000
  O   O6        1.0  0.6533237423386354  0.4201733299177802  0.9937514350487721  1.0000
  O   O7        1.0  0.8466731708989313  0.9201782057342172  0.4937532148266684  1.0000
  O   O8        1.0  0.3466717252368526  0.5798203100854665  0.006247114142226514  1.0000
