data_image0
_chemical_formula_structural       Zn16H28C96S24Cl4O76
_chemical_formula_sum              "Zn16 H28 C96 S24 Cl4 O76"
_cell_length_a       19.616604213103308
_cell_length_b       19.644477048990957
_cell_length_c       33.330343277009725
_cell_angle_alpha    79.03469427181629
_cell_angle_beta     79.15898040873635
_cell_angle_gamma    63.959942076149225

_space_group_name_H-M_alt    "P 1"
_space_group_IT_number       1

loop_
  _space_group_symop_operation_xyz
  'x, y, z'

loop_
  _atom_site_type_symbol
  _atom_site_label
  _atom_site_symmetry_multiplicity
  _atom_site_fract_x
  _atom_site_fract_y
  _atom_site_fract_z
  _atom_site_occupancy
  Zn  Zn1       1.0  0.0559687321002613  0.40112076018530723  0.4768505635690943  1.0000
  Zn  Zn2       1.0  0.9859179008978032  0.4839660493688246  0.5607424153263735  1.0000
  Zn  Zn3       1.0  0.0589701173961075  0.560402878645057  0.481480209572453  1.0000
  Zn  Zn4       1.0  0.8981031758717393  0.5522421091266739  0.4817091123292983  1.0000
  Zn  Zn5       1.0  0.6964287414622917  0.3482641347324317  0.27114443272198935  1.0000
  Zn  Zn6       1.0  0.6906596334361979  0.18852854724212897  0.26534880056751575  1.0000
  Zn  Zn7       1.0  0.770726576824899  0.2654073928195332  0.18982528704346888  1.0000
  Zn  Zn8       1.0  0.8486356028384989  0.1931028318536292  0.27424700285017417  1.0000
  Zn  Zn9       1.0  0.2674004828907286  0.7659756064954382  0.6891683044842053  1.0000
  Zn  Zn10      1.0  0.3477379590739531  0.6989219441133303  0.7722750838249011  1.0000
  Zn  Zn11      1.0  0.19099929454598205  0.8483485604869258  0.7704255823034528  1.0000
  Zn  Zn12      1.0  0.1921573613811631  0.6849766850814449  0.7653580184835035  1.0000
  Zn  Zn13      1.0  0.5621226266783667  0.05853794183035173  0.9827752644878132  1.0000
  Zn  Zn14      1.0  0.40122431115405294  0.05577817056349236  0.9780876950672094  1.0000
  Zn  Zn15      1.0  0.5534688376664221  0.9006363894597841  0.9775290810821387  1.0000
  Zn  Zn16      1.0  0.48496319657182607  0.9827760420147486  0.06010918066138522  1.0000
  H   H1        1.0  0.9482366514693368  0.2438757868255479  0.3576617703726086  1.0000
  H   H2        1.0  0.7531553226826092  0.45966406931655956  0.3445732867276377  1.0000
  H   H3        1.0  0.9933759572929403  0.29485572141444294  0.4059735006325126  1.0000
  H   H4        1.0  0.10336411601866051  0.5895668762294903  0.6976826986433053  1.0000
  H   H5        1.0  0.1932430367132909  0.7115879074245085  0.5973185560422252  1.0000
  H   H6        1.0  0.053208538001797506  0.5484346566179426  0.6470260440928257  1.0000
  H   H7        1.0  0.46326143903318234  0.23962483292950754  0.3396092428353866  1.0000
  H   H8        1.0  0.48346618207332176  0.7018639996284936  0.602299555276147  1.0000
  H   H9        1.0  0.20573697146474504  0.9794707472493728  0.6007289418249683  1.0000
  H   H10       1.0  0.9510270423889935  0.9620188343171993  0.3445527213694675  1.0000
  H   H11       1.0  0.5438385308352451  0.05905161733546996  0.15264692342306324  1.0000
  H   H12       1.0  0.6629427715970806  0.14201424423684036  0.04750812422409468  1.0000
  H   H13       1.0  0.5945720409026408  0.10892599050586678  0.19855059429369248  1.0000
  H   H14       1.0  0.5491520890225419  0.7693647725918922  0.1484345780161149  1.0000
  H   H15       1.0  0.1620678299246308  0.14135290655592314  0.0419050636221456  1.0000
  H   H16       1.0  0.49696461773117323  0.7969831965877744  0.8971667366375228  1.0000
  H   H17       1.0  0.29157039361039244  0.004949488303864798  0.9017422937570954  1.0000
  H   H18       1.0  0.4422309130202677  0.7539232216573665  0.8500144253728193  1.0000
  H   H19       1.0  0.302129664986751  0.28178695739958204  0.9027388823115245  1.0000
  H   H20       1.0  0.7864753509964404  0.007437010966000807  0.9060440409866998  1.0000
  H   H21       1.0  0.2411005094551371  0.6233646234531706  0.36414518548633623  1.0000
  H   H22       1.0  0.8673670702241909  0.42734929843194175  0.6608275374891407  1.0000
  H   H23       1.0  0.09914488222570841  0.31697366565038715  0.6877146351931387  1.0000
  H   H24       1.0  0.758997758342943  0.7324879346446946  0.35786621411945424  1.0000
  H   H25       1.0  0.8280690058764792  0.4450543760636662  0.06590942990782618  1.0000
  H   H26       1.0  0.1258050548745047  0.15961355766959437  0.25209390958759303  1.0000
  H   H27       1.0  0.5638354034727371  0.437605475756058  0.8045855231249488  1.0000
  H   H28       1.0  0.9224317295608845  0.6960193744762079  0.7938273132591431  1.0000
  C   C1        1.0  0.06862032062193892  0.31651464503121923  0.5592811841094728  1.0000
  C   C2        1.0  0.0679837730102975  0.5735272537831193  0.5665596658330969  1.0000
  C   C3        1.0  0.1826842663132027  0.439249601258389  0.4365148998578973  1.0000
  C   C4        1.0  0.9332319020215112  0.6806342617977775  0.43874520856422083  1.0000
  C   C5        1.0  0.9289717169309881  0.42867021902035435  0.43323939993435084  1.0000
  C   C6        1.0  0.8204347419459027  0.5569666843284439  0.56610001571471  1.0000
  C   C7        1.0  0.5675289831865129  0.3097394125366792  0.3105803159084459  1.0000
  C   C8        1.0  0.6819504971656302  0.18274298910678496  0.17952119926940918  1.0000
  C   C9        1.0  0.6950396458197403  0.43232942200282326  0.18867086058179436  1.0000
  C   C10       1.0  0.9358017797106729  0.18310089342154587  0.19113864291418986  1.0000
  C   C11       1.0  0.8193746681752005  0.3195449399590802  0.3199244863340808  1.0000
  C   C12       1.0  0.8103963298454104  0.06501876343399718  0.31236021363238814  1.0000
  C   C13       1.0  0.4338696502862689  0.6970065254339277  0.6890867083984629  1.0000
  C   C14       1.0  0.3118811685047548  0.8244334239707529  0.8191521796111161  1.0000
  C   C15       1.0  0.18282073178999522  0.9335075537261589  0.6873093859347676  1.0000
  C   C16       1.0  0.06657105936103141  0.8061728170702195  0.8102041472401496  1.0000
  C   C17       1.0  0.18317810285064703  0.677526652946753  0.6794694577659256  1.0000
  C   C18       1.0  0.3138300451843179  0.5669043595317333  0.8109216038157  1.0000
  C   C19       1.0  0.43866852051596794  0.18555128064884494  0.94014762177256  1.0000
  C   C20       1.0  0.42855256641761497  0.9318748244412658  0.9300402980933241  1.0000
  C   C21       1.0  0.6848429881888337  0.9357102126639704  0.9388417435003972  1.0000
  C   C22       1.0  0.5591668406978841  0.8157291669203773  0.06133929461472579  1.0000
  C   C23       1.0  0.5715774210409066  0.06813831782716326  0.06904961667212461  1.0000
  C   C24       1.0  0.31655792344817973  0.059134339569602845  0.06138926765929399  1.0000
  C   C25       1.0  0.8985552835348471  0.4045592967926766  0.40314767004787205  1.0000
  C   C26       1.0  0.8476404598429214  0.34875857501818064  0.348592121271615  1.0000
  C   C27       1.0  0.830507592865466  0.4515323992524145  0.38529228215075756  1.0000
  C   C28       1.0  0.9158122465950813  0.3017927462375026  0.36563788081193843  1.0000
  C   C29       1.0  0.8056125244161623  0.4233751071690578  0.358264964194646  1.0000
  C   C30       1.0  0.9405295889717139  0.3300600546167801  0.392367328370689  1.0000
  C   C31       1.0  0.09658225553103962  0.6046966859231874  0.5940303672800268  1.0000
  C   C32       1.0  0.1522857718673762  0.6521502228037763  0.6502748498782154  1.0000
  C   C33       1.0  0.13555506322597924  0.6521734609769894  0.5799699124549206  1.0000
  C   C34       1.0  0.11229596175598999  0.6064348950249753  0.6647430224582749  1.0000
  C   C35       1.0  0.16308871094492622  0.6752167030993945  0.6081725525878525  1.0000
  C   C36       1.0  0.08484410988916842  0.5836227847752299  0.6367067214397224  1.0000
  C   C37       1.0  0.3062409667772954  0.45419151690414594  0.4011298843534732  1.0000
  C   C38       1.0  0.4472879283280946  0.2959065174120354  0.3481066241179818  1.0000
  C   C39       1.0  0.2594931661590181  0.41530417490307064  0.41308819515233347  1.0000
  C   C40       1.0  0.49298819022343576  0.33511763855865706  0.3361539277698213  1.0000
  C   C41       1.0  0.3796274874993629  0.3392503201878937  0.37206447163354983  1.0000
  C   C42       1.0  0.3752807028485207  0.410690571205734  0.3776832428903703  1.0000
  C   C43       1.0  0.7291012666057954  0.5819833789550514  0.6348659240869594  1.0000
  C   C44       1.0  0.5271113069396592  0.6767269288023102  0.6231651371407665  1.0000
  C   C45       1.0  0.7466552697083203  0.5861085028090898  0.5921856133142072  1.0000
  C   C46       1.0  0.5102050019917358  0.6716654393034176  0.6655404618084333  1.0000
  C   C47       1.0  0.6069413873323697  0.6448250858314992  0.6120903263484436  1.0000
  C   C48       1.0  0.6489783814681759  0.6158869421368891  0.6463232500733868  1.0000
  C   C49       1.0  0.07513765919980389  0.22706684500267466  0.6281709777144187  1.0000
  C   C50       1.0  0.1740659046298987  0.024175846168965617  0.6205742694948028  1.0000
  C   C51       1.0  0.08943592304422761  0.24249722957215886  0.5855954937613035  1.0000
  C   C52       1.0  0.15903405804309761  0.009140280094797516  0.6626860421473423  1.0000
  C   C53       1.0  0.14288410808200075  0.1036341400034999  0.6082644118319819  1.0000
  C   C54       1.0  0.10529094914924292  0.14738725144880502  0.6414052442588911  1.0000
  C   C55       1.0  0.8348220234916682  0.8020523286989489  0.39997591125045767  1.0000
  C   C56       1.0  0.903819821396013  0.9450664539953451  0.35113746230665305  1.0000
  C   C57       1.0  0.9054092006828824  0.756597621463925  0.4143324624001962  1.0000
  C   C58       1.0  0.8335192519730797  0.9898159617541683  0.33720902066334446  1.0000
  C   C59       1.0  0.9039241911466221  0.8767389076098765  0.37403513811234745  1.0000
  C   C60       1.0  0.8336931198126367  0.8710578082299633  0.3768975037562399  1.0000
  C   C61       1.0  0.6561508012299413  0.15408372062635325  0.1493262512697768  1.0000
  C   C62       1.0  0.600400972171613  0.0977552252647911  0.09725696109857299  1.0000
  C   C63       1.0  0.6758149792312765  0.16305567397606066  0.1061689655847289  1.0000
  C   C64       1.0  0.5807280753724768  0.08814920708354641  0.13995811132385677  1.0000
  C   C65       1.0  0.6477181245108099  0.13495358185730313  0.08067380114238182  1.0000
  C   C66       1.0  0.6087336326919869  0.11593469327534936  0.16526758842763195  1.0000
  C   C67       1.0  0.6751587019399424  0.5221922479435364  0.11947982692085192  1.0000
  C   C68       1.0  0.5768417624073052  0.7248017755040126  0.12827351154007968  1.0000
  C   C69       1.0  0.6677918547106501  0.5061380658400128  0.16226284421501447  1.0000
  C   C70       1.0  0.5845715366039882  0.740096836142186  0.08583760578633812  1.0000
  C   C71       1.0  0.6094528511648392  0.6453005203830531  0.1403614237466257  1.0000
  C   C72       1.0  0.6415676035558632  0.6019376116610501  0.10678563681896239  1.0000
  C   C73       1.0  0.08429909558437741  0.11403323602448266  0.1800961776767593  1.0000
  C   C74       1.0  0.1707015544684936  0.12203398836864922  0.0741154421769608  1.0000
  C   C75       1.0  0.011965520853756604  0.15503941052251952  0.1670779168172629  1.0000
  C   C76       1.0  0.2422579241947531  0.08180560241417822  0.0871789964748189  1.0000
  C   C77       1.0  0.11340610878031751  0.13338797595578458  0.1080900125586268  1.0000
  C   C78       1.0  0.14273637311350032  0.10144884037872971  0.1463039935265869  1.0000
  C   C79       1.0  0.33753098369192  0.8549803435500112  0.8485210686680418  1.0000
  C   C80       1.0  0.39767567935247433  0.9041668111968734  0.9019222727143656  1.0000
  C   C81       1.0  0.2945537564130661  0.9262377329532966  0.8637170137333214  1.0000
  C   C82       1.0  0.44057711783648307  0.8328923083314166  0.8875975002575558  1.0000
  C   C83       1.0  0.3248977860208556  0.9500767322418326  0.8901360673165897  1.0000
  C   C84       1.0  0.4102285412755792  0.8092189118715682  0.8614071986043257  1.0000
  C   C85       1.0  0.40793462919608464  0.4527715360680134  0.8555272108516192  1.0000
  C   C86       1.0  0.3463478575508177  0.3024176275403291  0.8991377603284008  1.0000
  C   C87       1.0  0.33995385824696467  0.49361260314788075  0.8378427072226273  1.0000
  C   C88       1.0  0.41434832430696394  0.26146710574778353  0.9160399869503236  1.0000
  C   C89       1.0  0.34424468054980656  0.3720938381721838  0.8772277014509555  1.0000
  C   C90       1.0  0.4106951876035439  0.3827959341580823  0.8780845493769576  1.0000
  C   C91       1.0  0.9483475608512466  0.7867536692244311  0.8512103200478335  1.0000
  C   C92       1.0  0.8042389370557788  0.9491975291643014  0.8999988882273016  1.0000
  C   C93       1.0  0.9926011766761748  0.8277039067268323  0.8364563050793874  1.0000
  C   C94       1.0  0.7603123757956284  0.9085812266553575  0.9143368851818322  1.0000
  C   C95       1.0  0.8726937584434682  0.9044353240493948  0.8771408882641651  1.0000
  C   C96       1.0  0.8793919427411299  0.8306302245762964  0.8746050654842179  1.0000
  S   S1        1.0  0.2998830957004799  0.3261817464992305  0.3961862107001437  1.0000
  S   S2        1.0  0.455190284610005  0.4238100833039197  0.3539388833657141  1.0000
  S   S3        1.0  0.6661129625756033  0.6322379253220944  0.5663997074899072  1.0000
  S   S4        1.0  0.5900871335806884  0.6292255058784519  0.6921589343866683  1.0000
  S   S5        1.0  0.13895522586906142  0.1605426188150147  0.561872429502472  1.0000
  S   S6        1.0  0.10729613684959112  0.09031856846956998  0.6876514798270177  1.0000
  S   S7        1.0  0.9695005420582351  0.7981128673121347  0.40004762347052764  1.0000
  S   S8        1.0  0.7674313784487552  0.9501402205986337  0.35153598662715513  1.0000
  S   S9        1.0  0.6196092202094122  0.5876899531441068  0.1866956447753907  1.0000
  S   S10       1.0  0.6304422769627678  0.6592010983185332  0.06032848137698479  1.0000
  S   S11       1.0  0.015204708624423803  0.1773038739054726  0.11416614010667561  1.0000
  S   S12       1.0  0.240976766289819  0.05704060705041062  0.1402296469417621  1.0000
  S   S13       1.0  0.27955816524020355  0.4477703193759339  0.8491429120183297  1.0000
  S   S14       1.0  0.4756078927644438  0.3069654958051444  0.9060506061278133  1.0000
  S   S15       1.0  0.9509371492772235  0.9184451282859883  0.8513200757909232  1.0000
  S   S16       1.0  0.8013147820942949  0.8163905806100973  0.9006420567545986  1.0000
  S   S17       1.0  0.2908430190807607  0.5436303225295519  0.41449182000406637  1.0000
  S   S18       1.0  0.7925792010673617  0.5439373365049677  0.6734075480012294  1.0000
  S   S19       1.0  0.020273318440409603  0.2936720626664383  0.6633814568337542  1.0000
  S   S20       1.0  0.7512915110480308  0.784814647140948  0.4098283846475468  1.0000
  S   S21       1.0  0.7141450287314016  0.4564761015402895  0.08247365369353327  1.0000
  S   S22       1.0  0.1072531198863871  0.07457101416769524  0.2309106132773664  1.0000
  S   S23       1.0  0.4822032127852012  0.4815269306528763  0.8554020600971198  1.0000
  S   S24       1.0  0.9720026244709603  0.6900842321708822  0.8465409426398692  1.0000
  Cl  Cl1       1.0  0.7761791843516477  0.5455804663302786  0.393621617004797  1.0000
  Cl  Cl2       1.0  0.15026689525334552  0.6865723454819843  0.528980422428937  1.0000
  Cl  Cl3       1.0  0.7352398522634687  0.2059380707650932  0.08186239297236139  1.0000
  Cl  Cl4       1.0  0.20314615862912433  0.9877009012035527  0.8525131402193579  1.0000
  O   O1        1.0  0.00048025698913530044  0.4981570595634254  0.5000565192790845  1.0000
  O   O2        1.0  0.07370177564610711  0.3137980944821521  0.520738830811375  1.0000
  O   O3        1.0  0.019867175144504805  0.5461615461396718  0.583909847252535  1.0000
  O   O4        1.0  0.1471846488074249  0.5091948472328057  0.44187031258740456  1.0000
  O   O5        1.0  0.0488413670314216  0.37495978277387104  0.577235897139964  1.0000
  O   O6        1.0  0.15869410754024224  0.3868414449532124  0.44863545588558645  1.0000
  O   O7        1.0  0.09441787465743091  0.5748609692823269  0.528654924380227  1.0000
  O   O8        1.0  0.99664993721013  0.659989239761991  0.452878448274177  1.0000
  O   O9        1.0  0.8818180928597386  0.48180115495792114  0.45412152885729984  1.0000
  O   O10       1.0  0.8932535476788104  0.6429075012391157  0.44294271795305207  1.0000
  O   O11       1.0  0.0006365675473532001  0.39215868179158514  0.4360566806155859  1.0000
  O   O12       1.0  0.8787467548847516  0.5068519520569339  0.5827074456537388  1.0000
  O   O13       1.0  0.8183960545360806  0.5844854983378697  0.5280401490270208  1.0000
  O   O14       1.0  0.7515905644141796  0.24871286340201967  0.2503241792668973  1.0000
  O   O15       1.0  0.6010531769783327  0.35443984043790516  0.3051367564304642  1.0000
  O   O16       1.0  0.6732717392464451  0.15612353704172935  0.2173719070115965  1.0000
  O   O17       1.0  0.7434959923029681  0.3743465421085829  0.17170223182962016  1.0000
  O   O18       1.0  0.5915373290227636  0.24637887035700606  0.29619729339245987  1.0000
  O   O19       1.0  0.6676900168409646  0.4343055185389985  0.2267013872180428  1.0000
  O   O20       1.0  0.7092906883688812  0.23171352103531026  0.16577078743754464  1.0000
  O   O21       1.0  0.8792282534102827  0.2096062777150534  0.1701431807443043  1.0000
  O   O22       1.0  0.8593525342489556  0.25047292044087055  0.31298179131042747  1.0000
  O   O23       1.0  0.9334754894157202  0.17963332304735502  0.2297506960974971  1.0000
  O   O24       1.0  0.7578019952815538  0.36598955770594455  0.30485847129910576  1.0000
  O   O25       1.0  0.7427499449559178  0.09496242593669287  0.3019378871900357  1.0000
  O   O26       1.0  0.8595372620883666  0.09336956478844641  0.3035896564818046  1.0000
  O   O27       1.0  0.2489878077478665  0.7491741735019345  0.7494066347223266  1.0000
  O   O28       1.0  0.376589464789845  0.7243911848356318  0.668611072995894  1.0000
  O   O29       1.0  0.35181300035986857  0.7542779863077765  0.8140908575655742  1.0000
  O   O30       1.0  0.1599099292595056  0.9333842452741835  0.7258528963603297  1.0000
  O   O31       1.0  0.431941035679671  0.6889624643827403  0.7282434492909146  1.0000
  O   O32       1.0  0.22387440887700194  0.875784893181617  0.6680949456208224  1.0000
  O   O33       1.0  0.25379370781282523  0.8699188162598472  0.801044950689878  1.0000
  O   O34       1.0  0.0982848026425174  0.8521306205152327  0.8066963484372137  1.0000
  O   O35       1.0  0.1731265415280987  0.6539095336395703  0.7175659651854075  1.0000
  O   O36       1.0  0.09096134876618582  0.7458242724075534  0.7932587928010051  1.0000
  O   O37       1.0  0.21706311038000345  0.7206959923473517  0.6638222393117983  1.0000
  O   O38       1.0  0.3616617783634127  0.5957808286086747  0.7980699669200888  1.0000
  O   O39       1.0  0.24492446803285625  0.5935239678678103  0.8026782873339399  1.0000
  O   O40       1.0  0.5003771836396567  0.9993516928498568  0.9997100024817412  1.0000
  O   O41       1.0  0.5049301943069295  0.15773746326281216  0.9521954598369504  1.0000
  O   O42       1.0  0.38527276085471135  0.9969068598594933  0.942173513562011  1.0000
  O   O43       1.0  0.6540245573444069  0.8884274552014945  0.9482494619712084  1.0000
  O   O44       1.0  0.3920417155618879  0.1541906642205929  0.9466958892736415  1.0000
  O   O45       1.0  0.6570398032289475  0.0035234214483851087  0.9483618074550221  1.0000
  O   O46       1.0  0.495579587820231  0.888347843869042  0.9395805087943572  1.0000
  O   O47       1.0  0.5700466893324573  0.8159488808768528  0.022274743507630056  1.0000
  O   O48       1.0  0.5294342170954566  0.03357122236193529  0.08580320149945919  1.0000
  O   O49       1.0  0.529192236858961  0.8736946734680021  0.08114064103543941  1.0000
  O   O50       1.0  0.5916245234261411  0.07969545979248244  0.030603317058357515  1.0000
  O   O51       1.0  0.3154442657861125  0.07779782416874066  0.022624863234000297  1.0000
  O   O52       1.0  0.37545501409028503  0.022742363356982796  0.0806339032487173  1.0000
  O   O53       1.0  0.21952090885517353  0.6044243352076037  0.3904339976520603  1.0000
  O   O54       1.0  0.2658908950535733  0.5474287730398899  0.45741862388369003  1.0000
  O   O55       1.0  0.3571803694773267  0.556571905814792  0.3951054049637505  1.0000
  O   O56       1.0  0.8168135044548352  0.45486771186932634  0.6765663826064523  1.0000
  O   O57       1.0  0.8581358027206252  0.5609528123236273  0.6607381538334067  1.0000
  O   O58       1.0  0.7442937024477488  0.5670813694089175  0.7110550662447324  1.0000
  O   O59       1.0  0.0693001097193076  0.3408336679641835  0.6643382990032336  1.0000
  O   O60       1.0  0.9513735923631971  0.3478557401733227  0.6466523413969937  1.0000
  O   O61       1.0  0.0177367707175407  0.2501808911348675  0.703202739288912  1.0000
  O   O62       1.0  0.7741343008598849  0.7125061336195841  0.3856051493559889  1.0000
  O   O63       1.0  0.7371573040711042  0.760121847385207  0.4524547929635148  1.0000
  O   O64       1.0  0.6941943028018757  0.8499039452610619  0.3885896898951912  1.0000
  O   O65       1.0  0.8046975630338268  0.41669702252922053  0.0867552413519022  1.0000
  O   O66       1.0  0.687656486670477  0.39760156498283555  0.09376699221331816  1.0000
  O   O67       1.0  0.704573031095336  0.5025884329339191  0.04290900654137892  1.0000
  O   O68       1.0  0.08114517737540441  0.14831141881398927  0.2546114758922542  1.0000
  O   O69       1.0  0.061141086883708305  0.0355041135392895  0.2509576573126182  1.0000
  O   O70       1.0  0.1896886665039332  0.03703725039240169  0.22737757593917246  1.0000
  O   O71       1.0  0.518136499502333  0.48544931387865403  0.8077381700425477  1.0000
  O   O72       1.0  0.4508509088595218  0.5572085924616703  0.8663359059913915  1.0000
  O   O73       1.0  0.5390535148503234  0.4182808022243519  0.8777781705805126  1.0000
  O   O74       1.0  0.9731268154463139  0.6897134209242924  0.7979957428731409  1.0000
  O   O75       1.0  0.04791573313170261  0.6422856782474754  0.8562269697219234  1.0000
  O   O76       1.0  0.9073325870594573  0.675837406407993  0.867724624905243  1.0000
