data_image0
_chemical_formula_structural       Cd4H44C56S4N12O4
_chemical_formula_sum              "Cd4 H44 C56 S4 N12 O4"
_cell_length_a       11.261472274111844
_cell_length_b       11.117967723209176
_cell_length_c       12.89339822411986
_cell_angle_alpha    115.50289293643479
_cell_angle_beta     108.00729863761185
_cell_angle_gamma    90.04149797585598

_space_group_name_H-M_alt    "P 1"
_space_group_IT_number       1

loop_
  _space_group_symop_operation_xyz
  'x, y, z'

loop_
  _atom_site_type_symbol
  _atom_site_label
  _atom_site_symmetry_multiplicity
  _atom_site_fract_x
  _atom_site_fract_y
  _atom_site_fract_z
  _atom_site_occupancy
  Cd  Cd1       1.0  0.48928885322115423  0.3333752972913331  0.38718564756029383  1.0000
  Cd  Cd2       1.0  0.010431906088918239  0.9460086173515805  0.6126519928458763  1.0000
  Cd  Cd3       1.0  0.5107143230366518  0.6666233029677286  0.6128141944423361  1.0000
  Cd  Cd4       1.0  0.9895616166742512  0.05399400814566489  0.3873506745447557  1.0000
  H   H1        1.0  0.621190772311664  0.511976312017609  0.8188016063671668  1.0000
  H   H2        1.0  0.8787205698825673  0.6933292322845119  0.1810528369978926  1.0000
  H   H3        1.0  0.3788073160951413  0.48800717373931934  0.18119108873658257  1.0000
  H   H4        1.0  0.12128072251022098  0.3066754087188955  0.8189503607315345  1.0000
  H   H5        1.0  0.8268103751061632  0.5052595513883061  0.9598415028277785  1.0000
  H   H6        1.0  0.6730508634454039  0.5457852055703896  0.03980579173926908  1.0000
  H   H7        1.0  0.17319003873588198  0.49472700693499405  0.040149889191475545  1.0000
  H   H8        1.0  0.32695151535777006  0.45422046733442306  0.9601965410540884  1.0000
  H   H9        1.0  0.00958255230261072  0.44648238566870196  0.8867879664130598  1.0000
  H   H10       1.0  0.4901363269569287  0.5598578917112462  0.11273293106817307  1.0000
  H   H11       1.0  0.9904203201031622  0.55351424024564  0.11320871188660664  1.0000
  H   H12       1.0  0.5098624901399731  0.4401427543270344  0.8872665227027668  1.0000
  H   H13       1.0  0.9847831572055771  0.39804861247865386  0.6734661401095324  1.0000
  H   H14       1.0  0.5149381106148853  0.7241875601947357  0.3260897242690107  1.0000
  H   H15       1.0  0.015218002058738014  0.601949033500091  0.3265304682549938  1.0000
  H   H16       1.0  0.48506163890101567  0.2758130657989923  0.6739107479058788  1.0000
  H   H17       1.0  0.8855856654961725  0.40310762571593284  0.49821638583686917  1.0000
  H   H18       1.0  0.6140634712808434  0.9043317155410121  0.5013931287048052  1.0000
  H   H19       1.0  0.11441719063641642  0.5968950872184564  0.5017810647421754  1.0000
  H   H20       1.0  0.385935497053616  0.09566989607841948  0.4986090619814476  1.0000
  H   H21       1.0  0.8136501376738609  0.3754393803075332  0.3103565403864437  1.0000
  H   H22       1.0  0.6859785973827285  0.0647289088125902  0.6893258141025242  1.0000
  H   H23       1.0  0.1863489860289036  0.624563326440267  0.6896414568321205  1.0000
  H   H24       1.0  0.3140231528534798  0.9352787584815019  0.31067866398984006  1.0000
  H   H25       1.0  0.7199383794839703  0.5055701051701433  0.3197839393401196  1.0000
  H   H26       1.0  0.7800156756585823  0.1853304304067436  0.6799492125936979  1.0000
  H   H27       1.0  0.2800607433008509  0.4944325727893927  0.68021559796356  1.0000
  H   H28       1.0  0.21998717817914576  0.8146722105569706  0.3200520881981176  1.0000
  H   H29       1.0  0.7302379116597351  0.31356946216303777  0.08540966607761646  1.0000
  H   H30       1.0  0.7691385748216105  0.22708424494822307  0.9141345684342852  1.0000
  H   H31       1.0  0.26976648321899427  0.6864371362338275  0.9145974404389534  1.0000
  H   H32       1.0  0.23086164972884404  0.7729133491043995  0.0858648717390622  1.0000
  H   H33       1.0  0.5615821056346135  0.1560773840132157  0.8852389004325403  1.0000
  H   H34       1.0  0.9378777364507797  0.2703490649402553  0.11447369379669674  1.0000
  H   H35       1.0  0.43842385252494864  0.8439272719204993  0.11476322897619443  1.0000
  H   H36       1.0  0.06211953547437331  0.7296474941176712  0.8855268846324833  1.0000
  H   H37       1.0  0.3607142611659739  0.06863972807848032  0.8904256969128213  1.0000
  H   H38       1.0  0.1388419871737199  0.1782128392050595  0.10948089505042453  1.0000
  H   H39       1.0  0.6392920198726343  0.9313609015447142  0.10957420366418104  1.0000
  H   H40       1.0  0.8611579144976814  0.8217887811580908  0.8905207739546696  1.0000
  H   H41       1.0  0.33528141866364797  0.1421371081184617  0.09616848265613237  1.0000
  H   H42       1.0  0.1643618375614793  0.04597582866462351  0.9038451550309786  1.0000
  H   H43       1.0  0.6647169415077769  0.8578605404174057  0.9038281506667616  1.0000
  H   H44       1.0  0.8356405403237517  0.9540298154519248  0.09615871784749427  1.0000
  C   C1        1.0  0.6820350990590284  0.45337252954195145  0.6642980536626412  1.0000
  C   C2        1.0  0.817726712016096  0.7891422075009372  0.335424965960577  1.0000
  C   C3        1.0  0.3179662304698567  0.5466200813627111  0.33569589908248787  1.0000
  C   C4        1.0  0.1822730370408365  0.2108584040986585  0.6645762762568737  1.0000
  C   C5        1.0  0.7011944797239735  0.48404240071315735  0.7877129553433662  1.0000
  C   C6        1.0  0.7985899084699284  0.6965440789427148  0.21199107213095653  1.0000
  C   C7        1.0  0.2988045252876148  0.5159471664133973  0.2122807604011498  1.0000
  C   C8        1.0  0.20140983921008626  0.3034564894744777  0.7880124802141567  1.0000
  C   C9        1.0  0.8163021202251174  0.48117559551411665  0.8657146805160779  1.0000
  C   C10       1.0  0.6834741599143258  0.6158049848267808  0.1338765095644803  1.0000
  C   C11       1.0  0.1836950190305302  0.5188139829132723  0.13427853850564728  1.0000
  C   C12       1.0  0.3165226216210256  0.38420072198055527  0.8661243330604976  1.0000
  C   C13       1.0  0.9193456452542108  0.44836689787157974  0.8249574022753235  1.0000
  C   C14       1.0  0.5803507462390626  0.6236540327310748  0.17456688991857305  1.0000
  C   C15       1.0  0.0806538180597585  0.5516257099397847  0.17503682378956853  1.0000
  C   C16       1.0  0.41964868177470294  0.37635066275557705  0.8254335009603935  1.0000
  C   C17       1.0  0.9048899803776961  0.42161299991283846  0.7060105957918382  1.0000
  C   C18       1.0  0.5948195308085005  0.7154780212621361  0.2935524438788235  1.0000
  C   C19       1.0  0.0951103986231132  0.5783856604798885  0.2939861909989361  1.0000
  C   C20       1.0  0.4051789629503801  0.28452663669253303  0.7064500087664101  1.0000
  C   C21       1.0  0.7888564017009542  0.4240988019931605  0.6238555955334917  1.0000
  C   C22       1.0  0.7108652415078893  0.8001571370278597  0.37577389658952143  1.0000
  C   C23       1.0  0.21114492828689896  0.5758938233056341  0.3761375871690831  1.0000
  C   C24       1.0  0.2891348290511715  0.199839405078805  0.6242274269238521  1.0000
  C   C25       1.0  0.7912653354380196  0.4090845772722815  0.507334397122591  1.0000
  C   C26       1.0  0.7084171686247913  0.9013690037864635  0.49232068892420233  1.0000
  C   C27       1.0  0.208735824744231  0.5909130974947344  0.4926606711568268  1.0000
  C   C28       1.0  0.29158398926259826  0.09862859900987792  0.5076782295679863  1.0000
  C   C29       1.0  0.7199226388875674  0.4029064457297907  0.3130846883836184  1.0000
  C   C30       1.0  0.7797742378977262  0.08932925738916711  0.6866061307535956  1.0000
  C   C31       1.0  0.2800755514782551  0.597096252274298  0.6869138305161044  1.0000
  C   C32       1.0  0.22022861502205868  0.910673354786283  0.3133967101233353  1.0000
  C   C33       1.0  0.6196123133909736  0.30855298734308434  0.1928807907638516  1.0000
  C   C34       1.0  0.8799522723752133  0.115075595849504  0.806844795992447  1.0000
  C   C35       1.0  0.3803871137048489  0.6914516793552965  0.8071211402002306  1.0000
  C   C36       1.0  0.12005073315904015  0.8849280250895079  0.19315847167212763  1.0000
  C   C37       1.0  0.6408410619703417  0.2724956212104104  0.08263179264467617  1.0000
  C   C38       1.0  0.8586324526000053  0.18916415409951534  0.9170496597455369  1.0000
  C   C39       1.0  0.3591628778188038  0.7275080372605842  0.9173694132536242  1.0000
  C   C40       1.0  0.14136838149039477  0.8108374462190823  0.08295302766350693  1.0000
  C   C41       1.0  0.5479276785876762  0.18633037736535132  0.9726850629888801  1.0000
  C   C42       1.0  0.9515526467658831  0.21322696886542045  0.027047723073046346  1.0000
  C   C43       1.0  0.4520792133677957  0.8136743017062146  0.027315774696148876  1.0000
  C   C44       1.0  0.04844710275001773  0.7867736571283076  0.972952749101843  1.0000
  C   C45       1.0  0.4350024815687448  0.1369893155545654  0.9748993559224601  1.0000
  C   C46       1.0  0.06457838680282178  0.1619957202249722  0.024965288221594103  1.0000
  C   C47       1.0  0.5650031709028982  0.8630133084578947  0.025102689953541996  1.0000
  C   C48       1.0  0.9354236858534648  0.8380079063644598  0.9750377310815848  1.0000
  C   C49       1.0  0.4205277024103112  0.17761862520595176  0.08767249970403414  1.0000
  C   C50       1.0  0.0791202014611656  0.08984736056860501  0.9122444625538293  1.0000
  C   C51       1.0  0.5794737616239729  0.822381023905777  0.912325732278333  1.0000
  C   C52       1.0  0.9208831088430641  0.9101582635033909  0.08776042872859345  1.0000
  C   C53       1.0  0.1874798371201507  0.2658778280087049  0.35274534019891496  1.0000
  C   C54       1.0  0.31225155867104354  0.912976053975122  0.6473462688829417  1.0000
  C   C55       1.0  0.8125276611624629  0.73413075656989  0.6472641350196967  1.0000
  C   C56       1.0  0.6877233377021881  0.08701446730803039  0.3526521968486875  1.0000
  S   S1        1.0  0.05280337175355501  0.2865840161286357  0.37489271352599474  1.0000
  S   S2        1.0  0.446977851051642  0.9117225595762336  0.6252893246154444  1.0000
  S   S3        1.0  0.9471991741013994  0.7134165209431629  0.625112353945859  1.0000
  S   S4        1.0  0.5530058855473782  0.08827711052865789  0.3747088087557345  1.0000
  N   N1        1.0  0.6966791648062056  0.4066433477717553  0.4184520561788858  1.0000
  N   N2        1.0  0.8029933586132572  0.9878119458406258  0.5812498552122777  1.0000
  N   N3        1.0  0.3033193484386628  0.5933553239218058  0.5815442338890975  1.0000
  N   N4        1.0  0.19700545710672662  0.012188657015251202  0.4187519086863247  1.0000
  N   N5        1.0  0.5102074933428256  0.2619026830300086  0.19380243259912786  1.0000
  N   N6        1.0  0.9894347500784021  0.0678317284690451  0.8060352343285401  1.0000
  N   N7        1.0  0.4897945802314041  0.7381009723476881  0.806199046618943  1.0000
  N   N8        1.0  0.010566390617860638  0.9321719325590723  0.1939659965281351  1.0000
  N   N9        1.0  0.2843191169108579  0.2505320045624657  0.33385906190012793  1.0000
  N   N10       1.0  0.21533598808433402  0.9164455651723104  0.666120742948607  1.0000
  N   N11       1.0  0.7156725368835737  0.7494705314766819  0.6661484990655994  1.0000
  N   N12       1.0  0.7846577049434131  0.08355202525085302  0.33387926882263486  1.0000
  O   O1        1.0  0.5691936965518636  0.4567080457152742  0.5951457286111294  1.0000
  O   O2        1.0  0.9306347655750355  0.861542008516615  0.4046176845621047  1.0000
  O   O3        1.0  0.43080839559041806  0.54328959461305  0.40485112811479246  1.0000
  O   O4        1.0  0.0693702750618002  0.1384565372592093  0.5953849642909859  1.0000
