data_image0
_chemical_formula_structural       La2H28C24N6O20
_chemical_formula_sum              "La2 H28 C24 N6 O20"
_cell_length_a       4.627783448782774
_cell_length_b       11.8960611889021
_cell_length_c       15.691134411763722
_cell_angle_alpha    85.49115745422463
_cell_angle_beta     84.70640190669296
_cell_angle_gamma    83.57895542220312

_space_group_name_H-M_alt    "P 1"
_space_group_IT_number       1

loop_
  _space_group_symop_operation_xyz
  'x, y, z'

loop_
  _atom_site_type_symbol
  _atom_site_label
  _atom_site_symmetry_multiplicity
  _atom_site_fract_x
  _atom_site_fract_y
  _atom_site_fract_z
  _atom_site_occupancy
  La  La1       1.0  0.17309411787361742  0.2284602794156285  0.3282809174199954  1.0000
  La  La2       1.0  0.8269234045494684  0.7715382447443134  0.6717209897929095  1.0000
  H   H1        1.0  0.5423718682000143  0.894704231718393  0.4379307478331853  1.0000
  H   H2        1.0  0.4576147964405592  0.1052806948320182  0.5620676534446574  1.0000
  H   H3        1.0  0.5211402859640089  0.8956178277473723  0.32481145607688683  1.0000
  H   H4        1.0  0.4788681117791711  0.10438240671949467  0.6751848616356854  1.0000
  H   H5        1.0  0.11198045130584688  0.8416611373388034  0.24866015652001747  1.0000
  H   H6        1.0  0.8880349085657642  0.1583373896425471  0.7513405335441661  1.0000
  H   H7        1.0  0.8290275809100789  0.7556675575947762  0.25038677696802125  1.0000
  H   H8        1.0  0.1709865977219494  0.24433522168180838  0.7496111544699886  1.0000
  H   H9        1.0  0.4521066124649522  0.7041409177440412  0.47075265603006505  1.0000
  H   H10       1.0  0.547903695756581  0.2958601491858203  0.5292473874663841  1.0000
  H   H11       1.0  0.19339583580452302  0.6041747875650499  0.4809914340749444  1.0000
  H   H12       1.0  0.8066209864468092  0.3958262961916147  0.5190071602670514  1.0000
  H   H13       1.0  0.7588735444027676  0.5507402626754823  0.3995644427619851  1.0000
  H   H14       1.0  0.2411370092980576  0.4492599626472041  0.600434367249477  1.0000
  H   H15       1.0  0.717113486916162  0.5415492770375678  0.28932672173402096  1.0000
  H   H16       1.0  0.28288863897959976  0.4584500958339388  0.7106704492230875  1.0000
  H   H17       1.0  0.9955983986575987  0.16007045589149976  0.05763978638451309  1.0000
  H   H18       1.0  0.004395557494809995  0.8399348514696923  0.9423553541954561  1.0000
  H   H19       1.0  0.0408325404897525  0.034906046765556184  0.1269894849033264  1.0000
  H   H20       1.0  0.959163114236169  0.965093350377117  0.8730008467321824  1.0000
  H   H21       1.0  0.4336453672320317  0.1919707877794892  0.009207986847101802  1.0000
  H   H22       1.0  0.5663493115653111  0.8080395980171602  0.9907893960407606  1.0000
  H   H23       1.0  0.7306288119173702  0.14920161162611828  0.935714831696373  1.0000
  H   H24       1.0  0.2693533264820402  0.8508070541411852  0.0642836201054848  1.0000
  H   H25       1.0  0.06743677982588277  0.3814440731689004  0.1736797910286043  1.0000
  H   H26       1.0  0.9325455525126288  0.6185484686040893  0.826320843564474  1.0000
  H   H27       1.0  0.24495623740148184  0.4753343992208555  0.2071825893852832  1.0000
  H   H28       1.0  0.7550345656020453  0.5246590361012906  0.7928113957860958  1.0000
  C   C1        1.0  0.7769441334889038  0.018282149840473497  0.36321565713393517  1.0000
  C   C2        1.0  0.22304974084578802  0.9817154625836506  0.6367920303605245  1.0000
  C   C3        1.0  0.6675471827378414  0.9009177750889988  0.37524942333857325  1.0000
  C   C4        1.0  0.3324476834047659  0.09907648039057187  0.6247514174906713  1.0000
  C   C5        1.0  0.011300789032468029  0.771625292319655  0.2861699675331053  1.0000
  C   C6        1.0  0.9887119371105939  0.22837493966576258  0.7138281469018466  1.0000
  C   C7        1.0  0.23166248634975514  0.6681357123023374  0.2845335508277032  1.0000
  C   C8        1.0  0.7683418053944066  0.3318636609091286  0.7154641997030566  1.0000
  C   C9        1.0  0.025574879716742837  0.7694356712488497  0.4427060871277106  1.0000
  C   C10       1.0  0.974430586673158  0.23055944334463152  0.5572956971793772  1.0000
  C   C11       1.0  0.27216294890284576  0.6757225495865598  0.4397054775370676  1.0000
  C   C12       1.0  0.7278565136708649  0.32427683548880987  0.5602944172839983  1.0000
  C   C13       1.0  0.59975545009123  0.5418685200133381  0.35331101669132176  1.0000
  C   C14       1.0  0.4002531799435686  0.45813086020082483  0.6466866178365791  1.0000
  C   C15       1.0  0.48110002235087285  0.4269546763307018  0.3728197093034211  1.0000
  C   C16       1.0  0.5188676058277224  0.5730513800393878  0.6271875619800086  1.0000
  C   C17       1.0  0.7200056480615658  0.1601091549679694  0.175469117864516  1.0000
  C   C18       1.0  0.2799979171354821  0.8398927525491754  0.8245304203959734  1.0000
  C   C19       1.0  0.8790237770257361  0.09892844741716537  0.09963313681669922  1.0000
  C   C20       1.0  0.1209704180121207  0.9010760120140873  0.9003620454284446  1.0000
  C   C21       1.0  0.6442444713670953  0.9358467965771098  0.06984805286728595  1.0000
  C   C22       1.0  0.35573236330911584  0.0641652444231156  0.9301522610020001  1.0000
  C   C23       1.0  0.5588529635480627  0.11704050684478769  0.9816628506545158  1.0000
  C   C24       1.0  0.4411284581950029  0.8829707027123347  0.018335476151833084  1.0000
  N   N1        1.0  0.9008520439967288  0.8076915081998163  0.3708308926398658  1.0000
  N   N2        1.0  0.09914644707707511  0.1923053012336453  0.6291690696159336  1.0000
  N   N3        1.0  0.3749641001310521  0.6373499406822132  0.3554579144658376  1.0000
  N   N4        1.0  0.6250524832348248  0.36265199100439094  0.6445406382109908  1.0000
  N   N5        1.0  0.6927105120074515  0.045003388518153976  0.049530704873184596  1.0000
  N   N6        1.0  0.30727573239098394  0.9550061385045508  0.9504663141104857  1.0000
  O   O1        1.0  0.5937347140690008  0.10184398148042109  0.3822332233109904  1.0000
  O   O2        1.0  0.406258676506205  0.8981477045783065  0.6177722635407505  1.0000
  O   O3        1.0  0.0397484038995728  0.02587933012725329  0.3347517119985426  1.0000
  O   O4        1.0  0.9602692782829153  0.9741182702295672  0.6652655386814814  1.0000
  O   O5        1.0  0.9370965886993617  0.8076353829733944  0.5137832462518973  1.0000
  O   O6        1.0  0.0628948946944092  0.19235547378372078  0.4862178772408825  1.0000
  O   O7        1.0  0.28568629132940526  0.6183897604813494  0.21681802607514564  1.0000
  O   O8        1.0  0.7143121931505618  0.38160704262934775  0.7831832113308153  1.0000
  O   O9        1.0  0.2166796209471613  0.4226309728819898  0.4011254639974879  1.0000
  O   O10       1.0  0.7833289919977774  0.5773760074277731  0.5988787508683515  1.0000
  O   O11       1.0  0.6541758456447938  0.33884431192713993  0.3569950559805193  1.0000
  O   O12       1.0  0.3458218733302942  0.6611473716501307  0.6430122275936085  1.0000
  O   O13       1.0  0.8635822678491606  0.22943889227136072  0.2074304216322957  1.0000
  O   O14       1.0  0.136422707582163  0.7705579055364637  0.7925738296447733  1.0000
  O   O15       1.0  0.4672934987949872  0.1365659822868466  0.2022075392770049  1.0000
  O   O16       1.0  0.532707622710447  0.8634291189811732  0.7977956361831033  1.0000
  O   O17       1.0  0.7634047312189763  0.8760815247093346  0.12803273509062052  1.0000
  O   O18       1.0  0.23656463058872396  0.12393388802246358  0.8719694988475268  1.0000
  O   O19       1.0  0.22410724339480476  0.3930989062756964  0.208469303897779  1.0000
  O   O20       1.0  0.7759134630599506  0.6068962865707092  0.7915212356229161  1.0000
