data_image0
_chemical_formula_structural       Na2Sm4P2H28C22N2O36
_chemical_formula_sum              "Na2 Sm4 P2 H28 C22 N2 O36"
_cell_length_a       9.757081203179593
_cell_length_b       10.473133340923184
_cell_length_c       11.602956107040178
_cell_angle_alpha    101.86363954065365
_cell_angle_beta     106.00717438327844
_cell_angle_gamma    87.71438513547231

_space_group_name_H-M_alt    "P 1"
_space_group_IT_number       1

loop_
  _space_group_symop_operation_xyz
  'x, y, z'

loop_
  _atom_site_type_symbol
  _atom_site_label
  _atom_site_symmetry_multiplicity
  _atom_site_fract_x
  _atom_site_fract_y
  _atom_site_fract_z
  _atom_site_occupancy
  Na  Na1       1.0  0.2795753109916959  0.15922157064996875  0.8646645630848439  1.0000
  Na  Na2       1.0  0.7204351323292287  0.8407869806373185  0.13534348802626542  1.0000
  Sm  Sm1       1.0  0.9056524151179985  0.9788579901591636  0.7087818895048699  1.0000
  Sm  Sm2       1.0  0.0943534855642838  0.0211498323213704  0.2912208035146833  1.0000
  Sm  Sm3       1.0  0.4207416711022347  0.4002966514433128  0.7111520608269473  1.0000
  Sm  Sm4       1.0  0.579248318364705  0.5996890722094222  0.2888481102066436  1.0000
  P   P1        1.0  0.09082712018339119  0.2155388026108441  0.6063541736293558  1.0000
  P   P2        1.0  0.9091789506799016  0.7844493729711036  0.3936488022436536  1.0000
  H   H1        1.0  0.8122969532220523  0.41625891522284775  0.7313153902162314  1.0000
  H   H2        1.0  0.18769415907789982  0.5837417877541997  0.2686734313990868  1.0000
  H   H3        1.0  0.8347316451044051  0.5736463138880196  0.928110525765362  1.0000
  H   H4        1.0  0.1652526222714883  0.4263683615692102  0.07187639004872182  1.0000
  H   H5        1.0  0.062446978096012594  0.7115468177564779  0.021687642128519292  1.0000
  H   H6        1.0  0.9375438615987902  0.28845903369916204  0.9782918362745219  1.0000
  H   H7        1.0  0.24651796086497058  0.689220294798183  0.9054803852540445  1.0000
  H   H8        1.0  0.7534770957797009  0.31077240762419217  0.09451014486306522  1.0000
  H   H9        1.0  0.05729188816479791  0.418615812470023  0.5395335614249958  1.0000
  H   H10       1.0  0.942713347920872  0.5813813078686894  0.46046592369592787  1.0000
  H   H11       1.0  0.892955153136029  0.3544295577872419  0.545432045503766  1.0000
  H   H12       1.0  0.10703833788946333  0.6455729606880141  0.45456020796588353  1.0000
  H   H13       1.0  0.10500779601660068  0.8199156581041865  0.6414997521651458  1.0000
  H   H14       1.0  0.8949906211290254  0.18009341634954984  0.35850000336872506  1.0000
  H   H15       1.0  0.228782778158056  0.885393581864847  0.7560285082578134  1.0000
  H   H16       1.0  0.7712250398162013  0.11461628403765906  0.24396894400086208  1.0000
  H   H17       1.0  0.7124640905590313  0.7334589819204497  0.6219744356021621  1.0000
  H   H18       1.0  0.2875445059698335  0.26654096423126833  0.37802629462341036  1.0000
  H   H19       1.0  0.6192252547677056  0.8372355548512335  0.5642395179805533  1.0000
  H   H20       1.0  0.3807743244140269  0.1627694270234628  0.4357656594928727  1.0000
  H   H21       1.0  0.30590495806846  0.15454390593580314  0.11636698928776917  1.0000
  H   H22       1.0  0.6940922827064141  0.8454632515862459  0.883632138426023  1.0000
  H   H23       1.0  0.41668770207494527  0.2617390722043781  0.11593215082407939  1.0000
  H   H24       1.0  0.5833179896195944  0.7382618341485314  0.8840725217452103  1.0000
  H   H25       1.0  0.4013901594089049  0.9593403007963064  0.6985373551910357  1.0000
  H   H26       1.0  0.5986084062464556  0.04066970306670471  0.3014643476510628  1.0000
  H   H27       1.0  0.47341958473828777  0.9150137573264274  0.8245815511660908  1.0000
  H   H28       1.0  0.5265820241814723  0.08499521795826584  0.17541881111685598  1.0000
  C   C1        1.0  0.013822024306456593  0.4663573705981463  0.7134462861004778  1.0000
  C   C2        1.0  0.9861799680370354  0.5336438856399326  0.2865482398430217  1.0000
  C   C3        1.0  0.9076257769381613  0.4769603729497049  0.7739604646885283  1.0000
  C   C4        1.0  0.09237786328931459  0.5230435700827059  0.2260427072139137  1.0000
  C   C5        1.0  0.9202814801403109  0.5654771917442504  0.8835404619214343  1.0000
  C   C6        1.0  0.07971697149930182  0.43453988779301517  0.11645319054028394  1.0000
  C   C7        1.0  0.0440868979464994  0.6424156545804607  0.9347594752141076  1.0000
  C   C8        1.0  0.9559209301074246  0.3575952091084389  0.06523732256824395  1.0000
  C   C9        1.0  0.1481654981319593  0.6319414182692854  0.8735682107982116  1.0000
  C   C10       1.0  0.8518372770211258  0.3680549299423532  0.12642545346901812  1.0000
  C   C11       1.0  0.005630730621987791  0.37483398780828747  0.5954458877487169  1.0000
  C   C12       1.0  0.9943645710741151  0.6251646101629476  0.4045441845564994  1.0000
  C   C13       1.0  0.6827243216389576  0.2023985673596798  0.7722390117972822  1.0000
  C   C14       1.0  0.3172663642332979  0.7975918261317719  0.22777002851594838  1.0000
  C   C15       1.0  0.6295077199136402  0.16228300876645116  0.6296769419794828  1.0000
  C   C16       1.0  0.3704827050028356  0.8377045053277  0.3703297254551289  1.0000
  C   C17       1.0  0.061497517205992794  0.04831539710514221  0.007317585084337  1.0000
  C   C18       1.0  0.9385144641803864  0.9516943821567169  0.9926789416500695  1.0000
  C   C19       1.0  0.4542940084173424  0.44374984685488533  0.005890232580810588  1.0000
  C   C20       1.0  0.5456948768062092  0.5562319187086261  0.9941123541084025  1.0000
  C   C21       1.0  0.5715871496291314  0.5273771964445615  0.5461832293324704  1.0000
  C   C22       1.0  0.4284089868446017  0.4726124567699089  0.4538103337248316  1.0000
  N   N1        1.0  0.1317510052301145  0.5467547037199907  0.7648920578309983  1.0000
  N   N2        1.0  0.8682514384672756  0.45324532680793783  0.23511179520402686  1.0000
  O   O1        1.0  0.024833479640811593  0.1514174059436826  0.6863302184048051  1.0000
  O   O2        1.0  0.9751543862894536  0.8485869417644454  0.3136733887983567  1.0000
  O   O3        1.0  0.05888056221093759  0.14276821912426396  0.4731737781038418  1.0000
  O   O4        1.0  0.941121457686279  0.8572219930863556  0.5268305488638276  1.0000
  O   O5        1.0  0.2511885532897437  0.23890939204823508  0.6685828275203106  1.0000
  O   O6        1.0  0.7488177626827408  0.7610982253009269  0.3314276708529178  1.0000
  O   O7        1.0  0.23083001563522026  0.5438591846538119  0.7058982671862069  1.0000
  O   O8        1.0  0.7691714462867411  0.45612628934097205  0.29409979228638866  1.0000
  O   O9        1.0  0.7878596089138981  0.14195662049274924  0.8250210513023504  1.0000
  O   O10       1.0  0.2121344633855813  0.8580345804465497  0.17499141032970308  1.0000
  O   O11       1.0  0.6176149010717182  0.29289980319368425  0.8250800751376701  1.0000
  O   O12       1.0  0.3823677390336471  0.7070820923307864  0.17492389983795684  1.0000
  O   O13       1.0  0.6995539070148097  0.07723407793178441  0.5769935370999589  1.0000
  O   O14       1.0  0.30044223108637874  0.9227600958387473  0.4230156310794513  1.0000
  O   O15       1.0  0.5189863053644216  0.2200245094689706  0.5790692594757302  1.0000
  O   O16       1.0  0.48100178696987667  0.7799611663345873  0.4209348433660764  1.0000
  O   O17       1.0  0.0855090318951142  0.0665127315670304  0.9103277766343325  1.0000
  O   O18       1.0  0.9144893995274045  0.9334888061790997  0.08965920446793528  1.0000
  O   O19       1.0  0.1283775030085863  0.1026569053382502  0.1157178967063572  1.0000
  O   O20       1.0  0.8716256412913523  0.8973392605343877  0.8842827056530355  1.0000
  O   O21       1.0  0.37367215191505915  0.378978714878727  0.908207986456823  1.0000
  O   O22       1.0  0.6263127195216925  0.6210271297836203  0.09177808380175632  1.0000
  O   O23       1.0  0.4674834056255222  0.4253675874546445  0.11301706456612239  1.0000
  O   O24       1.0  0.5325401336200954  0.574636393671888  0.8870029695387487  1.0000
  O   O25       1.0  0.5879168132631989  0.5230339452406341  0.6570209931725941  1.0000
  O   O26       1.0  0.4121052753790408  0.4769687468767432  0.3429734647778134  1.0000
  O   O27       1.0  0.66134480409292  0.5736706689855212  0.5039477337363821  1.0000
  O   O28       1.0  0.3386709301822464  0.42632569799854997  0.496070916862152  1.0000
  O   O29       1.0  0.1294567197390961  0.8493213252397143  0.7310103091266315  1.0000
  O   O30       1.0  0.8705530070171719  0.1506805606360757  0.26899018165749305  1.0000
  O   O31       1.0  0.6959145845773307  0.8281006912281372  0.6385027916993735  1.0000
  O   O32       1.0  0.3040866466856115  0.17189844294687626  0.36149891177772986  1.0000
  O   O33       1.0  0.3948902331375024  0.1666569327333036  0.09381811240468349  1.0000
  O   O34       1.0  0.6051169722659324  0.8333517405154041  0.9061884646958305  1.0000
  O   O35       1.0  0.3908822414110702  0.9640027166078012  0.7804954230162409  1.0000
  O   O36       1.0  0.609119694767159  0.03601111085461641  0.21950687045417538  1.0000
