data_image0
_chemical_formula_structural       Sr2P4H24C28O20
_chemical_formula_sum              "Sr2 P4 H24 C28 O20"
_cell_length_a       5.515494841313734
_cell_length_b       7.800918463416606
_cell_length_c       19.68073550255286
_cell_angle_alpha    101.44434386598081
_cell_angle_beta     98.75229802501659
_cell_angle_gamma    90.01294162964453

_space_group_name_H-M_alt    "P 1"
_space_group_IT_number       1

loop_
  _space_group_symop_operation_xyz
  'x, y, z'

loop_
  _atom_site_type_symbol
  _atom_site_label
  _atom_site_symmetry_multiplicity
  _atom_site_fract_x
  _atom_site_fract_y
  _atom_site_fract_z
  _atom_site_occupancy
  Sr  Sr1       1.0  0.25002079536992733  0.8254973931465981  1.7132301394391898e-05  1.0000
  Sr  Sr2       1.0  0.7499799559121453  0.17450258110239497  0.9999832337846253  1.0000
  P   P1        1.0  0.7673116178001107  0.8016066791441502  0.10624978478639234  1.0000
  P   P2        1.0  0.7326511968442799  0.6953311007695289  0.893836318246741  1.0000
  P   P3        1.0  0.23269103409428732  0.19839330714604128  0.8937511525255384  1.0000
  P   P4        1.0  0.26735114268993937  0.3046675666943273  0.10616247180234235  1.0000
  H   H1        1.0  0.5685537987513029  0.5269929375951816  0.08552665149808547  1.0000
  H   H2        1.0  0.9313175914237771  0.4413025357769697  0.914397850444878  1.0000
  H   H3        1.0  0.4314431955456115  0.47300832108412283  0.914472676066502  1.0000
  H   H4        1.0  0.06868110373680739  0.558694806827006  0.08560122572135498  1.0000
  H   H5        1.0  0.6827123770608876  0.922656920689448  0.5041044962954756  1.0000
  H   H6        1.0  0.8177285873555531  0.41801686661388965  0.49603358783274115  1.0000
  H   H7        1.0  0.3173383488086897  0.07734724748505778  0.49590036635267126  1.0000
  H   H8        1.0  0.18221507352414787  0.5819932591845999  0.5039611400217295  1.0000
  H   H9        1.0  0.057831580829493086  0.7246597332355049  0.23641861097769373  1.0000
  H   H10       1.0  0.44204583949152704  0.4884245561846824  0.7636836856402736  1.0000
  H   H11       1.0  0.9421950604583385  0.2753508364374185  0.7635824103842521  1.0000
  H   H12       1.0  0.5579494807579833  0.5115675514917155  0.23631842985064805  1.0000
  H   H13       1.0  0.9826819180091276  0.7913146463464286  0.3605374745794164  1.0000
  H   H14       1.0  0.5172995393745337  0.4305700657593903  0.6395834361802668  1.0000
  H   H15       1.0  0.01735225735597369  0.20869988929419483  0.6394646109779669  1.0000
  H   H16       1.0  0.48267569860840337  0.5694284752330391  0.3604175129756157  1.0000
  H   H17       1.0  0.3220007174052382  0.051653328690520084  0.2989353909968172  1.0000
  H   H18       1.0  0.1780544646828729  0.7527911900575929  0.7011921759107904  1.0000
  H   H19       1.0  0.678012917216989  0.9483362591667797  0.7010676313943802  1.0000
  H   H20       1.0  0.8219235690721334  0.24720733634114103  0.2988022532001863  1.0000
  H   H21       1.0  0.39500324197154396  0.9869153190442644  0.17483863233586305  1.0000
  H   H22       1.0  0.10495176969855885  0.8124494034755685  0.8252677618211093  1.0000
  H   H23       1.0  0.6049994581879331  0.013074214614689994  0.8251645385316875  1.0000
  H   H24       1.0  0.8950464575926841  0.18754400069824576  0.17472844838840015  1.0000
  C   C1        1.0  0.7304440335749048  0.8502017563602917  0.19751770950544054  1.0000
  C   C2        1.0  0.7695064459713804  0.6528501422688676  0.8025806403186377  1.0000
  C   C3        1.0  0.26956754224211465  0.1497930406146182  0.8024826032158072  1.0000
  C   C4        1.0  0.23049028288856724  0.3471432653341892  0.19741806366365464  1.0000
  C   C5        1.0  0.8956926729891134  0.7951885828675881  0.24991839677562658  1.0000
  C   C6        1.0  0.6042575857679819  0.5453635310445862  0.7501743634990345  1.0000
  C   C7        1.0  0.10432826780360216  0.20481803030043716  0.7500816207836818  1.0000
  C   C8        1.0  0.39573764331881006  0.45463380036902373  0.2498261243809593  1.0000
  C   C9        1.0  0.8536343262669132  0.8317556073796553  0.3194312305046337  1.0000
  C   C10       1.0  0.6463992656197987  0.5122208821231736  0.6806721333489845  1.0000
  C   C11       1.0  0.14639419552629102  0.16824843950614368  0.6805713749306573  1.0000
  C   C12       1.0  0.35358118488196055  0.48777114211567596  0.3193279665002463  1.0000
  C   C13       1.0  0.6449478744765356  0.9227293892062886  0.3367255638844354  1.0000
  C   C14       1.0  0.8552088885091532  0.5858243875577498  0.6633935100781084  1.0000
  C   C15       1.0  0.35508404904400936  0.0772668255288451  0.6632765387541465  1.0000
  C   C16       1.0  0.14476981554757629  0.414174164625045  0.3366060273640129  1.0000
  C   C17       1.0  0.48148292159036993  0.979495382914507  0.2844454549280257  1.0000
  C   C18       1.0  0.018589808273723883  0.6950541307301419  0.7156639064025325  1.0000
  C   C19       1.0  0.518525099673873  0.0204967858446139  0.715556061646218  1.0000
  C   C20       1.0  0.9813919167781292  0.3049391882785528  0.284331760271847  1.0000
  C   C21       1.0  0.5233724692610194  0.9432508522351666  0.21530016960980441  1.0000
  C   C22       1.0  0.9766379107014415  0.7281353754104386  0.7848025627331052  1.0000
  C   C23       1.0  0.47663588715408156  0.05674132941598489  0.7847039011300081  1.0000
  C   C24       1.0  0.02334938212705138  0.2718579745650445  0.21519379595276422  1.0000
  C   C25       1.0  0.5860918056276956  0.9588114553181128  0.40940223211483573  1.0000
  C   C26       1.0  0.9141250191007797  0.5491867333314315  0.590703243361048  1.0000
  C   C27       1.0  0.41393327422426296  0.04118735406170518  0.5906029018120263  1.0000
  C   C28       1.0  0.08580681984256697  0.45080500877717355  0.4092881346119696  1.0000
  O   O1        1.0  0.029825234849610582  0.7467463053694486  0.09915043394271085  1.0000
  O   O2        1.0  0.47013285467960486  0.6475283462707037  0.9009368182560348  1.0000
  O   O3        1.0  0.9701771717147806  0.2532523646728179  0.9008488669394904  1.0000
  O   O4        1.0  0.5298661287086261  0.3524755414752221  0.09906328839522156  1.0000
  O   O5        1.0  0.6734707571045957  0.9513816960003818  0.07177653745672785  1.0000
  O   O6        1.0  0.8266153137850691  0.8795636824724723  0.9284018622776313  1.0000
  O   O7        1.0  0.3265375738360986  0.04861963234770168  0.9282257066301867  1.0000
  O   O8        1.0  0.17339075994362216  0.12043500649537718  0.07159755939015608  1.0000
  O   O9        1.0  0.5741076019458615  0.6462143725750947  0.06917149554016076  1.0000
  O   O10       1.0  0.9257489206268301  0.5768972093836165  0.9308217964835632  1.0000
  O   O11       1.0  0.42589131441219036  0.3537895125924208  0.9308281002779776  1.0000
  O   O12       1.0  0.07424984156392608  0.42310013579876216  0.06917779051578778  1.0000
  O   O13       1.0  0.39971758983185873  0.041048743858695495  0.4233079842472946  1.0000
  O   O14       1.0  0.10008857661238577  0.6179943474142107  0.5767382701538181  1.0000
  O   O15       1.0  0.6003044177321114  0.9589134177024831  0.576694179236071  1.0000
  O   O16       1.0  0.8998677356751017  0.3820302124795488  0.42325291535325943  1.0000
  O   O17       1.0  0.7399394181759006  0.8945911605299056  0.4554727939099477  1.0000
  O   O18       1.0  0.7607202676883772  0.43836617462963545  0.5446613652987293  1.0000
  O   O19       1.0  0.26012836091394576  0.1054353297905593  0.5445328465904851  1.0000
  O   O20       1.0  0.23924792419359156  0.5616388736535781  0.45534037277100464  1.0000
