data_image0
_chemical_formula_structural       Al6H46C70O28
_chemical_formula_sum              "Al6 H46 C70 O28"
_cell_length_a       12.066878126020725
_cell_length_b       12.320470479532835
_cell_length_c       26.989955926665047
_cell_angle_alpha    82.77308262476252
_cell_angle_beta     82.48085646498579
_cell_angle_gamma    62.99272263142718

_space_group_name_H-M_alt    "P 1"
_space_group_IT_number       1

loop_
  _space_group_symop_operation_xyz
  'x, y, z'

loop_
  _atom_site_type_symbol
  _atom_site_label
  _atom_site_symmetry_multiplicity
  _atom_site_fract_x
  _atom_site_fract_y
  _atom_site_fract_z
  _atom_site_occupancy
  Al  Al1       1.0  0.40203926856490585  0.4034480819978724  0.5096389958449947  1.0000
  Al  Al2       1.0  0.6615561224460651  0.4213351672147496  0.4956594460917144  1.0000
  Al  Al3       1.0  0.42361469069355456  0.656012991478697  0.4971158982087687  1.0000
  Al  Al4       1.0  0.9325935054134717  0.9344194560246707  0.9785251577925677  1.0000
  Al  Al5       1.0  0.9137702086225731  0.6802256418315338  0.9955075354777491  1.0000
  Al  Al6       1.0  0.674600679031755  0.9133334617651343  0.9941017862691055  1.0000
  H   H1        1.0  0.36175274271104035  0.6603523754131615  0.2706714413507568  1.0000
  H   H2        1.0  0.7916382382773578  0.26597582217414123  0.2662214280674107  1.0000
  H   H3        1.0  0.2385758907178542  0.8099267659647322  0.2697849440340931  1.0000
  H   H4        1.0  0.8680823966805917  0.10627810223259357  0.2795454851021546  1.0000
  H   H5        1.0  0.7889833304277047  0.23916887699675018  0.1820241458057339  1.0000
  H   H6        1.0  0.5551179055351414  0.3759785747138836  0.2696836882692181  1.0000
  H   H7        1.0  0.551624656557202  0.34216163989136555  0.18660380827424208  1.0000
  H   H8        1.0  0.8706671147292226  0.08005955769622371  0.1948986628173444  1.0000
  H   H9        1.0  0.48410074462059793  0.7333558918859636  0.802749013417653  1.0000
  H   H10       1.0  0.4673253189717812  0.7157782316956373  0.7191266689194222  1.0000
  H   H11       1.0  0.7383047777079668  0.7864467891932208  0.6797580480166374  1.0000
  H   H12       1.0  0.3398236211892325  0.6316230703099777  0.190808317171701  1.0000
  H   H13       1.0  0.5742903926090579  0.8509009322942231  0.6911756550265409  1.0000
  H   H14       1.0  0.5919040609091725  0.8687418070093571  0.7746944243433731  1.0000
  H   H15       1.0  0.9775757302860842  0.7339842480089657  0.3091867085721205  1.0000
  H   H16       1.0  0.7561126749332345  0.8025470315069538  0.7632510641653666  1.0000
  H   H17       1.0  0.7913134216724844  0.46104304708931204  0.7118255898184598  1.0000
  H   H18       1.0  0.8679879548577035  0.5533232949963393  0.6917304026080727  1.0000
  H   H19       1.0  0.8110574104672282  0.47847780417426816  0.7951362913949181  1.0000
  H   H20       1.0  0.5566736618079986  0.5556597627728551  0.7276332633285205  1.0000
  H   H21       1.0  0.5728519844520722  0.5733023382755817  0.8111152049931077  1.0000
  H   H22       1.0  0.8842388101635379  0.5739045703607886  0.7750815691358993  1.0000
  H   H23       1.0  0.10458262877055087  0.5283374321613366  0.2208374722198272  1.0000
  H   H24       1.0  0.02505838072289621  0.8511403178121102  0.29537707493058457  1.0000
  H   H25       1.0  0.9874888824104745  0.8604739332210161  0.21180733318814754  1.0000
  H   H26       1.0  0.9523464963572793  0.7352795115760244  0.2247656100959219  1.0000
  H   H27       1.0  0.30913865607497837  0.4851296621027004  0.28247499711118707  1.0000
  H   H28       1.0  0.26338299568229934  0.48622186844037424  0.20148565552484138  1.0000
  H   H29       1.0  0.06581554373395453  0.9543428448244385  0.16250857267594648  1.0000
  H   H30       1.0  0.11963872837230856  0.9637437457203576  0.21955696094690316  1.0000
  H   H31       1.0  0.16849466189479056  0.0206073445898838  0.16171945978950927  1.0000
  H   H32       1.0  0.3444395798445896  0.8268824628993839  0.1798419422999871  1.0000
  H   H33       1.0  0.2714753743039254  0.8040213162796802  0.13250027725717214  1.0000
  H   H34       1.0  0.46925371162005564  0.25495630190373214  0.20684389816612733  1.0000
  H   H35       1.0  0.1765216209864064  0.33549319686151347  0.2642363143164417  1.0000
  H   H36       1.0  0.28552195641010064  0.2911823137311558  0.31005130602558484  1.0000
  H   H37       1.0  0.13431217607897855  0.3026644526900171  0.3278651208255638  1.0000
  H   H38       1.0  0.15251935404093334  0.48279591794558036  0.35292135419249593  1.0000
  H   H39       1.0  0.039167845773590663  0.5285088507979411  0.3093271827373414  1.0000
  H   H40       1.0  0.4672746767569222  0.29413073380191435  0.28961458923282624  1.0000
  H   H41       1.0  0.741130533783803  0.9883039062949452  0.3073682455767681  1.0000
  H   H42       1.0  0.576659562122167  0.0656080319484502  0.3098859239096469  1.0000
  H   H43       1.0  0.5861512023474448  0.0267282572821586  0.22630546540468538  1.0000
  H   H44       1.0  0.7508138993527853  0.9551324130250264  0.2231387133317426  1.0000
  H   H45       1.0  0.28705443058711927  0.3051957190019436  0.5521233098464364  1.0000
  H   H46       1.0  0.049519192194679804  0.0310486065752613  0.9958043061871462  1.0000
  C   C1        1.0  0.6212493746953457  0.2810109755984129  0.43511621385805904  1.0000
  C   C2        1.0  0.2563717323002025  0.7116017111856507  0.20454178856449798  1.0000
  C   C3        1.0  0.14564891602137922  0.6820445233368135  0.19951931319027238  1.0000
  C   C4        1.0  0.616070701062661  0.6143576840733476  0.41752533607447617  1.0000
  C   C5        1.0  0.18198335002824007  0.5507752436181121  0.2235080121649631  1.0000
  C   C6        1.0  0.20839855547865938  0.5405983030891264  0.2790230196338257  1.0000
  C   C7        1.0  0.12319301223803349  0.6902752041339042  0.14749296039404666  1.0000
  C   C8        1.0  0.2006706556196037  0.6632173936517488  0.34616626008158136  1.0000
  C   C9        1.0  0.2258613186276862  0.6517429491627668  0.38925938237624536  1.0000
  C   C10       1.0  0.5522554021199755  0.2888487391659993  0.26739848811278216  1.0000
  C   C11       1.0  0.6623232020755554  0.06199075747036891  0.28873949680066596  1.0000
  C   C12       1.0  0.6608640618621847  0.6661103119176772  0.26854132669381414  1.0000
  C   C13       1.0  0.6674315662866448  0.038763087048067704  0.23326648389642904  1.0000
  C   C14       1.0  0.6849301705842096  0.1021852911284853  0.10313766399512757  1.0000
  C   C15       1.0  0.6666189185541214  0.18465347070716828  0.2919581989294854  1.0000
  C   C16       1.0  0.27776806235004875  0.6190249513144223  0.4368417659892642  1.0000
  C   C17       1.0  0.5523850588163839  0.26543223228404866  0.2124283988353781  1.0000
  C   C18       1.0  0.670188382165847  0.14778818850638936  0.1983053968869726  1.0000
  C   C19       1.0  0.7874404295905748  0.1618240827581019  0.20674430092766727  1.0000
  C   C20       1.0  0.7869718812642789  0.1804635828232648  0.2623661442998468  1.0000
  C   C21       1.0  0.6749559152419735  0.124847931581499  0.14651997042724924  1.0000
  C   C22       1.0  0.6602095374443097  0.20796174078669344  0.34381951056415255  1.0000
  C   C23       1.0  0.6513788187411581  0.6530818050649569  0.3188397467870416  1.0000
  C   C24       1.0  0.6497345486287713  0.23185271119267273  0.3870437980998034  1.0000
  C   C25       1.0  0.55547662301246  0.6435695348333469  0.7321436716470728  1.0000
  C   C26       1.0  0.6620103478391927  0.7781286153566356  0.7043120367809123  1.0000
  C   C27       1.0  0.6733460943857  0.7895123655672194  0.7597235179589461  1.0000
  C   C28       1.0  0.6155466281307298  0.2819944928176952  0.5771969492889679  1.0000
  C   C29       1.0  0.7004855626581875  0.6946395461990491  0.8876487770015301  1.0000
  C   C30       1.0  0.6658735399604581  0.6529105353735574  0.6983795617214595  1.0000
  C   C31       1.0  0.5664142563935928  0.6551290119437141  0.7875949983106664  1.0000
  C   C32       1.0  0.6842622848793739  0.6721862125367579  0.7921352708726557  1.0000
  C   C33       1.0  0.8011993636715006  0.5612985420644492  0.7715812798840886  1.0000
  C   C34       1.0  0.6413160756807913  0.6401257912457012  0.36482013629821347  1.0000
  C   C35       1.0  0.7896882988419947  0.5491776564549724  0.7162921479799066  1.0000
  C   C36       1.0  0.6931317006461342  0.6840073461925797  0.844093907346391  1.0000
  C   C37       1.0  0.6545380729565269  0.6428587862812519  0.6464814120541504  1.0000
  C   C38       1.0  0.6450035890436042  0.6337373884971386  0.6029928307214973  1.0000
  C   C39       1.0  0.10822184041803247  0.6909436299088156  0.8634861632324657  1.0000
  C   C40       1.0  0.6213326073544608  0.6107997637812445  0.5557856106056676  1.0000
  C   C41       1.0  0.13258292893365123  0.6783286642494275  0.8183958044125034  1.0000
  C   C42       1.0  0.15661288616956884  0.6669741790107154  0.7689679284049331  1.0000
  C   C43       1.0  0.17627121693315928  0.6589394161316662  0.7232383327969599  1.0000
  C   C44       1.0  0.2010752675966714  0.6491347700955786  0.6737316881287825  1.0000
  C   C45       1.0  0.2652179115397005  0.7161426384260565  0.26081350810743936  1.0000
  C   C46       1.0  0.226333919905926  0.6396014236867983  0.6284799889592492  1.0000
  C   C47       1.0  0.6911754546206623  0.1028463216329669  0.862129853694867  1.0000
  C   C48       1.0  0.6821245603082744  0.12841290373473416  0.8169486033869189  1.0000
  C   C49       1.0  0.6730097548359526  0.1547040273080498  0.7675084665577784  1.0000
  C   C50       1.0  0.665893158865508  0.1771092177936211  0.7218453477082105  1.0000
  C   C51       1.0  0.6556014314645965  0.2041223050256704  0.6724919764782769  1.0000
  C   C52       1.0  0.2781791643357465  0.6140109099213262  0.5778386660551788  1.0000
  C   C53       1.0  0.6444418357161723  0.23100965272487167  0.6274712344280715  1.0000
  C   C54       1.0  0.0552277932797551  0.7228905998358925  0.0555824683720871  1.0000
  C   C55       1.0  0.7146610911692832  0.7255145822477188  0.07324203877350041  1.0000
  C   C56       1.0  0.04211524365425848  0.7613142764558134  0.2846830363770039  1.0000
  C   C57       1.0  0.7151803453973926  0.05454940215145849  0.05468287048817191  1.0000
  C   C58       1.0  0.05737914045899129  0.7218862868074112  0.9137790067528683  1.0000
  C   C59       1.0  0.7226962318039013  0.7185136749680012  0.934941629341928  1.0000
  C   C60       1.0  0.7174459432375218  0.053322069084764216  0.9127529398055855  1.0000
  C   C61       1.0  0.6882934618915899  0.7005780880260915  0.125917641219921  1.0000
  C   C62       1.0  0.6778839708740423  0.6888165874783853  0.17192656109921237  1.0000
  C   C63       1.0  0.6681548465735717  0.6766953685108136  0.2222352072640063  1.0000
  C   C64       1.0  0.2590833358042559  0.8224691063819948  0.1722074269188596  1.0000
  C   C65       1.0  0.14692538595951987  0.9466218768096231  0.17969274642070587  1.0000
  C   C66       1.0  0.14015892967167082  0.47798709549023494  0.31372669295074457  1.0000
  C   C67       1.0  0.022244222603454624  0.7668714632773045  0.228885934904163  1.0000
  C   C68       1.0  0.18638102486975328  0.3446864585432294  0.30324369583608046  1.0000
  C   C69       1.0  0.10171679469846154  0.6988574504356818  0.10403455256089697  1.0000
  C   C70       1.0  0.17825958875544506  0.6699189734560989  0.29418892698218  1.0000
  O   O1        1.0  0.3036369632453387  0.5124278428510324  0.4562510653286082  1.0000
  O   O2        1.0  0.637248276445135  0.8262528408829724  0.0527573872779996  1.0000
  O   O3        1.0  0.6318454260740226  0.03448859929256539  0.037209286685545385  1.0000
  O   O4        1.0  0.5158785912210533  0.3019601425941048  0.4576323681630825  1.0000
  O   O5        1.0  0.8207674791717141  0.035571592657945  0.9263152519148432  1.0000
  O   O6        1.0  0.031511375281112954  0.828117928697104  0.9241914075828389  1.0000
  O   O7        1.0  0.038117254901337154  0.6396362894028371  0.9428357180910749  1.0000
  O   O8        1.0  0.8249379062474703  0.6427450907600373  0.9536801541576877  1.0000
  O   O9        1.0  0.6424355849154184  0.8168352213861  0.9544847330344979  1.0000
  O   O10       1.0  0.6342834977211426  0.0270483953187508  0.9389478162371033  1.0000
  O   O11       1.0  0.8391988550204205  0.8413579066586575  0.989693860279793  1.0000
  O   O12       1.0  0.698968442234268  0.5104833426855888  0.536894595820975  1.0000
  O   O13       1.0  0.7045689819571097  0.3046544298773384  0.45056159295319986  1.0000
  O   O14       1.0  0.6949759950548967  0.5147355668279232  0.43803103502734325  1.0000
  O   O15       1.0  0.5133119828676341  0.6907554932446304  0.4382662454234918  1.0000
  O   O16       1.0  0.29868111096524813  0.6996366414116721  0.4550396822195352  1.0000
  O   O17       1.0  0.29519265589660654  0.5137913450963082  0.5633164930100633  1.0000
  O   O18       1.0  0.5084703571703814  0.3060944835997573  0.5655266634400462  1.0000
  O   O19       1.0  0.700116997692966  0.3028339012511764  0.5493473161404836  1.0000
  O   O20       1.0  0.5210023880882279  0.6889541248300616  0.5364685500804781  1.0000
  O   O21       1.0  0.30763252107803407  0.6946123812038607  0.552732413121248  1.0000
  O   O22       1.0  0.496908458337586  0.49485622114453787  0.5010206443468661  1.0000
  O   O23       1.0  0.8226231330051732  0.0313675774097817  0.03371846666308898  1.0000
  O   O24       1.0  0.0380901644547151  0.8231510851327002  0.03136917477625902  1.0000
  O   O25       1.0  0.02956336069436825  0.6408684834371741  0.041480868082395296  1.0000
  O   O26       1.0  0.8163903234813648  0.6478742522527768  0.05243052073885221  1.0000
  O   O27       1.0  0.31707992307743643  0.3185931708300984  0.5180352157410724  1.0000
  O   O28       1.0  0.017542773283175002  0.019287187359069  0.9669554618417349  1.0000
