data_image0
_chemical_formula_structural       Ag4H16C24N12
_chemical_formula_sum              "Ag4 H16 C24 N12"
_cell_length_a       3.651212175066668
_cell_length_b       12.429703615035722
_cell_length_c       14.517762321861095
_cell_angle_alpha    114.45545441925435
_cell_angle_beta     90.00024299111257
_cell_angle_gamma    89.99936281650065

_space_group_name_H-M_alt    "P 1"
_space_group_IT_number       1

loop_
  _space_group_symop_operation_xyz
  'x, y, z'

loop_
  _atom_site_type_symbol
  _atom_site_label
  _atom_site_symmetry_multiplicity
  _atom_site_fract_x
  _atom_site_fract_y
  _atom_site_fract_z
  _atom_site_occupancy
  Ag  Ag1       1.0  0.3967969180851226  0.6713028990460758  0.07415898212926914  1.0000
  Ag  Ag2       1.0  0.8967692310049954  0.828693716657746  0.9258414200734038  1.0000
  Ag  Ag3       1.0  0.6032014120649479  0.3286934807394034  0.9258340104332845  1.0000
  Ag  Ag4       1.0  0.10321540510559399  0.1713054226410762  0.0741628655452757  1.0000
  H   H1        1.0  0.6272616305348605  0.8518094623902429  0.31226901473733903  1.0000
  H   H2        1.0  0.12726161828631177  0.6481943460999491  0.6877363512843361  1.0000
  H   H3        1.0  0.3727230055426459  0.14819233548120542  0.6877368851287073  1.0000
  H   H4        1.0  0.8727558835635917  0.35180651746583896  0.31226440154050294  1.0000
  H   H5        1.0  0.7889409892243078  0.0398114508942626  0.4596173974097439  1.0000
  H   H6        1.0  0.28894972065311464  0.4601938780375507  0.54038467400661  1.0000
  H   H7        1.0  0.21101899746657438  0.960192998386219  0.5403894253623277  1.0000
  H   H8        1.0  0.7110623035841215  0.5398052107536628  0.45961477220598107  1.0000
  H   H9        1.0  0.7008216401054312  0.23336215701844057  0.4525901100205801  1.0000
  H   H10       1.0  0.20082075298267196  0.2666416662587067  0.5474058300936093  1.0000
  H   H11       1.0  0.29918490642730683  0.7666422417196658  0.5474118733437976  1.0000
  H   H12       1.0  0.7991857935979709  0.7333582919139945  0.4525925410672826  1.0000
  H   H13       1.0  0.42599910905290267  0.2476308649385857  0.2999934348979494  1.0000
  H   H14       1.0  0.9259759191339325  0.2523694471447656  0.6999973966551707  1.0000
  H   H15       1.0  0.5740129151167395  0.7523717373802513  0.7000051678230578  1.0000
  H   H16       1.0  0.07398406756004759  0.7476287002864695  0.29999621117989506  1.0000
  C   C1        1.0  0.44677676176376474  0.9456393135649109  0.22284357895691181  1.0000
  C   C2        1.0  0.9467589268481332  0.554359757813785  0.7771563551168157  1.0000
  C   C3        1.0  0.5532462177116457  0.0543624409873331  0.7771581728455316  1.0000
  C   C4        1.0  0.05323666447209519  0.4456402075870615  0.22284270738839498  1.0000
  C   C5        1.0  0.5875692006281666  0.9374132367969921  0.30980288500021647  1.0000
  C   C6        1.0  0.0875639755064412  0.562588028244008  0.6901981080284828  1.0000
  C   C7        1.0  0.41244556241070274  0.0625876339820408  0.6901985591682518  1.0000
  C   C8        1.0  0.9124480487125338  0.43741193712703846  0.3098009544753566  1.0000
  C   C9        1.0  0.6747673538594725  0.04235004348230121  0.3910919742395151  1.0000
  C   C10       1.0  0.17476357850600274  0.45765393195382154  0.6089095009724873  1.0000
  C   C11       1.0  0.32523919268952983  0.9576543768806407  0.6089120831550616  1.0000
  C   C12       1.0  0.8252566621860281  0.5423451640307776  0.39109063658281684  1.0000
  C   C13       1.0  0.6217829941964297  0.15355752599322872  0.3873516591597266  1.0000
  C   C14       1.0  0.12177491290744058  0.3464448235676302  0.6126443702264694  1.0000
  C   C15       1.0  0.3782345076095551  0.8464459817286212  0.6126493252256752  1.0000
  C   C16       1.0  0.87823163369886  0.6535533670288488  0.387353385665115  1.0000
  C   C17       1.0  0.47383129583559475  0.16263395681747997  0.3030662019027375  1.0000
  C   C18       1.0  0.973813330117636  0.33736713045258443  0.6969311513885259  1.0000
  C   C19       1.0  0.5261999000635312  0.8373695652961004  0.6969361651683242  1.0000
  C   C20       1.0  0.0261630894785227  0.662631922361797  0.303064838110032  1.0000
  C   C21       1.0  0.38817871615481175  0.05680876567708991  0.2200634778480079  1.0000
  C   C22       1.0  0.8881693732414886  0.44318910425761976  0.7799333505489798  1.0000
  C   C23       1.0  0.6118387857079312  0.9431912141005867  0.7799369673421737  1.0000
  C   C24       1.0  0.111823479295353  0.5568082025755743  0.2200640977090913  1.0000
  N   N1        1.0  0.3399554190494456  0.8617434686968651  0.13099310192009037  1.0000
  N   N2        1.0  0.8399416305286421  0.638254236909127  0.869007617407071  1.0000
  N   N3        1.0  0.6600538663801812  0.13825653272053987  0.8690094173009868  1.0000
  N   N4        1.0  0.16005669965937125  0.3617421933343011  0.1309902145592901  1.0000
  N   N5        1.0  0.2228367233097686  0.9184231853236186  0.07551072797066628  1.0000
  N   N6        1.0  0.7228230486244483  0.5815731630276845  0.9244880129560329  1.0000
  N   N7        1.0  0.777150651604444  0.08157683775834812  0.924493865282436  1.0000
  N   N8        1.0  0.27715337099737514  0.41842412221046743  0.07550736127321034  1.0000
  N   N9        1.0  0.24711833393053687  0.03565531708338201  0.1271235319665394  1.0000
  N   N10       1.0  0.7471042720228879  0.4643421662195522  0.8728716296626686  1.0000
  N   N11       1.0  0.7528799962332542  0.9643446843538899  0.8728789872554471  1.0000
  N   N12       1.0  0.2528666699314996  0.5356559739835447  0.1271212868280855  1.0000
