data_image0
_chemical_formula_structural       Zn4H48C72N8O12
_chemical_formula_sum              "Zn4 H48 C72 N8 O12"
_cell_length_a       4.8550041577806144
_cell_length_b       19.21850372960264
_cell_length_c       19.228561622643237
_cell_angle_alpha    89.08327112925478
_cell_angle_beta     82.69865297760077
_cell_angle_gamma    82.73699943206807

_space_group_name_H-M_alt    "P 1"
_space_group_IT_number       1

loop_
  _space_group_symop_operation_xyz
  'x, y, z'

loop_
  _atom_site_type_symbol
  _atom_site_label
  _atom_site_symmetry_multiplicity
  _atom_site_fract_x
  _atom_site_fract_y
  _atom_site_fract_z
  _atom_site_occupancy
  Zn  Zn1       1.0  0.39074254472014025  0.5608472744167301  0.9859824987630148  1.0000
  Zn  Zn2       1.0  0.9373272929917532  0.4392360015900252  0.014076867275711906  1.0000
  Zn  Zn3       1.0  0.04849715398859895  0.0140334715669681  0.5607853294792378  1.0000
  Zn  Zn4       1.0  0.6237740803694787  0.9860382455829537  0.43911042551992097  1.0000
  H   H1        1.0  0.30917860592012364  0.6652336609139908  0.6691064435934989  1.0000
  H   H2        1.0  0.046421458637673836  0.502593478710459  0.869651133568297  1.0000
  H   H3        1.0  0.7851744644247484  0.4431732733104212  0.7926958009929379  1.0000
  H   H4        1.0  0.07797458771459977  0.5975436309389437  0.5923107666249194  1.0000
  H   H5        1.0  0.7708526757960069  0.5065733594345261  0.5770198391514398  1.0000
  H   H6        1.0  0.5948659549274201  0.6973991413173906  0.9105807989192911  1.0000
  H   H7        1.0  0.6197216093481398  0.43100801137898503  0.6767883804774896  1.0000
  H   H8        1.0  0.7159010099991928  0.6989074392660299  0.6741153147466008  1.0000
  H   H9        1.0  0.8437251129758745  0.8103583353058994  0.6172910328689554  1.0000
  H   H10       1.0  0.44870961595056186  0.8090024266785535  0.8692032370439762  1.0000
  H   H11       1.0  0.6123496011881071  0.9178069999296241  0.8138792467792013  1.0000
  H   H12       1.0  0.5120239104209001  0.4357550264685983  0.950692228823776  1.0000
  H   H13       1.0  0.64366792587856  0.3349408873731647  0.33108384888051035  1.0000
  H   H14       1.0  0.42017522094864984  0.497587652248008  0.1305345273042064  1.0000
  H   H15       1.0  0.02145457777045562  0.5569612412925053  0.20753650683434438  1.0000
  H   H16       1.0  0.2671150344422342  0.4024758810654348  0.40780439490025333  1.0000
  H   H17       1.0  0.8524034707127082  0.4931362157514556  0.4230252769016261  1.0000
  H   H18       1.0  0.20330881183059543  0.3025986040377333  0.08937638738276378  1.0000
  H   H19       1.0  0.7263463859751762  0.5688562325047429  0.3233247443301934  1.0000
  H   H20       1.0  0.08897413425098916  0.30101833393374017  0.3259077482287722  1.0000
  H   H21       1.0  0.2716394788194236  0.18953390147645172  0.3826049117672312  1.0000
  H   H22       1.0  0.1283572796348337  0.19105462765911344  0.13072522669575187  1.0000
  H   H23       1.0  0.34532743223192575  0.08222635812894911  0.1859642468399585  1.0000
  H   H24       1.0  0.8981626227896694  0.5643426057761829  0.04927357686928249  1.0000
  H   H25       1.0  0.025293324937258825  0.33112552783876475  0.6652020436338049  1.0000
  H   H26       1.0  0.45030173916472177  0.13060550115635997  0.5024612129963089  1.0000
  H   H27       1.0  0.7710162528951583  0.20747933876175753  0.4430709170935003  1.0000
  H   H28       1.0  0.3258679471022744  0.4079690686765431  0.5976213090016884  1.0000
  H   H29       1.0  0.7249173396303022  0.4230666725259625  0.5067720841870553  1.0000
  H   H30       1.0  0.7082376297922436  0.0893661231113114  0.6974943662435749  1.0000
  H   H31       1.0  0.9502881254462279  0.3232847035055785  0.43103138073891495  1.0000
  H   H32       1.0  0.5839658844191714  0.3258165900110228  0.6989720746372186  1.0000
  H   H33       1.0  0.34494860204771516  0.3826868765779992  0.8104285418566235  1.0000
  H   H34       1.0  0.7432294783673538  0.1308382526013432  0.8091040757076726  1.0000
  H   H35       1.0  0.47064866702990565  0.18614329265734847  0.917893904801005  1.0000
  H   H36       1.0  0.05264935724814276  0.0494148628475273  0.43574930684268043  1.0000
  H   H37       1.0  0.02024216407584574  0.6688612390909798  0.3347886322047699  1.0000
  H   H38       1.0  0.083149276987285  0.8694433622644128  0.4972574413381566  1.0000
  H   H39       1.0  0.42071733321014176  0.7923345066479826  0.5566884739966226  1.0000
  H   H40       1.0  0.3284746566149578  0.5919162175318603  0.4023991578307218  1.0000
  H   H41       1.0  0.6519425560973601  0.57663916247445  0.49307105780191307  1.0000
  H   H42       1.0  0.49441311871041876  0.9106788666775782  0.3025371417824089  1.0000
  H   H43       1.0  0.7030353173176631  0.6764002292684024  0.5686499473659339  1.0000
  H   H44       1.0  0.6073990128920311  0.674225443515965  0.3011231608849911  1.0000
  H   H45       1.0  0.5371145914431353  0.6173996858415478  0.18968296164023707  1.0000
  H   H46       1.0  0.683813859382084  0.8691405542763776  0.19096159757988568  1.0000
  H   H47       1.0  0.5766178537309797  0.813848702252578  0.08211948981617209  1.0000
  H   H48       1.0  0.5374227765671475  0.9506592823071074  0.5641509794204962  1.0000
  C   C1        1.0  0.5715571080733775  0.7477179223911535  0.7743489752152897  1.0000
  C   C2        1.0  0.25909953479683145  0.6298031926125915  0.712251269406586  1.0000
  C   C3        1.0  0.33950716641226064  0.6365506439761434  0.7777216747298822  1.0000
  C   C4        1.0  0.02144323249493135  0.5288330867160481  0.7598965732500602  1.0000
  C   C5        1.0  0.10031446705058725  0.57472719985487  0.7024223941394965  1.0000
  C   C6        1.0  0.10971852568786002  0.5368398419644792  0.8263106041296311  1.0000
  C   C7        1.0  0.2687566558171353  0.5901564873903453  0.8342586428422222  1.0000
  C   C8        1.0  0.8483612073084711  0.4766244234824981  0.7486579670827425  1.0000
  C   C9        1.0  0.010228319301453894  0.5643306925160019  0.6361866554578839  1.0000
  C   C10       1.0  0.8424490814083041  0.5133509975319016  0.6276127777519562  1.0000
  C   C11       1.0  0.4990841423649568  0.66764131070898  0.8748265287410675  1.0000
  C   C12       1.0  0.7583856794020317  0.4697150826454859  0.684416322999752  1.0000
  C   C13       1.0  0.6836950775745831  0.7476072114362465  0.7036905512399655  1.0000
  C   C14       1.0  0.733758042042687  0.8709103751993936  0.7123095856522355  1.0000
  C   C15       1.0  0.7592534800014401  0.8095056605228663  0.6725488749747583  1.0000
  C   C16       1.0  0.5420579217830118  0.8089858112723719  0.8145357473253299  1.0000
  C   C17       1.0  0.6287945317296811  0.8697248530306538  0.7835972725962179  1.0000
  C   C18       1.0  0.823318758959949  0.9378824266886738  0.6811025964840596  1.0000
  C   C19       1.0  0.09430866671934267  0.25231036768994386  0.22562394632362978  1.0000
  C   C20       1.0  0.6016230744027807  0.37034877174231434  0.2879173078276267  1.0000
  C   C21       1.0  0.754609642220046  0.36357327650519283  0.2224379477917395  1.0000
  C   C22       1.0  0.31090192348891305  0.4713634098182737  0.2402977124221124  1.0000
  C   C23       1.0  0.3777819834910899  0.4254254129060655  0.29774999010378167  1.0000
  C   C24       1.0  0.47411981686349947  0.46337446691200057  0.17389879285273213  1.0000
  C   C25       1.0  0.6942431201996508  0.40999743375168407  0.1659347224980223  1.0000
  C   C26       1.0  0.07389291449464226  0.5234740557879718  0.2515367090646663  1.0000
  C   C27       1.0  0.2101927501839781  0.43570507346749565  0.3639400906147969  1.0000
  C   C28       1.0  0.9821499721847072  0.4865204305874755  0.3724851968564948  1.0000
  C   C29       1.0  0.042183416424649046  0.33241215040311534  0.1252011876740085  1.0000
  C   C30       1.0  0.9117039242469002  0.5302245051263199  0.3157152599901778  1.0000
  C   C31       1.0  0.13532812317195203  0.2523466482178804  0.29628676270222337  1.0000
  C   C32       1.0  0.3176743820268511  0.12905531942070775  0.2875644317036077  1.0000
  C   C33       1.0  0.24167574211747214  0.19044304785152383  0.32735770411717613  1.0000
  C   C34       1.0  0.16667619073756154  0.191058019423636  0.1854011264872355  1.0000
  C   C35       1.0  0.2832156910218016  0.1303035021107064  0.2162834783567789  1.0000
  C   C36       1.0  0.44274467966740605  0.0620833389705169  0.3187530561356837  1.0000
  C   C37       1.0  0.6805698361235524  0.22565708529602804  0.7477682442047495  1.0000
  C   C38       1.0  0.11080951837310234  0.28800472568040897  0.6297332036800753  1.0000
  C   C39       1.0  0.023613945344791765  0.22247290485304208  0.6365157065346594  1.0000
  C   C40       1.0  0.4493207673347328  0.2403748440676168  0.5287335022261955  1.0000
  C   C41       1.0  0.3248769914463095  0.2978725338397439  0.5746642181509856  1.0000
  C   C42       1.0  0.352769988466619  0.17394835257484687  0.5367250491939116  1.0000
  C   C43       1.0  0.14061760705614293  0.1659394248963082  0.5900978551800051  1.0000
  C   C44       1.0  0.6747932836297748  0.25154915490251983  0.47653928560666964  1.0000
  C   C45       1.0  0.4263495668632229  0.3640691362112421  0.5643609603523672  1.0000
  C   C46       1.0  0.6455979494826919  0.3725469436347666  0.5134427617583057  1.0000
  C   C47       1.0  0.8334679108618913  0.12519694505355972  0.6676721118883222  1.0000
  C   C48       1.0  0.7725851893942486  0.3157348365622923  0.4697004650936094  1.0000
  C   C49       1.0  0.5678036785844538  0.2962830572783659  0.74767976202574  1.0000
  C   C50       1.0  0.39513205371358134  0.28767048293281755  0.8709872079054719  1.0000
  C   C51       1.0  0.43048123629877444  0.32742447878577247  0.8095757464419648  1.0000
  C   C52       1.0  0.6493400638100152  0.18547499527847586  0.8090441437597562  1.0000
  C   C53       1.0  0.5017663064318825  0.21639887608569816  0.8697736597563476  1.0000
  C   C54       1.0  0.23906334957414524  0.31880081201805416  0.9380308464328095  1.0000
  C   C55       1.0  0.6536917925464465  0.7743453078250087  0.2522739109079808  1.0000
  C   C56       1.0  0.027107553217611154  0.7119852120987956  0.3702435506653358  1.0000
  C   C57       1.0  0.8815116238800087  0.7775419306904253  0.3634758140558745  1.0000
  C   C58       1.0  0.21696158187673098  0.7595443338700534  0.47117669567956005  1.0000
  C   C59       1.0  0.1955709072086262  0.7020595825096764  0.42530200437338544  1.0000
  C   C60       1.0  0.06274528296165713  0.8260605295602518  0.46312325474838895  1.0000
  C   C61       1.0  0.8959214509608978  0.834084744069294  0.40981493282217224  1.0000
  C   C62       1.0  0.40141800935231897  0.7482697777448025  0.5233068008710191  1.0000
  C   C63       1.0  0.3522262074223548  0.6357904607350304  0.4356117517738766  1.0000
  C   C64       1.0  0.5291032839994186  0.6272152616499651  0.4864428640905841  1.0000
  C   C65       1.0  0.6256239421002545  0.8748579047507546  0.3323246886002238  1.0000
  C   C66       1.0  0.5562110750841779  0.6840137663767437  0.5300968387564282  1.0000
  C   C67       1.0  0.6111837012090003  0.7037376775639005  0.25240304814288084  1.0000
  C   C68       1.0  0.5545439940310144  0.7123294438694074  0.12904423214573768  1.0000
  C   C69       1.0  0.5672387319243835  0.6726103117610834  0.19050116001292844  1.0000
  C   C70       1.0  0.6445731804502512  0.8145013230315925  0.19098752887428105  1.0000
  C   C71       1.0  0.5893755202231071  0.7835661557306681  0.13022759041660237  1.0000
  C   C72       1.0  0.4965949646831971  0.6812063777469392  0.062049236942691294  1.0000
  N   N1        1.0  0.37479779131332663  0.6116297025487968  0.8934971901709615  1.0000
  N   N2        1.0  0.48450147051286707  0.6856088213233136  0.8062159240324362  1.0000
  N   N3        1.0  0.8807567558049949  0.3884757726422521  0.10661472420616039  1.0000
  N   N4        1.0  0.9770100440280342  0.31445071007619424  0.19383341789319528  1.0000
  N   N5        1.0  0.013524020277415538  0.10659346003128431  0.6115966583500452  1.0000
  N   N6        1.0  0.8298484501699899  0.19385506608744416  0.6856386595124278  1.0000
  N   N7        1.0  0.7312354611652977  0.8934586827578381  0.3883119462559534  1.0000
  N   N8        1.0  0.7084199718183081  0.806169607435514  0.31440950752165253  1.0000
  O   O1        1.0  0.061287211797114785  0.5286050134882958  0.03805605144973609  1.0000
  O   O2        1.0  0.8382546497331939  0.9423216571373274  0.6126618614240442  1.0000
  O   O3        1.0  0.8783835018396495  0.9837841548105147  0.7202441686766861  1.0000
  O   O4        1.0  0.628243329064801  0.47146221902627855  0.9618847694232784  1.0000
  O   O5        1.0  0.3938020250575818  0.0576719550126299  0.3872005361227906  1.0000
  O   O6        1.0  0.5825575816004899  0.0161274610064766  0.2795753801762758  1.0000
  O   O7        1.0  0.41024336944432993  0.9619632002994654  0.5284436819955118  1.0000
  O   O8        1.0  0.219461812139805  0.38726267626332594  0.9425080767248203  1.0000
  O   O9        1.0  0.1388759822148199  0.27955000981868494  0.9839649785209446  1.0000
  O   O10       1.0  0.9007204208614038  0.0381486833783242  0.47145210870071  1.0000
  O   O11       1.0  0.5494665920167349  0.6127366118613438  0.05756977776746909  1.0000
  O   O12       1.0  0.40335499801750513  0.7204772096987995  0.016116082811372178  1.0000
