data_image0
_chemical_formula_structural       Cd2H60C56N8O12
_chemical_formula_sum              "Cd2 H60 C56 N8 O12"
_cell_length_a       9.393664938827369
_cell_length_b       11.343304056984682
_cell_length_c       14.234752111838787
_cell_angle_alpha    100.34617761591353
_cell_angle_beta     102.40377228735694
_cell_angle_gamma    106.65271524133972

_space_group_name_H-M_alt    "P 1"
_space_group_IT_number       1

loop_
  _space_group_symop_operation_xyz
  'x, y, z'

loop_
  _atom_site_type_symbol
  _atom_site_label
  _atom_site_symmetry_multiplicity
  _atom_site_fract_x
  _atom_site_fract_y
  _atom_site_fract_z
  _atom_site_occupancy
  Cd  Cd1       1.0  0.9115180800957887  0.5942378986138337  0.5872269782165701  1.0000
  Cd  Cd2       1.0  0.08848304423658962  0.4057555455701092  0.4127685547006478  1.0000
  H   H1        1.0  0.500039385239397  0.7199414222025879  0.97574403435582  1.0000
  H   H2        1.0  0.49998012451190016  0.2800646772323176  0.024247049637146693  1.0000
  H   H3        1.0  0.35056425140937364  0.39238764432943907  0.2611373668795379  1.0000
  H   H4        1.0  0.6494507818281221  0.6076056391784164  0.7388700641092852  1.0000
  H   H5        1.0  0.9448201370520052  0.3647754433457778  0.6906214913808739  1.0000
  H   H6        1.0  0.05520028566722591  0.6352227646038526  0.30938117437032275  1.0000
  H   H7        1.0  0.1234616265999264  0.32560489494567696  0.8301411878174247  1.0000
  H   H8        1.0  0.8765575603078799  0.6744065461736142  0.16986612082347102  1.0000
  H   H9        1.0  0.3587839590793748  0.5078474128668162  0.9384400032414317  1.0000
  H   H10       1.0  0.6412284605982634  0.4921687795568133  0.06156560988999619  1.0000
  H   H11       1.0  0.23211840890205332  0.7387856090224716  0.7468848352708689  1.0000
  H   H12       1.0  0.767875975022285  0.261218206965708  0.2531133763794386  1.0000
  H   H13       1.0  0.6384200463370177  0.9499467932414236  0.046980948556878815  1.0000
  H   H14       1.0  0.36158549099558  0.0500762135628818  0.9530162396708375  1.0000
  H   H15       1.0  0.7529700407703787  0.895144539675002  0.9789573257851529  1.0000
  H   H16       1.0  0.24701666356952498  0.10485145721170848  0.0210462717897784  1.0000
  H   H17       1.0  0.6332337552934745  0.11609110873522607  0.9524997938649448  1.0000
  H   H18       1.0  0.3667801152615836  0.8839204206763398  0.04750181253793773  1.0000
  H   H19       1.0  0.7320788682531898  0.05589947063140239  0.876494989084648  1.0000
  H   H20       1.0  0.2679297916836632  0.9441016778476268  0.12350003748662168  1.0000
  H   H21       1.0  0.8655123571833983  0.18228410188163477  0.10079583725360655  1.0000
  H   H22       1.0  0.13450174564437128  0.8177198587600856  0.8992032447222723  1.0000
  H   H23       1.0  0.9635349095432914  0.11330862569968048  0.02672453979570831  1.0000
  H   H24       1.0  0.03647936095978121  0.8866982681988348  0.9732715011814432  1.0000
  H   H25       1.0  0.832305218604084  0.321885885345182  0.9806346314934729  1.0000
  H   H26       1.0  0.16770337962707058  0.6781152139311075  0.019362486325803716  1.0000
  H   H27       1.0  0.9484110800656892  0.26084975542853067  0.918388405804471  1.0000
  H   H28       1.0  0.051605339686894056  0.7391627203727893  0.08161442972697584  1.0000
  H   H29       1.0  0.05027476805172877  0.41321746779492935  0.13743554501035496  1.0000
  H   H30       1.0  0.9497225596133347  0.5867699463587427  0.8625718500527453  1.0000
  H   H31       1.0  0.09298597229832947  0.4745780918538074  0.037444135513496166  1.0000
  H   H32       1.0  0.9070251350770349  0.5254301656770719  0.9625741244777611  1.0000
  H   H33       1.0  0.2087818650431998  0.2755599813694546  0.1170220124831118  1.0000
  H   H34       1.0  0.7912185322870826  0.7244343932957732  0.8829742559670705  1.0000
  H   H35       1.0  0.23988886505975415  0.32327623090043284  0.0077003918104168005  1.0000
  H   H36       1.0  0.7601141762494237  0.6767303639561676  0.9923044600880998  1.0000
  H   H37       1.0  0.8375400312956742  0.830284449910188  0.5296484009387186  1.0000
  H   H38       1.0  0.1624676225893538  0.1696990990280725  0.4703648716249518  1.0000
  H   H39       1.0  0.6796973653506484  0.8930964638933361  0.3965324414958856  1.0000
  H   H40       1.0  0.32031104861216153  0.1068973791625254  0.6034895411026112  1.0000
  H   H41       1.0  0.47324179243008035  0.7214057189154628  0.25505048209637227  1.0000
  H   H42       1.0  0.5267780566473519  0.27860194047031667  0.7449556465969491  1.0000
  H   H43       1.0  0.6120678938262215  0.44597645929851387  0.3904178505120441  1.0000
  H   H44       1.0  0.3879342340448845  0.554011320485614  0.609575563942485  1.0000
  H   H45       1.0  0.8657849046394616  0.9382638635858028  0.8283320854884122  1.0000
  H   H46       1.0  0.13418701981326817  0.06173310965188959  0.1716652291265461  1.0000
  H   H47       1.0  0.0550305563388136  0.004337622766648493  0.8144149761302586  1.0000
  H   H48       1.0  0.9449468081131227  0.9956727138631222  0.18558378606957854  1.0000
  H   H49       1.0  0.08020600292721267  0.0766594017353981  0.6577603905479634  1.0000
  H   H50       1.0  0.9197794023416107  0.9233168278938207  0.34223156660082305  1.0000
  H   H51       1.0  0.9693100860718431  0.16961712073209154  0.526753760204535  1.0000
  H   H52       1.0  0.03067848966206545  0.830369594030415  0.47323956813345075  1.0000
  H   H53       1.0  0.5373406581954683  0.06880292313996961  0.5984387788881023  1.0000
  H   H54       1.0  0.4626500484974159  0.9311992677861413  0.4015459857142644  1.0000
  H   H55       1.0  0.641500647645138  0.9674889305998421  0.7239479521658579  1.0000
  H   H56       1.0  0.3584779229044059  0.03251310358974279  0.2760391850819914  1.0000
  H   H57       1.0  0.5575381477563538  0.16362587903496012  0.46285715750759227  1.0000
  H   H58       1.0  0.442460365907877  0.8363799228353699  0.537139165371954  1.0000
  H   H59       1.0  0.7081309236541813  0.15544352671972209  0.4058084131292786  1.0000
  H   H60       1.0  0.29185218572852983  0.8445509107085627  0.5941789490670357  1.0000
  C   C1        1.0  0.051705509553038084  0.43948336453154  0.7365349708331763  1.0000
  C   C2        1.0  0.948305275937976  0.560520547399882  0.2634650117124409  1.0000
  C   C3        1.0  0.15074773010832837  0.4190857007121593  0.8150544218419213  1.0000
  C   C4        1.0  0.8492701610902386  0.580922128478015  0.18494370987831837  1.0000
  C   C5        1.0  0.2825193552715533  0.5189368510687231  0.8737260003334766  1.0000
  C   C6        1.0  0.7174874981037719  0.48107643078674295  0.12627973988934826  1.0000
  C   C7        1.0  0.31567254043334  0.6369368825358066  0.8502203956365192  1.0000
  C   C8        1.0  0.6843243721199458  0.3630678634412163  0.14977974222501436  1.0000
  C   C9        1.0  0.21204335121063164  0.6497779246825885  0.7686849348952334  1.0000
  C   C10       1.0  0.7879583121150516  0.3502249926412447  0.23131352841330965  1.0000
  C   C11       1.0  0.5183469701201131  0.8514975759597971  0.8926915097287277  1.0000
  C   C12       1.0  0.481626411933739  0.14852704492258081  0.1073067251686837  1.0000
  C   C13       1.0  0.6631200697508248  0.940543125285302  0.9741544359648413  1.0000
  C   C14       1.0  0.33687969535873197  0.059463453662829104  0.025849922338082393  1.0000
  C   C15       1.0  0.7215966954790644  0.07011855342474861  0.9527066763349408  1.0000
  C   C16       1.0  0.27841278600619995  0.9298795850957403  0.04729504118026987  1.0000
  C   C17       1.0  0.8756321408701239  0.1605014787009225  0.024366056475969292  1.0000
  C   C18       1.0  0.12438198252620931  0.8395024983417085  0.9756323284172407  1.0000
  C   C19       1.0  0.9284609128561455  0.2836929677340407  0.9921021749344374  1.0000
  C   C20       1.0  0.07155126204166606  0.7163195852614592  0.007895819973533884  1.0000
  C   C21       1.0  0.07161835580387783  0.3882967376005125  0.06468972807066814  1.0000
  C   C22       1.0  0.9283811973664625  0.6117040732395083  0.9353165297337042  1.0000
  C   C23       1.0  0.21986492250267986  0.3535759967207568  0.0802541332416737  1.0000
  C   C24       1.0  0.7801404055473425  0.6464173374671773  0.9197476344643504  1.0000
  C   C25       1.0  0.3579133243298998  0.46941851835284615  0.14204193827846007  1.0000
  C   C26       1.0  0.6420911063860829  0.5305967175678319  0.8579609259824037  1.0000
  C   C27       1.0  0.7496441213015855  0.7584766788083996  0.466573122490935  1.0000
  C   C28       1.0  0.25036309354126013  0.24150803022391895  0.5334311264483346  1.0000
  C   C29       1.0  0.6605955195471933  0.7925965013821779  0.39174374721636696  1.0000
  C   C30       1.0  0.33941981103055946  0.2074054178869389  0.6082615316029489  1.0000
  C   C31       1.0  0.5474329066126059  0.698207729417632  0.313431637502994  1.0000
  C   C32       1.0  0.4525788886706863  0.3017961222129628  0.6865712979051677  1.0000
  C   C33       1.0  0.5268381889295242  0.5707227283212076  0.3126344702499821  1.0000
  C   C34       1.0  0.4731746335878313  0.4292782773599839  0.6873681852754385  1.0000
  C   C35       1.0  0.6236737789820026  0.5441687673313353  0.3893891476684032  1.0000
  C   C36       1.0  0.3763313576973673  0.45581881514939226  0.6106138224564077  1.0000
  C   C37       1.0  0.9225352088996954  0.8190943913994102  0.7162736264430334  1.0000
  C   C38       1.0  0.077445922884344  0.1808930908201489  0.2837250268980682  1.0000
  C   C39       1.0  0.9328718483606051  0.9502711392875223  0.7744205846082437  1.0000
  C   C40       1.0  0.06710493572583688  0.04971633812165519  0.22557671352273445  1.0000
  C   C41       1.0  0.8700153291515349  0.017451102062324298  0.7016693443273069  1.0000
  C   C42       1.0  0.1299610427148464  0.9825431559408172  0.298323304421828  1.0000
  C   C43       1.0  0.9609519823052892  0.07528530925913658  0.6452054975843993  1.0000
  C   C44       1.0  0.03902239656358824  0.9247013365666772  0.354785691839332  1.0000
  C   C45       1.0  0.8989555088912553  0.1269892925634295  0.5714870846899699  1.0000
  C   C46       1.0  0.10103351418135981  0.8729984235868284  0.42850435538217363  1.0000
  C   C47       1.0  0.7458729295882379  0.1260167023022589  0.5536009363717369  1.0000
  C   C48       1.0  0.254117479764389  0.8739768528625903  0.4463859804001372  1.0000
  C   C49       1.0  0.6564976176190312  0.0704963621623236  0.6112713790679932  1.0000
  C   C50       1.0  0.3434857714270834  0.9294961433969251  0.38871713586120643  1.0000
  C   C51       1.0  0.7164351064250382  0.014839162033013095  0.6831522950162067  1.0000
  C   C52       1.0  0.2835419687481036  0.9851513470384391  0.3168377796200232  1.0000
  C   C53       1.0  0.6829521403629996  0.18734749189327715  0.4760554597773278  1.0000
  C   C54       1.0  0.3170384192231452  0.8126517821769497  0.5239316487410974  1.0000
  C   C55       1.0  0.7584958368448513  0.33127872367415984  0.513308546592036  1.0000
  C   C56       1.0  0.24151967259643203  0.6687177391041813  0.48668538715803306  1.0000
  N   N1        1.0  0.08229892532027343  0.553006706779527  0.7151040190993925  1.0000
  N   N2        1.0  0.9177100853660107  0.4470009651816794  0.28489767594460597  1.0000
  N   N3        1.0  0.4488883048855996  0.7368405914515039  0.9112905444613162  1.0000
  N   N4        1.0  0.5511148124442826  0.26316046490975953  0.08870644778129837  1.0000
  N   N5        1.0  0.4100676323978334  0.4691801173538295  0.23918133128356794  1.0000
  N   N6        1.0  0.5899420876136929  0.5308160564957944  0.7608229331298657  1.0000
  N   N7        1.0  0.7329361068433754  0.6361663584539414  0.4645512179678732  1.0000
  N   N8        1.0  0.26707050440876395  0.3638193794651344  0.5354495840083472  1.0000
  O   O1        1.0  0.4674749979749819  0.8799680328771232  0.8156709452091063  1.0000
  O   O2        1.0  0.532482022690182  0.12006621214766967  0.18435862672122028  1.0000
  O   O3        1.0  0.41572568189628367  0.5576222528467626  0.10610642047036829  1.0000
  O   O4        1.0  0.5842489540244671  0.44236588732628224  0.8939026019843936  1.0000
  O   O5        1.0  0.8112562988571951  0.7212288858378386  0.7122738390898817  1.0000
  O   O6        1.0  0.18873734327989666  0.2787547417719409  0.28773102081552077  1.0000
  O   O7        1.0  0.023909201810461408  0.8154030025228423  0.6698685007282847  1.0000
  O   O8        1.0  0.976085968543643  0.1845900215250893  0.3301429395136494  1.0000
  O   O9        1.0  0.7075172742370909  0.39306637717360343  0.5732244446943324  1.0000
  O   O10       1.0  0.2924968965499346  0.6069432367698369  0.4267776173587733  1.0000
  O   O11       1.0  0.8756472672443749  0.3866936094405843  0.4852614260462715  1.0000
  O   O12       1.0  0.12436347374766397  0.6132941143606416  0.5147374871591949  1.0000
