data_image0
_chemical_formula_structural       Co2H24C32N8O12
_chemical_formula_sum              "Co2 H24 C32 N8 O12"
_cell_length_a       9.253982118288963
_cell_length_b       10.210362332658692
_cell_length_c       10.715722317230943
_cell_angle_alpha    97.15232206992707
_cell_angle_beta     106.44745057260192
_cell_angle_gamma    93.06762059456715

_space_group_name_H-M_alt    "P 1"
_space_group_IT_number       1

loop_
  _space_group_symop_operation_xyz
  'x, y, z'

loop_
  _atom_site_type_symbol
  _atom_site_label
  _atom_site_symmetry_multiplicity
  _atom_site_fract_x
  _atom_site_fract_y
  _atom_site_fract_z
  _atom_site_occupancy
  Co  Co1       1.0  0.41119950172854663  0.5156493251111769  0.7830158591975759  1.0000
  Co  Co2       1.0  0.588796228371642  0.4843552848018646  0.2169816426287952  1.0000
  H   H1        1.0  0.2969105713056877  0.37704503646254756  0.9870654683956063  1.0000
  H   H2        1.0  0.7030838248512908  0.6229575884530976  0.012930539283502178  1.0000
  H   H3        1.0  0.023129557590799304  0.31583122187760193  0.9725739788215151  1.0000
  H   H4        1.0  0.9768688975256835  0.6841673871148686  0.02742174464670187  1.0000
  H   H5        1.0  0.7505117490365691  0.26717699196537137  0.9909056387555067  1.0000
  H   H6        1.0  0.2494967517723907  0.7328315129939044  0.009098443400652878  1.0000
  H   H7        1.0  0.06621626692052729  0.5624291521757528  0.6804531496905994  1.0000
  H   H8        1.0  0.9337756933188999  0.43756259045192547  0.3195420052784427  1.0000
  H   H9        1.0  0.7538407587547623  0.32846863097471873  0.739085980204841  1.0000
  H   H10       1.0  0.24615716226391976  0.6715249973967659  0.26090721194510275  1.0000
  H   H11       1.0  0.7607035240071341  0.4843887723552456  0.8293095349443006  1.0000
  H   H12       1.0  0.23928877639158946  0.515598101098064  0.17069266649407672  1.0000
  H   H13       1.0  0.7728368496429994  0.850636941199703  0.018356683498900805  1.0000
  H   H14       1.0  0.22716719832207852  0.14936268337719136  0.9816462239624498  1.0000
  H   H15       1.0  0.39043776002338143  0.9832783730670231  0.745567939541921  1.0000
  H   H16       1.0  0.6095633127658574  0.0167242301442485  0.2544326285815686  1.0000
  H   H17       1.0  0.6699140322560453  0.3133108038282586  0.46602980372703945  1.0000
  H   H18       1.0  0.33007412785529777  0.6866869251693828  0.5339649772555362  1.0000
  H   H19       1.0  0.7841962755420013  0.7101350497102389  0.6847419340140419  1.0000
  H   H20       1.0  0.21579902689509106  0.28985772784865566  0.3152598129803792  1.0000
  H   H21       1.0  0.6736503513511778  0.7063762952931186  0.4269689008575455  1.0000
  H   H22       1.0  0.3263514208561347  0.293623360742572  0.5730343428164204  1.0000
  H   H23       1.0  0.0772510984372303  0.01811547033126  0.2360047402406948  1.0000
  H   H24       1.0  0.9227598521216506  0.9818840235332474  0.7639943740416656  1.0000
  C   C1        1.0  0.47615887288896624  0.24191725363481714  0.7939911199434917  1.0000
  C   C2        1.0  0.5238442332615633  0.7580843873982702  0.20601361787773692  1.0000
  C   C3        1.0  0.0571385083792038  0.3752714608115184  0.9064280058855587  1.0000
  C   C4        1.0  0.9428585374735547  0.6247251995195598  0.09356900797651234  1.0000
  C   C5        1.0  0.9727560148823855  0.43567147334319156  0.802823725969901  1.0000
  C   C6        1.0  0.027237513024850578  0.5643242368406831  0.1971731931294158  1.0000
  C   C7        1.0  0.5627177626932821  0.13638337987865873  0.8598931374361385  1.0000
  C   C8        1.0  0.43729023688776897  0.8636222239144403  0.1401161088277405  1.0000
  C   C9        1.0  0.7021002414955504  0.16489175247011195  0.9567920791899807  1.0000
  C   C10       1.0  0.29790995075970267  0.8351117646333892  0.04321099179602327  1.0000
  C   C11       1.0  0.0813636283078836  0.5018901176896408  0.7586394241973623  1.0000
  C   C12       1.0  0.9186275822998055  0.4981045963376261  0.2413549115819436  1.0000
  C   C13       1.0  0.803387815477521  0.43145621353229313  0.7532994694654747  1.0000
  C   C14       1.0  0.19660491950048709  0.5685325455837997  0.24669557651292712  1.0000
  C   C15       1.0  0.7781705826323418  0.06122437659376352  0.012600656442813775  1.0000
  C   C16       1.0  0.221834916138242  0.9387782242599344  0.9874038801573021  1.0000
  C   C17       1.0  0.9280623937212126  0.09312239817354853  0.11224384532344081  1.0000
  C   C18       1.0  0.07194281334805912  0.9068761527785443  0.8877536540480334  1.0000
  C   C19       1.0  0.7136601187027694  0.9298526411931434  0.973434185820075  1.0000
  C   C20       1.0  0.2863396945549326  0.07015108409093782  0.026575503114784682  1.0000
  C   C21       1.0  0.5732880781113109  0.9013495699454451  0.8774247461447686  1.0000
  C   C22       1.0  0.426715595915745  0.09865598775722619  0.12257681892099005  1.0000
  C   C23       1.0  0.49946894633745836  0.004746722440593501  0.8206338507200498  1.0000
  C   C24       1.0  0.5005322182072406  0.9952568841620819  0.17936778057531913  1.0000
  C   C25       1.0  0.4969422509188632  0.7640842427151996  0.835527106483525  1.0000
  C   C26       1.0  0.5030613400246223  0.2359192597566705  0.16446861951698108  1.0000
  C   C27       1.0  0.7468567541397277  0.4881303226599486  0.6280838365067183  1.0000
  C   C28       1.0  0.2531366733401584  0.5118654359719275  0.37191679531409255  1.0000
  C   C29       1.0  0.6878800692264876  0.4190516749403346  0.5000831810674313  1.0000
  C   C30       1.0  0.31211704327488843  0.5809460008941444  0.4999158241468962  1.0000
  C   C31       1.0  0.7458901293902401  0.6219352587942596  0.6122220219538335  1.0000
  C   C32       1.0  0.2541078660401226  0.3780614766474316  0.38778178515473627  1.0000
  N   N1        1.0  0.22233474494646538  0.4826782120602006  0.8294063490553754  1.0000
  N   N2        1.0  0.7776583172672885  0.5173224278580478  0.17058816447647016  1.0000
  N   N3        1.0  0.20472518219421693  0.4050150669258771  0.9185587510196952  1.0000
  N   N4        1.0  0.7952725648323097  0.5949875410815865  0.08143907279141872  1.0000
  N   N5        1.0  0.6530470480570119  0.5048026998296252  0.4123814570991158  1.0000
  N   N6        1.0  0.3469457466534251  0.4951970214812321  0.587618490523468  1.0000
  N   N7        1.0  0.6893951162200622  0.6275966229792759  0.4828156987331339  1.0000
  N   N8        1.0  0.3106008709558523  0.37240106252859567  0.5171830104973196  1.0000
  O   O1        1.0  0.37015069974146547  0.20446360738674946  0.6898765735171893  1.0000
  O   O2        1.0  0.6298572167560224  0.795539941175541  0.3101268336814442  1.0000
  O   O3        1.0  0.5179455610203904  0.36306232943465494  0.849058463616224  1.0000
  O   O4        1.0  0.4820564449115068  0.6369393091598284  0.15094505004076095  1.0000
  O   O5        1.0  0.005168591673850598  0.19980673510401917  0.1352042788389198  1.0000
  O   O6        1.0  0.9948447359170133  0.8002047171118678  0.864802320407641  1.0000
  O   O7        1.0  0.9760408185400353  0.9891531005856323  0.17621367369589075  1.0000
  O   O8        1.0  0.023965106137950415  0.0108524377702466  0.8237884833376228  1.0000
  O   O9        1.0  0.5719613157993918  0.6642574759900698  0.8734826882821095  1.0000
  O   O10       1.0  0.42803954837209807  0.33574313255041244  0.1265166816779981  1.0000
  O   O11       1.0  0.36231755581604125  0.743516361562378  0.7640359401424703  1.0000
  O   O12       1.0  0.6376895617448638  0.2564870392172907  0.23595510472741665  1.0000
