data_image0
_chemical_formula_structural       Zn2NiH14C8N8O4
_chemical_formula_sum              "Zn2 Ni1 H14 C8 N8 O4"
_cell_length_a       5.7425143250093935
_cell_length_b       7.863104720843501
_cell_length_c       9.7725971747841
_cell_angle_alpha    82.44782424269778
_cell_angle_beta     76.02662898751409
_cell_angle_gamma    86.29332993882436

_space_group_name_H-M_alt    "P 1"
_space_group_IT_number       1

loop_
  _space_group_symop_operation_xyz
  'x, y, z'

loop_
  _atom_site_type_symbol
  _atom_site_label
  _atom_site_symmetry_multiplicity
  _atom_site_fract_x
  _atom_site_fract_y
  _atom_site_fract_z
  _atom_site_occupancy
  Zn  Zn1       1.0  0.46943217481393856  0.7995736597590123  0.7543392589647551  1.0000
  Zn  Zn2       1.0  0.5305774131863146  0.20042686308279659  0.2456645306177591  1.0000
  Ni  Ni1       1.0  2.55368965440293e-06  0.5000206544906831  0.5000001953237144  1.0000
  H   H1        1.0  0.24073886575729378  0.0298954975221832  0.9056762355430974  1.0000
  H   H2        1.0  0.7592556243970137  0.9700869297101915  0.09433198417297461  1.0000
  H   H3        1.0  0.0749760735088216  0.8564004572259518  0.9373735873773227  1.0000
  H   H4        1.0  0.9250151893495584  0.14358349069317455  0.0626267109753513  1.0000
  H   H5        1.0  0.31161612185997006  0.8626533914837181  0.008565312056958907  1.0000
  H   H6        1.0  0.6883717818213952  0.13732402132126248  0.9914390290219257  1.0000
  H   H7        1.0  0.7484760171815877  0.9544968573010806  0.5313469578444339  1.0000
  H   H8        1.0  0.25152377728569775  0.04551907385265249  0.4686546925345849  1.0000
  H   H9        1.0  0.5766119512837022  0.0972990246206749  0.6230038230576722  1.0000
  H   H10       1.0  0.4233809214968289  0.9027090338996898  0.377003449349793  1.0000
  H   H11       1.0  0.8215936707321347  0.015190478195265202  0.6706529044809171  1.0000
  H   H12       1.0  0.1783956630668229  0.9848149271941223  0.32935707989437896  1.0000
  H   H13       1.0  0.9843641548632718  0.3901916762285181  0.8827317199877239  1.0000
  H   H14       1.0  0.015648322515716004  0.6097799818633759  0.11725367527767357  1.0000
  C   C1        1.0  0.09562606959537594  0.3014171480856901  0.5978861081761407  1.0000
  C   C2        1.0  0.9043635086990421  0.6986285658311857  0.4021040445354414  1.0000
  C   C3        1.0  0.17672758176651376  0.6239675054628149  0.5821054225171165  1.0000
  C   C4        1.0  0.8232713296525347  0.37606385634541073  0.4178940056860083  1.0000
  C   C5        1.0  0.7841773819438913  0.6373296481649077  0.9026640464399021  1.0000
  C   C6        1.0  0.21583587352471056  0.3626493957343087  0.09733086742087949  1.0000
  C   C7        1.0  0.9487542268043473  0.49793171006334064  0.9455178278776725  1.0000
  C   C8        1.0  0.0512536647147783  0.5020526282738729  0.05447115803728048  1.0000
  N   N1        1.0  0.1556735770662101  0.17180993969458308  0.6570267982638851  1.0000
  N   N2        1.0  0.8443281196400677  0.8282060672650006  0.34297256155839756  1.0000
  N   N3        1.0  0.2860674720163984  0.7031093586669996  0.6370542770682588  1.0000
  N   N4        1.0  0.713925236066956  0.2969079091357115  0.3629450666800267  1.0000
  N   N5        1.0  0.24860808574941728  0.8983991904126754  0.9194659410453451  1.0000
  N   N6        1.0  0.7513848062978566  0.10158467118198897  0.0805372348466236  1.0000
  N   N7        1.0  0.679303423059608  0.9866732031537633  0.6322238773048097  1.0000
  N   N8        1.0  0.32068955894096274  0.013334920218724698  0.367781327864236  1.0000
  O   O1        1.0  0.6603989791529373  0.5984117032381988  0.8176295394358487  1.0000
  O   O2        1.0  0.33960077997107163  0.40157999856377546  0.18236904804687973  1.0000
  O   O3        1.0  0.7729353874627449  0.7829980145106105  0.9460653074687495  1.0000
  O   O4        1.0  0.227089024364183  0.2169773428320383  0.05392546276366519  1.0000
