data_image0
_chemical_formula_structural       Zn8H72C68O38
_chemical_formula_sum              "Zn8 H72 C68 O38"
_cell_length_a       18.968147526128035
_cell_length_b       19.00086026296185
_cell_length_c       19.02083783102249
_cell_angle_alpha    93.46510356028813
_cell_angle_beta     117.91623477696436
_cell_angle_gamma    118.02055832333494

_space_group_name_H-M_alt    "P 1"
_space_group_IT_number       1

loop_
  _space_group_symop_operation_xyz
  'x, y, z'

loop_
  _atom_site_type_symbol
  _atom_site_label
  _atom_site_symmetry_multiplicity
  _atom_site_fract_x
  _atom_site_fract_y
  _atom_site_fract_z
  _atom_site_occupancy
  Zn  Zn1       1.0  0.5767525099870028  0.5354525401420815  0.44617183871887517  1.0000
  Zn  Zn2       1.0  0.4261365530815551  0.9582192935827363  0.868336007949807  1.0000
  Zn  Zn3       1.0  0.5794691208030757  0.12576128568770165  0.040930907641971735  1.0000
  Zn  Zn4       1.0  0.41858314672887076  0.5464124914979676  0.46127391511128457  1.0000
  Zn  Zn5       1.0  0.5842270589430852  0.5477492386037425  0.6192153842678747  1.0000
  Zn  Zn6       1.0  0.41417276062797714  0.9629781142118711  0.033653514317137444  1.0000
  Zn  Zn7       1.0  0.5800778973329558  0.9557701997544825  0.03270635502884305  1.0000
  Zn  Zn8       1.0  0.4198881464127949  0.376191367514977  0.4531288562257813  1.0000
  H   H1        1.0  0.4695819091357762  0.4259570641136889  0.23176131852546433  1.0000
  H   H2        1.0  0.24598456227890608  0.5419952282955548  0.6334997672098195  1.0000
  H   H3        1.0  0.40621967115949076  0.6320181333046903  0.8350593757920989  1.0000
  H   H4        1.0  0.5141022073902661  0.662597136620924  0.9285676570204654  1.0000
  H   H5        1.0  0.4683134600252784  0.7263780481192154  0.9205725652439224  1.0000
  H   H6        1.0  0.7023238802611117  0.25047022282144826  0.25389420723013945  1.0000
  H   H7        1.0  0.7027731798760045  0.34232262580773914  0.2512987790569098  1.0000
  H   H8        1.0  0.7630752565528524  0.33248294045677074  0.3510540875430903  1.0000
  H   H9        1.0  0.44370667731433855  0.5584121170051901  0.7870603330308511  1.0000
  H   H10       1.0  0.5236873077518922  0.5611820405265674  0.7624533199142292  1.0000
  H   H11       1.0  0.5657837542002041  0.6090230755380899  0.8686316521296147  1.0000
  H   H12       1.0  0.6727626631963445  0.4254880653674746  0.2935276658745351  1.0000
  H   H13       1.0  0.3292893291727239  0.5194789996074433  0.6406797617904231  1.0000
  H   H14       1.0  0.6777882447869317  0.4644471266298282  0.38291689632585957  1.0000
  H   H15       1.0  0.7572686109195814  0.43470825136753877  0.3941067020305979  1.0000
  H   H16       1.0  0.34376896434451953  0.5665296026231273  0.7333048957256592  1.0000
  H   H17       1.0  0.572294179624336  0.44162615021397755  0.23947959224152274  1.0000
  H   H18       1.0  0.5519313453583904  0.19530442923594643  0.40181889278762367  1.0000
  H   H19       1.0  0.5008206703691016  0.23688720513263914  0.4331234685740313  1.0000
  H   H20       1.0  0.4339657942434059  0.12636510705240056  0.3768493088961122  1.0000
  H   H21       1.0  0.7058816254176179  0.8643053416791842  0.8653508058889796  1.0000
  H   H22       1.0  0.7166048609571973  0.9455344767395814  0.8210064937103354  1.0000
  H   H23       1.0  0.4612203864196545  0.38991640789571846  0.138570469527906  1.0000
  H   H24       1.0  0.6915374463159266  0.941470198567181  0.9004444942247714  1.0000
  H   H25       1.0  0.4919071667041806  0.08344099609922749  0.30757298317814724  1.0000
  H   H26       1.0  0.36653626850615956  0.03090041879701739  0.25721952234400897  1.0000
  H   H27       1.0  0.41121972047191946  0.017597107456054997  0.19801356136795073  1.0000
  H   H28       1.0  0.6900720205331652  0.8043102445754895  0.7518823372844634  1.0000
  H   H29       1.0  0.61457764457262  0.7613443900010495  0.6388025912892275  1.0000
  H   H30       1.0  0.668273268913417  0.869444387801998  0.6931780703385113  1.0000
  H   H31       1.0  0.2403640349170145  0.6537940134473244  0.6812284967698685  1.0000
  H   H32       1.0  0.3171238633906553  0.653371441806406  0.7797349895886112  1.0000
  H   H33       1.0  0.3158006153111969  0.745316689194318  0.7740995821535817  1.0000
  H   H34       1.0  0.5692599291798074  0.2834923148817764  0.10896792634223114  1.0000
  H   H35       1.0  0.3455610065929093  0.1834849849269347  0.38071190833306173  1.0000
  H   H36       1.0  0.2854275119799894  0.078318323301346  0.30980193423161495  1.0000
  H   H37       1.0  0.23361163729611428  0.13818451804064574  0.2804280320073288  1.0000
  H   H38       1.0  0.6119033138757715  0.002805690774323499  0.8481959658923798  1.0000
  H   H39       1.0  0.5549150430775783  0.013709626158949094  0.7481369006281395  1.0000
  H   H40       1.0  0.670184666128975  0.029349882635536093  0.7932476753924077  1.0000
  H   H41       1.0  0.23202404907463153  0.030407861898659398  0.16712779868973365  1.0000
  H   H42       1.0  0.5139296663989724  0.3401795788615799  0.08919501909083756  1.0000
  H   H43       1.0  0.2522695253125208  0.9736410699711014  0.10763183759206649  1.0000
  H   H44       1.0  0.1938277414550384  0.025226851920955088  0.060614927877217874  1.0000
  H   H45       1.0  0.5407872944366758  0.8159794959208425  0.5472429720183811  1.0000
  H   H46       1.0  0.5535682819699445  0.8983839763501817  0.6143802495223909  1.0000
  H   H47       1.0  0.43839405083601685  0.8181944340085606  0.520093981251044  1.0000
  H   H48       1.0  0.6148203334107336  0.3721538554250827  0.19108928360790856  1.0000
  H   H49       1.0  0.644084955440576  0.4038431911089688  0.4999857439532889  1.0000
  H   H50       1.0  0.7570913167375721  0.45658253969461526  0.5103441386989116  1.0000
  H   H51       1.0  0.7278415228676991  0.3770891677890375  0.5564643389158659  1.0000
  H   H52       1.0  0.6645392353660566  0.7431716756931048  0.019265392369248978  1.0000
  H   H53       1.0  0.6246463917118347  0.8092437385152562  0.03156805212796602  1.0000
  H   H54       1.0  0.7412995928590363  0.856125319920288  0.050774903596625585  1.0000
  H   H55       1.0  0.7272719391438757  0.1875320612550766  0.3434269067611027  1.0000
  H   H56       1.0  0.6047970136572971  0.10809363594702148  0.2561833494721454  1.0000
  H   H57       1.0  0.6439595147134297  0.11022397930363327  0.361958435554662  1.0000
  H   H58       1.0  0.6896845835610748  0.6488075418204459  0.8458907212042561  1.0000
  H   H59       1.0  0.7178191892292746  0.7205690261752622  0.93571530840002  1.0000
  H   H60       1.0  0.7784868875942977  0.7605469772317051  0.8843794791752657  1.0000
  H   H61       1.0  0.22537984067336228  0.23376131602617523  0.09983678328167399  1.0000
  H   H62       1.0  0.29351631223609326  0.26285682498528457  0.05370156155257178  1.0000
  H   H63       1.0  0.31424541768944886  0.3438125556350115  0.12967067171970106  1.0000
  H   H64       1.0  0.2942678111256708  0.8137360768742918  0.5885336625336774  1.0000
  H   H65       1.0  0.2553979572006782  0.7790086585479655  0.656299454202859  1.0000
  H   H66       1.0  0.22766347402844633  0.7024223170757151  0.5703681309703368  1.0000
  H   H67       1.0  0.35099225467170203  0.10254853529008298  0.9963433031437458  1.0000
  H   H68       1.0  0.43055806442153965  0.20153088548132558  0.9935086611390601  1.0000
  H   H69       1.0  0.3063675663743552  0.1614042352792069  0.9448650218438812  1.0000
  H   H70       1.0  0.17955181534316722  0.5370553884544832  0.5067438686281704  1.0000
  H   H71       1.0  0.26669531506361477  0.5208661354545256  0.5099270359095768  1.0000
  H   H72       1.0  0.23485566740097852  0.582631569111868  0.4524130726952292  1.0000
  C   C1        1.0  0.4893794502936827  0.6285267639000763  0.6361526408636065  1.0000
  C   C2        1.0  0.5009912167846693  0.13723360555926684  0.13958291479610097  1.0000
  C   C3        1.0  0.24082653236867202  0.36969616155203505  0.3619272781693467  1.0000
  C   C4        1.0  0.759342342732239  0.6299084591761355  0.6182683144868051  1.0000
  C   C5        1.0  0.24179723067243228  0.8682851200556313  0.8559078702833957  1.0000
  C   C6        1.0  0.7584105423602381  0.1305258612291595  0.1213246380116786  1.0000
  C   C7        1.0  0.5027283046328037  0.8563707211524797  0.8605050428521748  1.0000
  C   C8        1.0  0.5041371843434632  0.37608936013236866  0.628701386304847  1.0000
  C   C9        1.0  0.4983592080211564  0.875684423328401  0.12837029441872258  1.0000
  C   C10       1.0  0.5023251054733393  0.35942718827907777  0.35999121453235705  1.0000
  C   C11       1.0  0.5021824020538475  0.636082717858663  0.37064376650370423  1.0000
  C   C12       1.0  0.5003174707613525  0.1347874024275484  0.8694565984071188  1.0000
  C   C13       1.0  0.5031487550424174  0.6905279172180131  0.3210725226468156  1.0000
  C   C14       1.0  0.500133524222342  0.18831356938403584  0.8189967734417036  1.0000
  C   C15       1.0  0.5023405574376554  0.7352822972779264  0.277562461480251  1.0000
  C   C16       1.0  0.501017133284904  0.2331558916604449  0.7755012095066218  1.0000
  C   C17       1.0  0.5011493303221499  0.7836852972060484  0.2285791871760451  1.0000
  C   C18       1.0  0.5021490632368141  0.2819716107411735  0.7269144225503225  1.0000
  C   C19       1.0  0.4996580811627636  0.8266947844393895  0.18329775892662073  1.0000
  C   C20       1.0  0.5033170882660656  0.32570494543723066  0.6823397270260185  1.0000
  C   C21       1.0  0.4592949705606131  0.3071583395542134  0.21060585583794023  1.0000
  C   C22       1.0  0.3888840406914652  0.7294577344520687  0.7207030150502262  1.0000
  C   C23       1.0  0.47491147357516883  0.2561114253895766  0.15388908763311085  1.0000
  C   C24       1.0  0.37932523049218486  0.6535252027208427  0.6647034326047815  1.0000
  C   C25       1.0  0.6138749350818316  0.32770850578420857  0.3448779178181311  1.0000
  C   C26       1.0  0.4944109741539791  0.3969418900203436  0.2060045039107976  1.0000
  C   C27       1.0  0.31225729020642484  0.6931487348893339  0.7412954209390887  1.0000
  C   C28       1.0  0.5485634867761532  0.31655948079412605  0.13587520954830273  1.0000
  C   C29       1.0  0.537740628588594  0.7408570179388789  0.8533117911517321  1.0000
  C   C30       1.0  0.32268208077555727  0.5660290234640469  0.6693563804641085  1.0000
  C   C31       1.0  0.6104693326234597  0.2552053465350496  0.28971020721859725  1.0000
  C   C32       1.0  0.2966133158097861  0.27852062474227074  0.11203045616266387  1.0000
  C   C33       1.0  0.2824576354723687  0.7667918937629847  0.6199896738469731  1.0000
  C   C34       1.0  0.36903514719615055  0.16726932405745737  0.9993174986515638  1.0000
  C   C35       1.0  0.24764018491796946  0.5672056654921177  0.5100986619186327  1.0000
  C   C36       1.0  0.5445683282088964  0.6848779172127022  0.7914861487774941  1.0000
  C   C37       1.0  0.6834446407150806  0.41810081740528177  0.35320399968811955  1.0000
  C   C38       1.0  0.4774709921314936  0.6873254507559065  0.8853483624061055  1.0000
  C   C39       1.0  0.6990115306156497  0.2978435039638183  0.2850483582090248  1.0000
  C   C40       1.0  0.5163181820491688  0.597854346816007  0.8018339430484571  1.0000
  C   C41       1.0  0.48536962572652  0.18987371340907794  0.3825922339307794  1.0000
  C   C42       1.0  0.6775019522489671  0.9026095257234416  0.844577827971406  1.0000
  C   C43       1.0  0.42537056360144737  0.0637524525310553  0.24812585709015164  1.0000
  C   C44       1.0  0.6359215599559463  0.8052640125207375  0.6960841301671151  1.0000
  C   C45       1.0  0.30212823636086483  0.1431058402572845  0.3132409360352142  1.0000
  C   C46       1.0  0.5995175701853055  0.9913111313234635  0.7847932959330917  1.0000
  C   C47       1.0  0.25063827105788056  0.030144455854539797  0.12035149229419766  1.0000
  C   C48       1.0  0.5061686055639  0.830519488781064  0.5735454940113697  1.0000
  C   C49       1.0  0.6981487820661699  0.3951677644763336  0.5014135696750586  1.0000
  C   C50       1.0  0.6658243411591656  0.8006126110754507  0.010286317988018809  1.0000
  C   C51       1.0  0.6514752397389003  0.15053333310692804  0.323485910167392  1.0000
  C   C52       1.0  0.708906928793553  0.7127607264920711  0.873636567605146  1.0000
  C   C53       1.0  0.44012983533103534  0.202054337592422  0.2970430779363369  1.0000
  C   C54       1.0  0.5696365657724556  0.8478368929683883  0.7723737220708954  1.0000
  C   C55       1.0  0.4261368824781187  0.13949613302860797  0.2229249784403819  1.0000
  C   C56       1.0  0.5454283010894017  0.7801225335512781  0.6947647168049328  1.0000
  C   C57       1.0  0.5041808542211257  0.29942944961864265  0.303682647927907  1.0000
  C   C58       1.0  0.4993230674531901  0.7928798373126111  0.8031424801952836  1.0000
  C   C59       1.0  0.5037293305594304  0.19572241051259442  0.20193790300832853  1.0000
  C   C60       1.0  0.48824071188569446  0.6842712749914452  0.696902865686482  1.0000
  C   C61       1.0  0.13669070498569616  0.31757349203744667  0.30864753695011155  1.0000
  C   C62       1.0  0.8624972615636608  0.18247575548196687  0.1721586156653244  1.0000
  C   C63       1.0  0.13768296950541267  0.8150615153843929  0.8014942161648831  1.0000
  C   C64       1.0  0.8634430594924111  0.6799550265018012  0.66789772644735  1.0000
  C   C65       1.0  0.04832344349058802  0.2741035454031432  0.2644438833141861  1.0000
  C   C66       1.0  0.950854453402016  0.22604622143053626  0.21591973405237735  1.0000
  C   C67       1.0  0.04929936915256404  0.7709828369744683  0.7577224255438466  1.0000
  C   C68       1.0  0.9517994095199142  0.7229292561049333  0.710187107211368  1.0000
  O   O1        1.0  0.49961367735504336  0.5017043430712816  0.4942410151475868  1.0000
  O   O2        1.0  0.5662581799304576  0.17250546316871146  0.12440348682858372  1.0000
  O   O3        1.0  0.45748440082538616  0.3289760731834618  0.395001315550452  1.0000
  O   O4        1.0  0.5476670429667223  0.6056347213058116  0.6679285021860791  1.0000
  O   O5        1.0  0.4339224056402529  0.057707674250075086  0.10385913806367596  1.0000
  O   O6        1.0  0.5549211695049577  0.8764270271508535  0.9413604766428633  1.0000
  O   O7        1.0  0.3600560012578313  0.26617471034413137  0.18001690721750657  1.0000
  O   O8        1.0  0.3743370700518795  0.7812927023304324  0.6728630142372083  1.0000
  O   O9        1.0  0.38355010046286253  0.21116033036339127  0.07303342298330051  1.0000
  O   O10       1.0  0.3223583494108126  0.6469034058265206  0.5786889881436608  1.0000
  O   O11       1.0  0.4535014016991498  0.8866844104931885  0.8247754955056833  1.0000
  O   O12       1.0  0.5481680449963307  0.43868909933279804  0.3700543594674598  1.0000
  O   O13       1.0  0.3442070866661879  0.17830438026398093  0.26856334362314266  1.0000
  O   O14       1.0  0.5457985493532218  0.9034579539092814  0.7355223435996405  1.0000
  O   O15       1.0  0.3366603991640106  0.10722388476088437  0.14391794515468348  1.0000
  O   O16       1.0  0.47721801090996513  0.7749316798216482  0.6152244003154478  1.0000
  O   O17       1.0  0.43459356376077096  0.6108742939353248  0.5565527692983777  1.0000
  O   O18       1.0  0.6579580816224251  0.32627202251192233  0.4298725520932151  1.0000
  O   O19       1.0  0.6357998009561072  0.7998096321032475  0.926334703720563  1.0000
  O   O20       1.0  0.6230290104965874  0.2031598997434684  0.34007143134402895  1.0000
  O   O21       1.0  0.6429991294643429  0.730098473165917  0.8166639704923707  1.0000
  O   O22       1.0  0.4995964443289722  0.0006961817757797995  0.9936372456400091  1.0000
  O   O23       1.0  0.7215137060675118  0.6210652480766965  0.6603844142192371  1.0000
  O   O24       1.0  0.2783804766801907  0.888527036987405  0.9357184299516842  1.0000
  O   O25       1.0  0.7183413738505847  0.05029284586588289  0.10358501306506433  1.0000
  O   O26       1.0  0.2812681548548923  0.32953855988159825  0.380309973857507  1.0000
  O   O27       1.0  0.5728887700108274  0.4551895410248362  0.665808458103065  1.0000
  O   O28       1.0  0.4378849182031529  0.8959548495548472  0.1063403892857977  1.0000
  O   O29       1.0  0.5579137220167353  0.8931472304989538  0.10754794167703347  1.0000
  O   O30       1.0  0.4358961825904543  0.3359672065717019  0.5497966777312938  1.0000
  O   O31       1.0  0.4452243303690365  0.6181913103689283  0.3944967726453895  1.0000
  O   O32       1.0  0.546524162284598  0.17254300746652254  0.9495103097552967  1.0000
  O   O33       1.0  0.45456007217853783  0.05555203958611088  0.8285851656635471  1.0000
  O   O34       1.0  0.5582525611782075  0.6117236172333094  0.3847780067668721  1.0000
  O   O35       1.0  0.716478949759413  0.5999576563092573  0.5377412159049513  1.0000
  O   O36       1.0  0.28564021082373614  0.8892839868274008  0.818719820846418  1.0000
  O   O37       1.0  0.7177991463123662  0.17042761688500008  0.09979444854535316  1.0000
  O   O38       1.0  0.28073264435904827  0.450156142784138  0.3850153285744183  1.0000
