data_image0
_chemical_formula_structural       Al2H8C17S2N2O14
_chemical_formula_sum              "Al2 H8 C17 S2 N2 O14"
_cell_length_a       6.978726266715788
_cell_length_b       11.217727203476313
_cell_length_c       12.662505854236299
_cell_angle_alpha    77.83355303411685
_cell_angle_beta     75.01829055692563
_cell_angle_gamma    70.84253843448593

_space_group_name_H-M_alt    "P 1"
_space_group_IT_number       1

loop_
  _space_group_symop_operation_xyz
  'x, y, z'

loop_
  _atom_site_type_symbol
  _atom_site_label
  _atom_site_symmetry_multiplicity
  _atom_site_fract_x
  _atom_site_fract_y
  _atom_site_fract_z
  _atom_site_occupancy
  Al  Al1       1.0  0.5009057805139748  0.5005697921846844  0.4972240465721214  1.0000
  Al  Al2       1.0  0.0005467855157946491  0.5007183724212111  0.4994177526801807  1.0000
  H   H1        1.0  0.2216831565359243  0.6433651809324132  0.403122433092051  1.0000
  H   H2        1.0  0.7824290376287453  0.35454752342384666  0.5880234328864163  1.0000
  H   H3        1.0  0.7602532147541156  0.11730177021260599  0.47082723751135086  1.0000
  H   H4        1.0  0.24048001018035609  0.8836477585061857  0.5266332507206783  1.0000
  H   H5        1.0  0.6147809839651044  0.5192506191695755  0.13959930697536294  1.0000
  H   H6        1.0  0.5189068262508414  0.48827874745246913  0.7725334660853989  1.0000
  H   H7        1.0  0.4623633410951983  0.5694326641587182  0.8883645073203255  1.0000
  H   H8        1.0  0.5377334031109698  0.4008254031627486  0.9062943846115559  1.0000
  C   C1        1.0  0.8430666042374495  0.5065313359039861  0.3037353519683919  1.0000
  C   C2        1.0  0.6266103777462675  0.7245535785721202  0.5031408099900502  1.0000
  C   C3        1.0  0.16056759144789381  0.49563200067623825  0.6932409534387887  1.0000
  C   C4        1.0  0.3747912663535118  0.27650284672343156  0.49399171151411997  1.0000
  C   C5        1.0  0.5621360331605061  0.8659927636834723  0.5033494735465354  1.0000
  C   C6        1.0  0.4386252712709435  0.1350009194426249  0.4942142874347938  1.0000
  C   C7        1.0  0.7050493557837569  0.933957626587798  0.48921348769356143  1.0000
  C   C8        1.0  0.29568993161301194  0.06697819982362321  0.5086262057924245  1.0000
  C   C9        1.0  0.6472241659524156  0.06532536789686819  0.48379938682974455  1.0000
  C   C10       1.0  0.3534778778291214  0.9356202761196212  0.5138709214460704  1.0000
  C   C11       1.0  0.22706660204693926  0.49258357553380694  0.8858649060211903  1.0000
  C   C12       1.0  0.779235967035568  0.5110787425895537  0.11222525849777301  1.0000
  C   C13       1.0  0.10477412904126035  0.500040344779393  0.8124807381719988  1.0000
  C   C14       1.0  0.9032637025880845  0.5035409030964287  0.18434868420263234  1.0000
  C   C15       1.0  0.8959329391998309  0.5071339476984633  0.0030027150040368563  1.0000
  C   C16       1.0  0.1060021183753648  0.4964384768252047  0.9943645829808361  1.0000
  C   C17       1.0  0.44883038822256793  0.48669781696656866  0.860394282421538  1.0000
  S   S1        1.0  0.8482200496980427  0.513076501836707  0.8750833041523619  1.0000
  S   S2        1.0  0.1604271383040939  0.49164049643825075  0.12051811636871428  1.0000
  N   N1        1.0  0.9263434339098425  0.86688904070602  0.48572064874665705  1.0000
  N   N2        1.0  0.0745238247419806  0.13438743642499418  0.5120442080485361  1.0000
  O   O1        1.0  0.6526311491193582  0.5184260145565958  0.3488773062007909  1.0000
  O   O2        1.0  0.8199059254367712  0.6701927035103027  0.4938372964979862  1.0000
  O   O3        1.0  0.011649694176519194  0.5033659913912132  0.6478317132070686  1.0000
  O   O4        1.0  0.5165549210840865  0.32737654310254527  0.4855145896185321  1.0000
  O   O5        1.0  0.3500997035754453  0.4817978658706751  0.6451031582138995  1.0000
  O   O6        1.0  0.18119868393645794  0.331033260021151  0.5050855932075394  1.0000
  O   O7        1.0  0.9890731224956039  0.49901749713620097  0.3509714956170953  1.0000
  O   O8        1.0  0.4859904259044114  0.6734531393587346  0.5096897728893666  1.0000
  O   O9        1.0  0.24292799346153526  0.5604803133888581  0.4486028371269057  1.0000
  O   O10       1.0  0.7578576298062175  0.4406842103024218  0.548302333271856  1.0000
  O   O11       1.0  0.9772009666275355  0.8310554027356571  0.5764461405995361  1.0000
  O   O12       1.0  0.04496637826392189  0.8574612258146747  0.3944804653288045  1.0000
  O   O13       1.0  0.9556137014211005  0.1442327468085551  0.603237580865347  1.0000
  O   O14       1.0  0.023859379605987396  0.17066762014331263  0.4213257450793861  1.0000
