data_image0
_chemical_formula_structural       Zn8H24C54N24O26
_chemical_formula_sum              "Zn8 H24 C54 N24 O26"
_cell_length_a       17.381978237055772
_cell_length_b       18.195810158806122
_cell_length_c       18.603679042577554
_cell_angle_alpha    62.72539693589839
_cell_angle_beta     61.64289320192372
_cell_angle_gamma    61.08103608553923

_space_group_name_H-M_alt    "P 1"
_space_group_IT_number       1

loop_
  _space_group_symop_operation_xyz
  'x, y, z'

loop_
  _atom_site_type_symbol
  _atom_site_label
  _atom_site_symmetry_multiplicity
  _atom_site_fract_x
  _atom_site_fract_y
  _atom_site_fract_z
  _atom_site_occupancy
  Zn  Zn1       1.0  0.8855617403423465  0.03161328595865599  0.09201489118428441  1.0000
  Zn  Zn2       1.0  0.07549205229100407  0.03639139832586841  0.08292730973442991  1.0000
  Zn  Zn3       1.0  0.06018387960818218  0.027177256270647404  0.9228759706888211  1.0000
  Zn  Zn4       1.0  0.07247547096528703  0.8614161808098189  0.08324203953307563  1.0000
  Zn  Zn5       1.0  0.6593970372521978  0.4401374010309596  0.509311128914213  1.0000
  Zn  Zn6       1.0  0.47428055225375937  0.4468422625447345  0.49866580694632034  1.0000
  Zn  Zn7       1.0  0.4764657331544059  0.6155274010174734  0.510566989315784  1.0000
  Zn  Zn8       1.0  0.4696500662404973  0.45215825619243316  0.6704554686011335  1.0000
  H   H1        1.0  0.9395143247104939  0.22916673404250076  0.21210338636666384  1.0000
  H   H2        1.0  0.8426738178126384  0.31775128082403364  0.3157691072442291  1.0000
  H   H3        1.0  0.7142584020484646  0.14062635482714816  0.2929128454330865  1.0000
  H   H4        1.0  0.5212405091985698  0.27045608633436286  0.32549913198881353  1.0000
  H   H5        1.0  0.9202112510360932  0.131892541321875  0.7546625402919174  1.0000
  H   H6        1.0  0.8298308104083388  0.23874448780141927  0.6536712445292281  1.0000
  H   H7        1.0  0.6934478642066108  0.2336906955753548  0.958239472595871  1.0000
  H   H8        1.0  0.49438214486160326  0.2757235723194071  0.9346400505427255  1.0000
  H   H9        1.0  0.9424698795715825  0.6813349520673243  0.2849643784897609  1.0000
  H   H10       1.0  0.8469971905727859  0.5824936761088962  0.37998208908972947  1.0000
  H   H11       1.0  0.7087815691573454  0.8833566416917688  0.205814590229359  1.0000
  H   H12       1.0  0.5110153149301765  0.8923694370820954  0.35779457762835426  1.0000
  H   H13       1.0  0.13485525954900612  0.255945029739486  0.7634821233726613  1.0000
  H   H14       1.0  0.23359148341515373  0.35028142761105835  0.6587846988487911  1.0000
  H   H15       1.0  0.3271920359259823  0.10598256129733129  0.9044753753073067  1.0000
  H   H16       1.0  0.42165916778637297  0.1535530137469294  0.9358996480716613  1.0000
  H   H17       1.0  0.2866793188899731  0.6925615108630866  0.18705314439213794  1.0000
  H   H18       1.0  0.3692760687002233  0.5916131992347714  0.2954027790232559  1.0000
  H   H19       1.0  0.16123765747818208  0.8956295384849609  0.30664884046944957  1.0000
  H   H20       1.0  0.28981578884449966  0.903517950200431  0.3756024922297031  1.0000
  H   H21       1.0  0.19009635180044876  0.680218946634042  0.9458026592128662  1.0000
  H   H22       1.0  0.2881885935736577  0.5865878120509719  0.846827548533959  1.0000
  H   H23       1.0  0.28163630835179976  0.8933324863363268  0.7464406481313619  1.0000
  H   H24       1.0  0.3040461055677637  0.8987797667516658  0.5561595513114244  1.0000
  C   C1        1.0  0.8877850022189192  0.1292838886619094  0.18191498458503458  1.0000
  C   C2        1.0  0.831710431481035  0.18190488961046467  0.2441168078242554  1.0000
  C   C3        1.0  0.8687762751112869  0.23016240392554715  0.25198988831214575  1.0000
  C   C4        1.0  0.8150297374631987  0.2790913780510635  0.30977309608135767  1.0000
  C   C5        1.0  0.7236417847796444  0.2813227002457666  0.3605727975334147  1.0000
  C   C6        1.0  0.6653227333870502  0.34278024677977464  0.4147058684101738  1.0000
  C   C7        1.0  0.6884500393077457  0.22978991682813185  0.3544073237743959  1.0000
  C   C8        1.0  0.741708884719827  0.1809854456299291  0.2965530636470177  1.0000
  C   C9        1.0  0.5238900731510084  0.24368918094312153  0.3900417730419292  1.0000
  C   C10       1.0  0.868417355328013  0.11467914688872578  0.9212437188723258  1.0000
  C   C11       1.0  0.8122129340720786  0.17568216350355206  0.8625679799834816  1.0000
  C   C12       1.0  0.8507783720666706  0.17747046460047503  0.7765921242074328  1.0000
  C   C13       1.0  0.800833401473042  0.23701521416570154  0.7205101780773191  1.0000
  C   C14       1.0  0.7114582762485495  0.2954939952263587  0.7487098948933595  1.0000
  C   C15       1.0  0.6581938248178856  0.3547454549752516  0.687042890292503  1.0000
  C   C16       1.0  0.6734489612778914  0.2930713541854146  0.8353037727195272  1.0000
  C   C17       1.0  0.7230929688515244  0.2337972362760681  0.8918164623196033  1.0000
  C   C18       1.0  0.5017237386137977  0.33891811046692766  0.9136739979812987  1.0000
  C   C19       1.0  0.8864761557401901  0.8488094255471663  0.1848162471150446  1.0000
  C   C20       1.0  0.8306567294707603  0.7889592965909172  0.2414447115545356  1.0000
  C   C21       1.0  0.8703937018045804  0.7035277193080274  0.28913372338618604  1.0000
  C   C22       1.0  0.8176262332326302  0.648578306619335  0.34134137004339477  1.0000
  C   C23       1.0  0.7250584739874595  0.6768911308843214  0.3464398446642107  1.0000
  C   C24       1.0  0.6684267881844402  0.618324519233532  0.4088628784419654  1.0000
  C   C25       1.0  0.6868720779010784  0.7620598679461068  0.2959744771120183  1.0000
  C   C26       1.0  0.7387792000712352  0.8178050123194109  0.24479154817613125  1.0000
  C   C27       1.0  0.5181397960582645  0.8567435459789221  0.32008201486299004  1.0000
  C   C28       1.0  0.16136492714915815  0.1257070921609795  0.9060483123018274  1.0000
  C   C29       1.0  0.22308487174198885  0.17849790505592716  0.8421067157215419  1.0000
  C   C30       1.0  0.19828595282069728  0.2448772661374079  0.7712008926453819  1.0000
  C   C31       1.0  0.25333309478769184  0.2968067160048662  0.7129587235114345  1.0000
  C   C32       1.0  0.3337906408848355  0.28308125543060914  0.7241676724006254  1.0000
  C   C33       1.0  0.38168566045513325  0.34979111820128844  0.6695473569076995  1.0000
  C   C34       1.0  0.3615004436111349  0.21230072597542454  0.7922138491130681  1.0000
  C   C35       1.0  0.3060850726874732  0.1608171386416331  0.8516134100563165  1.0000
  C   C36       1.0  0.4695814848580467  0.1654229857702347  0.8711194742881502  1.0000
  C   C37       1.0  0.17193325150207533  0.8602939570921033  0.17466813993335245  1.0000
  C   C38       1.0  0.2215290522389636  0.800730492874969  0.2388103571313991  1.0000
  C   C39       1.0  0.27829164387686217  0.7144517411733916  0.2366807447065398  1.0000
  C   C40       1.0  0.3233427968222812  0.6583570834202064  0.29710694329077114  1.0000
  C   C41       1.0  0.3120040085595051  0.6866773588769062  0.36104960468421887  1.0000
  C   C42       1.0  0.3699307185826868  0.6268580863556676  0.41850755861148775  1.0000
  C   C43       1.0  0.25173849349781796  0.7723264738096559  0.36468134550992215  1.0000
  C   C44       1.0  0.2078587175869513  0.8294623061126102  0.3033903447204978  1.0000
  C   C45       1.0  0.25015381775203577  0.8651442705144063  0.4326429912554205  1.0000
  C   C46       1.0  0.16720489604167443  0.8503739297034584  0.908542130520651  1.0000
  C   C47       1.0  0.22763105874381026  0.7931099762339429  0.8512311559458825  1.0000
  C   C48       1.0  0.23087423744695448  0.7061214279161944  0.8803316324697761  1.0000
  C   C49       1.0  0.28522110775653425  0.6542129269910149  0.8255236259568762  1.0000
  C   C50       1.0  0.3374874502454757  0.6876230942940394  0.7411369428587734  1.0000
  C   C51       1.0  0.3876006218917637  0.6309614454063207  0.683358558932511  1.0000
  C   C52       1.0  0.3371351299719264  0.7739383993717652  0.713906036409  1.0000
  C   C53       1.0  0.2819036020529067  0.8265534264675621  0.7681235243404957  1.0000
  C   C54       1.0  0.373232750254054  0.870142998362958  0.5612193373903268  1.0000
  N   N1        1.0  0.599144875576762  0.22349368705469885  0.4091268083853593  1.0000
  N   N2        1.0  0.4559186697623118  0.22724916641691098  0.4619476861464449  1.0000
  N   N3        1.0  0.4914359843431978  0.1958088762571748  0.5261838818289633  1.0000
  N   N4        1.0  0.5767200068346411  0.19328971285281674  0.4962130918756388  1.0000
  N   N5        1.0  0.5838178246197641  0.3526431967421786  0.8674033361365119  1.0000
  N   N6        1.0  0.4355192945782774  0.41401250636955206  0.9253342247653153  1.0000
  N   N7        1.0  0.4792569613600363  0.47463999715183297  0.8846741171328887  1.0000
  N   N8        1.0  0.5679434246883229  0.4395312679618826  0.8491591319174249  1.0000
  N   N9        1.0  0.5959781044605491  0.7927999646040503  0.29196171722784203  1.0000
  N   N10       1.0  0.4508768844949455  0.8625595205773919  0.30057796999497566  1.0000
  N   N11       1.0  0.4892968157196478  0.8005740255106628  0.2599442600675913  1.0000
  N   N12       1.0  0.576153494570654  0.7577381483190562  0.2542107420229415  1.0000
  N   N13       1.0  0.44730804366605526  0.1921860941090756  0.8004109938305035  1.0000
  N   N14       1.0  0.5572264816927798  0.15751558954074338  0.847881152987661  1.0000
  N   N15       1.0  0.5891451936250718  0.17955828891567893  0.7603846690224644  1.0000
  N   N16       1.0  0.5247398916114319  0.20032728921766813  0.7309607510352408  1.0000
  N   N17       1.0  0.2312263772965934  0.801136059050819  0.43320108758864967  1.0000
  N   N18       1.0  0.2201693761128992  0.8660394945312646  0.5124460292489347  1.0000
  N   N19       1.0  0.18229164834182388  0.8008002764222935  0.5621791790227564  1.0000
  N   N20       1.0  0.1884219966817111  0.7608644404026632  0.5161622910285147  1.0000
  N   N21       1.0  0.39512956350861117  0.8096356131102522  0.6316572808863653  1.0000
  N   N22       1.0  0.45058413536216313  0.8820665551383513  0.4997683740337708  1.0000
  N   N23       1.0  0.5205100301237308  0.8272002145789653  0.5342845225469687  1.0000
  N   N24       1.0  0.48899558160586976  0.7830120312650948  0.6131799538068563  1.0000
  O   O1        1.0  0.021648103729567925  0.9901006072504895  0.04789091083718931  1.0000
  O   O2        1.0  0.9734715975941126  0.12201692295279538  0.14445983911141264  1.0000
  O   O3        1.0  0.8444509885679067  0.09636072188339989  0.1719608381017322  1.0000
  O   O4        1.0  0.5792022294148181  0.37778943601199433  0.4227145170427137  1.0000
  O   O5        1.0  0.707901227751229  0.3569772122554439  0.4442995589196883  1.0000
  O   O6        1.0  0.9529609813803999  0.0723902116034694  0.8864231194536174  1.0000
  O   O7        1.0  0.828858562997233  0.11010117176062546  0.0005330477198129717  1.0000
  O   O8        1.0  0.5702725106897116  0.3783517046280308  0.719375329339478  1.0000
  O   O9        1.0  0.7056471305913445  0.3746967645371129  0.6077797444670094  1.0000
  O   O10       1.0  0.9739614859768292  0.8134222821498724  0.1713347065479027  1.0000
  O   O11       1.0  0.8422247885550717  0.9296544022504137  0.15454513047943416  1.0000
  O   O12       1.0  0.5814789255913979  0.6573071034169399  0.4364693292362531  1.0000
  O   O13       1.0  0.7120914670297648  0.5357359640337905  0.4305105666504474  1.0000
  O   O14       1.0  0.10710243498159137  0.1235222659590107  0.879599468701116  1.0000
  O   O15       1.0  0.16676750060850046  0.0879307581140125  0.9816931855334657  1.0000
  O   O16       1.0  0.39473119381406707  0.3798300502296499  0.7111473927132793  1.0000
  O   O17       1.0  0.3994228679552731  0.3733965511593595  0.5893783796282223  1.0000
  O   O18       1.0  0.16810400819210955  0.8235594975016836  0.13272874602194656  1.0000
  O   O19       1.0  0.13701225356943775  0.9423497329978968  0.16737524404442902  1.0000
  O   O20       1.0  0.3919287997893402  0.6635096480036535  0.4464808362924872  1.0000
  O   O21       1.0  0.3951185859820468  0.5446676944706041  0.4312060571304812  1.0000
  O   O22       1.0  0.12940484740646932  0.8136305325461136  0.9870759295478496  1.0000
  O   O23       1.0  0.1576837266993534  0.9320339902823844  0.8743715968208294  1.0000
  O   O24       1.0  0.41342995898575197  0.6684143606750368  0.603113916909841  1.0000
  O   O25       1.0  0.3976174554123445  0.5496491844849699  0.7196117684287203  1.0000
  O   O26       1.0  0.5227838196798017  0.48668088836232926  0.5453792971846384  1.0000
