data_image0
_chemical_formula_structural       Zn4H32C48N8O20
_chemical_formula_sum              "Zn4 H32 C48 N8 O20"
_cell_length_a       9.638680055456694
_cell_length_b       12.83153490674225
_cell_length_c       13.769343600007193
_cell_angle_alpha    89.99992963338143
_cell_angle_beta     89.99992777582375
_cell_angle_gamma    104.69508480550515

_space_group_name_H-M_alt    "P 1"
_space_group_IT_number       1

loop_
  _space_group_symop_operation_xyz
  'x, y, z'

loop_
  _atom_site_type_symbol
  _atom_site_label
  _atom_site_symmetry_multiplicity
  _atom_site_fract_x
  _atom_site_fract_y
  _atom_site_fract_z
  _atom_site_occupancy
  Zn  Zn1       1.0  0.9238245938453177  0.41066281731322357  0.1394693340077424  1.0000
  Zn  Zn2       1.0  0.5761750767222936  0.08933880222205912  0.6394695392650007  1.0000
  Zn  Zn3       1.0  0.07617447724069143  0.5893384355926585  0.8605308474820819  1.0000
  Zn  Zn4       1.0  0.4238257885372505  0.9106616361601569  0.36052918972243486  1.0000
  H   H1        1.0  0.6523654093795842  0.4975046671074708  0.12176049886151223  1.0000
  H   H2        1.0  0.8476343038187436  0.002496984002831901  0.6217612903317546  1.0000
  H   H3        1.0  0.3476317923899686  0.5024941732083477  0.8782396826305147  1.0000
  H   H4        1.0  0.15236532282933268  0.9975058802486528  0.3782374386548497  1.0000
  H   H5        1.0  0.38376678552979376  0.4115728345312776  0.14139413640826604  1.0000
  H   H6        1.0  0.11623085566173329  0.08842754644864212  0.6413957599460718  1.0000
  H   H7        1.0  0.616231452215729  0.5884260013581368  0.8586060450833062  1.0000
  H   H8        1.0  0.8837666238871054  0.911572099538681  0.3586051477964034  1.0000
  H   H9        1.0  0.3137752203432456  0.2382583323296217  0.235771313771167  1.0000
  H   H10       1.0  0.18622426560219912  0.2617418715201866  0.7357719520604391  1.0000
  H   H11       1.0  0.6862245337939117  0.761738883362682  0.764228867720661  1.0000
  H   H12       1.0  0.8137763218763113  0.7382577611892245  0.2642275031786099  1.0000
  H   H13       1.0  0.9376716607459701  0.12868842559371532  0.4724185478720884  1.0000
  H   H14       1.0  0.5623297606622941  0.37131097565623605  0.9724191704267043  1.0000
  H   H15       1.0  0.062334256898246565  0.871317639211135  0.5275838123650871  1.0000
  H   H16       1.0  0.43766681039790006  0.6286830261970096  0.027584642323510905  1.0000
  H   H17       1.0  0.15189030556260974  0.17938030959392387  0.3603714031091344  1.0000
  H   H18       1.0  0.3481107497422046  0.32062208467866077  0.8603725580971828  1.0000
  H   H19       1.0  0.8481113930374137  0.8206225458047527  0.6396273258765603  1.0000
  H   H20       1.0  0.6518895599552723  0.6793767423579453  0.1396276233934799  1.0000
  H   H21       1.0  0.1286639238667391  0.2904728230505214  0.2115755861230184  1.0000
  H   H22       1.0  0.37133617588593654  0.2095290352849588  0.7115768471915871  1.0000
  H   H23       1.0  0.8713343138831535  0.7095260128421262  0.7884209641133921  1.0000
  H   H24       1.0  0.6286686306428849  0.790473806835159  0.28842115554171954  1.0000
  H   H25       1.0  0.10662272371304485  0.3576203854825836  0.016418832758653  1.0000
  H   H26       1.0  0.39337597653702266  0.1423794082368346  0.5164179721497106  1.0000
  H   H27       1.0  0.8933753113978612  0.6423808718503496  0.9835806224805951  1.0000
  H   H28       1.0  0.6066238527456705  0.8576210345711389  0.4835814830892106  1.0000
  H   H29       1.0  0.15936918192284824  0.47687628573384433  0.04812758794368221  1.0000
  H   H30       1.0  0.34062944199281026  0.023123451447460797  0.5481269095844611  1.0000
  H   H31       1.0  0.8406265034550701  0.5231241747790847  0.951872593548089  1.0000
  H   H32       1.0  0.6593703872907567  0.9768769913611591  0.4518718194034292  1.0000
  C   C1        1.0  0.6104591599335907  0.4241699496151554  0.16345099955970002  1.0000
  C   C2        1.0  0.889540452899368  0.07583162715816631  0.6634531231241142  1.0000
  C   C3        1.0  0.389539355592973  0.5758296919470638  0.8365484556802585  1.0000
  C   C4        1.0  0.11045965416261785  0.9241696213213118  0.3365470583652552  1.0000
  C   C5        1.0  0.4646301593442744  0.3765234877665904  0.1740870372368803  1.0000
  C   C6        1.0  0.035369197314764705  0.12347602039497471  0.6740894182847725  1.0000
  C   C7        1.0  0.5353678006219624  0.6234745424513122  0.8259124180042435  1.0000
  C   C8        1.0  0.9646303541860208  0.8765236167395472  0.32591148945679294  1.0000
  C   C9        1.0  0.4256618433187782  0.2812812811059828  0.2267533809645599  1.0000
  C   C10       1.0  0.0743376643340881  0.21871893882172344  0.7267556192394338  1.0000
  C   C11       1.0  0.5743379108201268  0.7187159345876138  0.7732453480252062  1.0000
  C   C12       1.0  0.9256632009228342  0.7812814995585527  0.27324528850110147  1.0000
  C   C13       1.0  0.5287389372966445  0.23619570310376048  0.2693799393481271  1.0000
  C   C14       1.0  0.9712611787249446  0.26380487469647557  0.7693810506452368  1.0000
  C   C15       1.0  0.47126005864644344  0.7638023226883918  0.7306187896415041  1.0000
  C   C16       1.0  0.028740444727787834  0.7361947535852379  0.23061985709542657  1.0000
  C   C17       1.0  0.6739968274534718  0.2912071948916761  0.25743228836439164  1.0000
  C   C18       1.0  0.8260022813541285  0.2087934086379235  0.7574335901732496  1.0000
  C   C19       1.0  0.32600272404993563  0.7087924422447858  0.7425664406240813  1.0000
  C   C20       1.0  0.17399858390191977  0.7912070297416988  0.24256804381831643  1.0000
  C   C21       1.0  0.8007926617557715  0.2577140857658194  0.29577394861875217  1.0000
  C   C22       1.0  0.699207390726663  0.24228644497328136  0.7957745976384203  1.0000
  C   C23       1.0  0.1992068897467619  0.7422855513699961  0.7042255066207518  1.0000
  C   C24       1.0  0.30079554648133205  0.7577139845535326  0.2042270363522363  1.0000
  C   C25       1.0  0.8068017797194075  0.2022942328616182  0.3832530930953127  1.0000
  C   C26       1.0  0.6931980621698699  0.2977061418988072  0.8832536842864371  1.0000
  C   C27       1.0  0.19319991887886803  0.7977086225357655  0.6167470883924508  1.0000
  C   C28       1.0  0.3068019697448178  0.7022918794637008  0.1167486759579006  1.0000
  C   C29       1.0  0.933136842246256  0.17207169328145264  0.404967960562523  1.0000
  C   C30       1.0  0.5668639833417899  0.3279286383327574  0.9049700810368222  1.0000
  C   C31       1.0  0.06686513413217901  0.8279319677880891  0.595032220924658  1.0000
  C   C32       1.0  0.43313577079186416  0.6720685773569527  0.09503300545913622  1.0000
  C   C33       1.0  0.051615290272472684  0.20044015349112237  0.34389570433554445  1.0000
  C   C34       1.0  0.44838552691508954  0.2995614644861817  0.8438967950456444  1.0000
  C   C35       1.0  0.9483866861068365  0.7995635075790659  0.6561037509006056  1.0000
  C   C36       1.0  0.551614782781506  0.7004373625497774  0.156104112696049  1.0000
  C   C37       1.0  0.040155940125515585  0.2607462280825247  0.26175813581584617  1.0000
  C   C38       1.0  0.4598443165994511  0.2392563464471209  0.7617600113729779  1.0000
  C   C39       1.0  0.9598431309639893  0.739255024825944  0.7382391406698546  1.0000
  C   C40       1.0  0.5401588983921997  0.7607448887544378  0.2382387176129726  1.0000
  C   C41       1.0  0.4686775912181673  0.13066338011281434  0.3208683190447985  1.0000
  C   C42       1.0  0.03132168986693527  0.36933667200440107  0.820870423643271  1.0000
  C   C43       1.0  0.5313260290470937  0.8693330122049546  0.6791282311906386  1.0000
  C   C44       1.0  0.9686799335814272  0.6306629562740724  0.1791341153525536  1.0000
  C   C45       1.0  0.6942262076055031  0.18672996430611014  0.4617332905280662  1.0000
  C   C46       1.0  0.8057704125710857  0.3132735109154012  0.9617337649017444  1.0000
  C   C47       1.0  0.3057718275054029  0.8132712930268157  0.5382661647111888  1.0000
  C   C48       1.0  0.19422734475703865  0.6867269407434337  0.03826786909118601  1.0000
  N   N1        1.0  0.710544944029934  0.38204783833759154  0.2034659588609955  1.0000
  N   N2        1.0  0.7894542946944086  0.1179528614166045  0.7034666700479875  1.0000
  N   N3        1.0  0.2894538492767822  0.617952608896779  0.7965334963783803  1.0000
  N   N4        1.0  0.21054553458741052  0.8820475813907223  0.2965335114419645  1.0000
  N   N5        1.0  0.9187909155483072  0.2878447904521622  0.2388140110859069  1.0000
  N   N6        1.0  0.5812082380815583  0.21215584627565676  0.7388140720349272  1.0000
  N   N7        1.0  0.08120787775840914  0.7121556567822085  0.761185444153469  1.0000
  N   N8        1.0  0.41879366315220773  0.7878445876788617  0.2611861094541226  1.0000
  O   O1        1.0  0.3606814661819158  0.1241292987163476  0.3738026292678498  1.0000
  O   O2        1.0  0.13931561552064406  0.3758706678704797  0.8738039051146559  1.0000
  O   O3        1.0  0.6393177323975437  0.8758663056335865  0.6261953734720366  1.0000
  O   O4        1.0  0.8606831777825833  0.6241297793613042  0.12619845512885064  1.0000
  O   O5        1.0  0.5283963725652683  0.0537404917818449  0.3032494865288129  1.0000
  O   O6        1.0  0.9716042174826639  0.4462616369734605  0.8032489372217384  1.0000
  O   O7        1.0  0.47160835881801694  0.9462591232226031  0.6967492424573934  1.0000
  O   O8        1.0  0.02839588957844091  0.553739611505371  0.1967519705186689  1.0000
  O   O9        1.0  0.6350117823207456  0.2594945657695149  0.4805598806563084  1.0000
  O   O10       1.0  0.8649911358776023  0.24050320076517553  0.980562564534168  1.0000
  O   O11       1.0  0.3649879718190335  0.7405026499247286  0.5194381220824199  1.0000
  O   O12       1.0  0.13501124576832527  0.759495617416036  0.019440521959715802  1.0000
  O   O13       1.0  0.6751733334970282  0.0959339900705132  0.509235978121076  1.0000
  O   O14       1.0  0.8248276865655272  0.4040678572504461  0.0092351412632468  1.0000
  O   O15       1.0  0.32482856773673763  0.9040664438840053  0.4907642033679737  1.0000
  O   O16       1.0  0.17517269827661158  0.5959341969011832  0.9907650402255472  1.0000
  O   O17       1.0  0.12711827682105079  0.40223355812798184  0.07550803480202722  1.0000
  O   O18       1.0  0.3728813171563132  0.0977661258066149  0.5755072430435249  1.0000
  O   O19       1.0  0.8728807942649581  0.5977676947778932  0.9244921466877971  1.0000
  O   O20       1.0  0.6271185121272539  0.9022343170020052  0.4244914859443654  1.0000
