data_image0
_chemical_formula_structural       Zn4H64C44I8N16
_chemical_formula_sum              "Zn4 H64 C44 I8 N16"
_cell_length_a       9.805125552000675
_cell_length_b       12.803839569063408
_cell_length_c       13.369631759065642
_cell_angle_alpha    90.00035864071192
_cell_angle_beta     89.99998701141624
_cell_angle_gamma    90.00004016742588

_space_group_name_H-M_alt    "P 1"
_space_group_IT_number       1

loop_
  _space_group_symop_operation_xyz
  'x, y, z'

loop_
  _atom_site_type_symbol
  _atom_site_label
  _atom_site_symmetry_multiplicity
  _atom_site_fract_x
  _atom_site_fract_y
  _atom_site_fract_z
  _atom_site_occupancy
  Zn  Zn1       1.0  0.0717644883458988  0.1786454537823587  0.6563723841826742  1.0000
  Zn  Zn2       1.0  0.4282375994422551  0.8213573726947273  0.1563709792084751  1.0000
  Zn  Zn3       1.0  0.9282381668757721  0.6786416283048382  0.8436302758853598  1.0000
  Zn  Zn4       1.0  0.5717653375125022  0.3213541019060385  0.3436274316532035  1.0000
  H   H1        1.0  0.5459613472107989  0.18760918206645982  0.8593428079050938  1.0000
  H   H2        1.0  0.9540360331561358  0.8123936800596072  0.3593443367239573  1.0000
  H   H3        1.0  0.4540362167894969  0.6876068969070418  0.6406546701224016  1.0000
  H   H4        1.0  0.0459617962730476  0.31238957866292344  0.1406577602539514  1.0000
  H   H5        1.0  0.6056811262032651  0.2128121926261955  0.9810851992578833  1.0000
  H   H6        1.0  0.8943182569137632  0.7871930277399812  0.4810880831176902  1.0000
  H   H7        1.0  0.39431748058874655  0.7128082979693673  0.5189116817894259  1.0000
  H   H8        1.0  0.10568158934890448  0.28718816241092787  0.018915358810915  1.0000
  H   H9        1.0  0.7814239561669538  0.20748609771201393  0.6210842285019851  1.0000
  H   H10       1.0  0.7185734966098206  0.7925120821281624  0.12108717395646099  1.0000
  H   H11       1.0  0.21857362590998966  0.7074883675822861  0.878912620655818  1.0000
  H   H12       1.0  0.28142533461735286  0.292512790276291  0.3789162998548079  1.0000
  H   H13       1.0  0.6729052256098882  0.28303787586523305  0.698040959014115  1.0000
  H   H14       1.0  0.8270932236536478  0.7169623693099253  0.19804418147202799  1.0000
  H   H15       1.0  0.32709344504171156  0.7830381390513779  0.8019555947962616  1.0000
  H   H16       1.0  0.1729045189993457  0.21696173448550127  0.3019588397252448  1.0000
  H   H17       1.0  0.635342161148614  0.14949035479472883  0.676434133106561  1.0000
  H   H18       1.0  0.8646562946810548  0.850508187036546  0.17643665335077693  1.0000
  H   H19       1.0  0.3646563880661872  0.6494923416261428  0.8235631165679251  1.0000
  H   H20       1.0  0.13534156940861655  0.3505092352570572  0.3235664199461397  1.0000
  H   H21       1.0  0.0020754806142093997  0.09761309875317183  0.058494049870716894  1.0000
  H   H22       1.0  0.497923577295637  0.9023883065945102  0.558498222747744  1.0000
  H   H23       1.0  0.9979231733873984  0.5976115130807145  0.4415022726051632  1.0000
  H   H24       1.0  0.5020752018819792  0.40238720028635566  0.9415057777477004  1.0000
  H   H25       1.0  0.8331387578039297  0.048008681380181904  0.061421361186859307  1.0000
  H   H26       1.0  0.6668587131066203  0.9519914513081461  0.5614243912702008  1.0000
  H   H27       1.0  0.16685679146754495  0.5480081894361319  0.43857541208168266  1.0000
  H   H28       1.0  0.33313807142748425  0.4519917965864693  0.9385784104692546  1.0000
  H   H29       1.0  0.86296505233647  0.1825059259066037  0.0862175080529681  1.0000
  H   H30       1.0  0.637034450788029  0.8174951499639035  0.5862197374225246  1.0000
  H   H31       1.0  0.1370326589845661  0.6825036936482506  0.413780818932203  1.0000
  H   H32       1.0  0.36296425119505926  0.31749456818000255  0.9137822585613691  1.0000
  H   H33       1.0  0.08217837103899939  0.12310892319514721  0.8745794235905818  1.0000
  H   H34       1.0  0.41781855105533333  0.8768906442862772  0.37458134493572  1.0000
  H   H35       1.0  0.9178201541856126  0.6231091320957418  0.6254191639578224  1.0000
  H   H36       1.0  0.5821793370245203  0.3768914191373086  0.1254203904872782  1.0000
  H   H37       1.0  0.5206544423813141  0.8044033468695987  0.9458219833088037  1.0000
  H   H38       1.0  0.9793500508255732  0.1955992998275065  0.4458250484485333  1.0000
  H   H39       1.0  0.47935036694588  0.30440125715865923  0.5541739505284511  1.0000
  H   H40       1.0  0.0206537916489609  0.695596214857126  0.0541778447570778  1.0000
  H   H41       1.0  0.6103045407387951  0.8527539336344817  0.7749512962068579  1.0000
  H   H42       1.0  0.8896969447756572  0.1472483765606967  0.2749510949821712  1.0000
  H   H43       1.0  0.38969827280516256  0.3527529129848972  0.7250471711881089  1.0000
  H   H44       1.0  0.11030379410848207  0.6472456765520602  0.22505076059601237  1.0000
  H   H45       1.0  0.7196086472696022  0.9629748145196048  0.7772875079421695  1.0000
  H   H46       1.0  0.7803907977840154  0.03702516791207701  0.2772889087574697  1.0000
  H   H47       1.0  0.28039120687734703  0.4629760625598606  0.7227101238535525  1.0000
  H   H48       1.0  0.21960780112348027  0.5370248547367638  0.22271303445662477  1.0000
  H   H49       1.0  0.5468632942037741  0.9779428069893827  0.7384031755438869  1.0000
  H   H50       1.0  0.953138202416973  0.022056921138677403  0.2384052054495669  1.0000
  H   H51       1.0  0.453138613303288  0.47794362168099974  0.7615937979582128  1.0000
  H   H52       1.0  0.046863442503358485  0.5220559878916263  0.2615981440168014  1.0000
  H   H53       1.0  0.4726089303861514  0.04493262249732059  0.20193086197727436  1.0000
  H   H54       1.0  0.0273931435550736  0.9550697209293945  0.7019324381436718  1.0000
  H   H55       1.0  0.5273937552110297  0.5449314064686848  0.2980666408239259  1.0000
  H   H56       1.0  0.9726107829002117  0.4550671498351093  0.7980696340642622  1.0000
  H   H57       1.0  0.4199283789658068  0.14845364084687424  0.1229521874935529  1.0000
  H   H58       1.0  0.08007371897961238  0.8515489670552656  0.6229493947537605  1.0000
  H   H59       1.0  0.5800733808894944  0.6484514077938075  0.377048179379031  1.0000
  H   H60       1.0  0.9199280735928138  0.3515453219973993  0.8770483174508428  1.0000
  H   H61       1.0  0.5941535720043232  0.1350953012132194  0.15542497926349344  1.0000
  H   H62       1.0  0.9058479498370527  0.8649070082837653  0.6554237074098096  1.0000
  H   H63       1.0  0.4058491955787104  0.6350927616211591  0.3445745596159853  1.0000
  H   H64       1.0  0.0941548747569243  0.3649042665806448  0.8445763287152487  1.0000
  C   C1        1.0  0.8776103053172758  0.1386874659868909  0.9321501734007498  1.0000
  C   C2        1.0  0.6223870529202526  0.8613127482499933  0.4321542952494681  1.0000
  C   C3        1.0  0.12238619432356049  0.6386868684642124  0.5678470115472436  1.0000
  C   C4        1.0  0.37760980111865183  0.3613122549992838  0.0678495907356194  1.0000
  C   C5        1.0  0.8015990807724832  0.17692625249886615  0.77811763010844  1.0000
  C   C6        1.0  0.6984003640294104  0.8230752973965282  0.2781200141001676  1.0000
  C   C7        1.0  0.1984005132640121  0.6769259224268254  0.7218797839244787  1.0000
  C   C8        1.0  0.30159951486329817  0.3230734274063566  0.2218821468766521  1.0000
  C   C9        1.0  0.7591202549747889  0.16086888405037308  0.877892210963111  1.0000
  C   C10       1.0  0.7408771197542449  0.8391340993980522  0.37789617990414825  1.0000
  C   C11       1.0  0.24087626483527905  0.660866362368843  0.6221043589018079  1.0000
  C   C12       1.0  0.2591197141155419  0.3391299918806538  0.1221075732002603  1.0000
  C   C13       1.0  0.6159859257759591  0.15872508678508276  0.917515596665595  1.0000
  C   C14       1.0  0.8840114369107394  0.841277374779942  0.417517310361653  1.0000
  C   C15       1.0  0.3840095722107222  0.6587247263743876  0.5824824562901441  1.0000
  C   C16       1.0  0.11598641878421029  0.341276054837124  0.0824849596636383  1.0000
  C   C17       1.0  0.7187852772716992  0.20524322525028535  0.6888564751346706  1.0000
  C   C18       1.0  0.7812131747831045  0.7947569598592567  0.1888601714071996  1.0000
  C   C19       1.0  0.28121332263972926  0.7052435237055832  0.8111396126165786  1.0000
  C   C20       1.0  0.21878565848469117  0.29475640989962676  0.3111440638128755  1.0000
  C   C21       1.0  0.8956407961648976  0.11570629067371392  0.0402205259968724  1.0000
  C   C22       1.0  0.6043577010644157  0.8842952653925522  0.5402239090445065  1.0000
  C   C23       1.0  0.10435685441394328  0.6157043415799137  0.4597781487636112  1.0000
  C   C24       1.0  0.3956400417862369  0.38429422107290645  0.9597792350940183  1.0000
  C   C25       1.0  0.5722638413290112  0.051719783527467214  0.9513195018295022  1.0000
  C   C26       1.0  0.9277365707081769  0.9482828991203434  0.4513218491922402  1.0000
  C   C27       1.0  0.4277356388551751  0.5517200066768596  0.5486764141430811  1.0000
  C   C28       1.0  0.07226342203802008  0.4482805534486334  0.04868106188816769  1.0000
  C   C29       1.0  0.523449700751982  0.023792377084852503  0.0470043134072071  1.0000
  C   C30       1.0  0.9765508341663319  0.97621156639228  0.547006688265391  1.0000
  C   C31       1.0  0.4765509258718481  0.5237898037609128  0.45299306274120704  1.0000
  C   C32       1.0  0.023450051888907798  0.47620793350680674  0.9529955105981004  1.0000
  C   C33       1.0  0.5741204343223104  0.9589435589953298  0.895618366373853  1.0000
  C   C34       1.0  0.9258789747691836  0.041059540377986495  0.3956205147197593  1.0000
  C   C35       1.0  0.42588043603278436  0.458942549740833  0.6043784933004588  1.0000
  C   C36       1.0  0.07411962780599168  0.5410575936615984  0.1043822006226804  1.0000
  C   C37       1.0  0.6146013088785692  0.9367975263311834  0.7907822005083106  1.0000
  C   C38       1.0  0.885399151949187  0.0632041063889019  0.2907837404033202  1.0000
  C   C39       1.0  0.3853995413391188  0.4367971808311921  0.7092137785297723  1.0000
  C   C40       1.0  0.11460151051193887  0.5632020861754086  0.20921910760440446  1.0000
  C   C41       1.0  0.5013898269009543  0.09113574357810708  0.1362575361888645  1.0000
  C   C42       1.0  0.9986127206402741  0.9088664405684524  0.6362580079383661  1.0000
  C   C43       1.0  0.49861290070887065  0.5911333794769362  0.3637417393342446  1.0000
  C   C44       1.0  0.0013901439265566996  0.40886299305957147  0.8637422915407242  1.0000
  I   I1        1.0  0.04893162670079219  0.3571353731195757  0.5696943928270457  1.0000
  I   I2        1.0  0.45107048743278005  0.6428700105221381  0.0696874269047356  1.0000
  I   I3        1.0  0.9510711908244431  0.8571305648418887  0.9303115804428685  1.0000
  I   I4        1.0  0.5489302474699755  0.1428649512509779  0.4303076707622537  1.0000
  I   I5        1.0  0.2973607453160482  0.12261806771767432  0.7413229289519377  1.0000
  I   I6        1.0  0.20264029677774423  0.8773829713029856  0.24132414165242716  1.0000
  I   I7        1.0  0.7026408390857597  0.6226166887805603  0.7586756556507906  1.0000
  I   I8        1.0  0.7973616712479482  0.37738160989702146  0.2586768487495519  1.0000
  N   N1        1.0  0.9378849390482102  0.1639973353366599  0.7720822603065756  1.0000
  N   N2        1.0  0.5621145075866422  0.8360018320450563  0.2720862407121416  1.0000
  N   N3        1.0  0.062115663107213885  0.663998533110373  0.7279150762751029  1.0000
  N   N4        1.0  0.4378843631865549  0.33600241822566096  0.2279174936410868  1.0000
  N   N5        1.0  0.9815141367941392  0.14181836880682402  0.8657025697540064  1.0000
  N   N6        1.0  0.5184832416385916  0.858182191871393  0.3657059424469935  1.0000
  N   N7        1.0  0.018484405442542602  0.6418165876715349  0.6342953819109239  1.0000
  N   N8        1.0  0.481513609553616  0.3581814083354474  0.1342971768186487  1.0000
  N   N9        1.0  0.49659272635300755  0.9204616876762303  0.0492060150465292  1.0000
  N   N10       1.0  0.0034093940049046995  0.0795412189532598  0.5492083337801148  1.0000
  N   N11       1.0  0.5034113205947505  0.42045986182596107  0.4507922415787249  1.0000
  N   N12       1.0  0.996593171099583  0.5795381312799465  0.9507944805312718  1.0000
  N   N13       1.0  0.5271724961208761  0.8833914106301181  0.9571359191505094  1.0000
  N   N14       1.0  0.9728309737738741  0.11661365310625632  0.45713851219053225  1.0000
  N   N15       1.0  0.47283238503002406  0.3833861193460635  0.542861983813502  1.0000
  N   N16       1.0  0.0271717770018682  0.6166089356375153  0.0428646557796739  1.0000
