data_image0
_chemical_formula_structural       Zn4H64C100N8O20
_chemical_formula_sum              "Zn4 H64 C100 N8 O20"
_cell_length_a       14.632285161451858
_cell_length_b       14.632275986785578
_cell_length_c       16.46944600037327
_cell_angle_alpha    100.99515007219125
_cell_angle_beta     100.9952714064213
_cell_angle_gamma    119.16075888353602

_space_group_name_H-M_alt    "P 1"
_space_group_IT_number       1

loop_
  _space_group_symop_operation_xyz
  'x, y, z'

loop_
  _atom_site_type_symbol
  _atom_site_label
  _atom_site_symmetry_multiplicity
  _atom_site_fract_x
  _atom_site_fract_y
  _atom_site_fract_z
  _atom_site_occupancy
  Zn  Zn1       1.0  0.5737613654260088  0.5854408909347555  0.8581038478169135  1.0000
  Zn  Zn2       1.0  0.41455850819992424  0.4262385446042883  0.6418965249483861  1.0000
  Zn  Zn3       1.0  0.42623822229680286  0.41455836205256685  0.14189479045376163  1.0000
  Zn  Zn4       1.0  0.5854419096505481  0.5737618540780857  0.35810426995387706  1.0000
  H   H1        1.0  0.8035213740341334  0.7754671692072819  0.9808945758856495  1.0000
  H   H2        1.0  0.22453205809623  0.19647845257709662  0.5191070067417982  1.0000
  H   H3        1.0  0.1964782142451327  0.2245327798425194  0.01910660926321842  1.0000
  H   H4        1.0  0.7754658745479404  0.8035219917320119  0.48089398161967273  1.0000
  H   H5        1.0  0.8896025360243486  0.8909908514995522  0.14108654482340202  1.0000
  H   H6        1.0  0.10900885544992889  0.11039723603896327  0.3589135698162735  1.0000
  H   H7        1.0  0.11039622340202732  0.10900864863752698  0.8589132092609759  1.0000
  H   H8        1.0  0.890991562879428  0.8896031631232972  0.6410860108785883  1.0000
  H   H9        1.0  0.5634924106604444  0.7079914222131477  0.16390526315244364  1.0000
  H   H10       1.0  0.2920092339437019  0.43650769734216505  0.3360955369441001  1.0000
  H   H11       1.0  0.43650717482981355  0.2920071330320582  0.8360950779659362  1.0000
  H   H12       1.0  0.7079920147527546  0.5634938477550905  0.6639055932786562  1.0000
  H   H13       1.0  0.49098644789233953  0.6047102692536654  0.003880558953120787  1.0000
  H   H14       1.0  0.3952905003813711  0.5090134419321117  0.4961196462389239  1.0000
  H   H15       1.0  0.5090123097803739  0.39528853362119076  0.9961196837715606  1.0000
  H   H16       1.0  0.6047082562560036  0.49098466440037203  0.5038792638149587  1.0000
  H   H17       1.0  0.7089447813472276  0.8416599705977389  0.2908793422457947  1.0000
  H   H18       1.0  0.15834030031115276  0.29105549991018614  0.20912143339975836  1.0000
  H   H19       1.0  0.2910556347495827  0.1583397308224122  0.7091219412967718  1.0000
  H   H20       1.0  0.8416601180182042  0.7089448992520816  0.7908781472951106  1.0000
  H   H21       1.0  0.7860826274308012  0.028542316555892577  0.38264229863919047  1.0000
  H   H22       1.0  0.9714586835642649  0.21391778440843004  0.1173588845123703  1.0000
  H   H23       1.0  0.21391696132734944  0.9714576329738022  0.6173576723022762  1.0000
  H   H24       1.0  0.028542563378529496  0.786083063426609  0.8826427343506822  1.0000
  H   H25       1.0  0.0292610876081625  0.9045973571885567  0.3521567164853892  1.0000
  H   H26       1.0  0.0954029317919165  0.9707394090553406  0.14784398115006075  1.0000
  H   H27       1.0  0.9707393307211943  0.09540304197370388  0.6478428642094798  1.0000
  H   H28       1.0  0.9045974873333336  0.02926168640934896  0.8521575393192934  1.0000
  H   H29       1.0  0.17272756388510396  0.8995449209514914  0.45650907724557044  1.0000
  H   H30       1.0  0.1004560414652573  0.8272731551968558  0.04349131008457618  1.0000
  H   H31       1.0  0.8272720266267014  0.10045572584042632  0.5434904050555929  1.0000
  H   H32       1.0  0.8995452069917675  0.172728389660456  0.9565104272418736  1.0000
  H   H33       1.0  0.6266266117511136  0.30739497443176583  0.8773696305785493  1.0000
  H   H34       1.0  0.6926065137280518  0.37337487173179085  0.6226322934517015  1.0000
  H   H35       1.0  0.37337297796480573  0.6926049760577226  0.12262791194812907  1.0000
  H   H36       1.0  0.3073947347289661  0.6266266731255214  0.37736944387474836  1.0000
  H   H37       1.0  0.7294061103666251  0.21196655979044718  0.8831969899970389  1.0000
  H   H38       1.0  0.7880335863728191  0.27059372509261687  0.616803406039196  1.0000
  H   H39       1.0  0.27059264850329606  0.7880322442841531  0.11680021720914618  1.0000
  H   H40       1.0  0.21196766009109783  0.7294071222625289  0.3831994270312649  1.0000
  H   H41       1.0  0.9972545847508342  0.48126105902951355  0.8386687947287185  1.0000
  H   H42       1.0  0.5187386301703043  0.00274465432414668  0.6613308140756544  1.0000
  H   H43       1.0  0.0027474917631806995  0.5187402384380917  0.1613324338877362  1.0000
  H   H44       1.0  0.48126095531995366  0.9972539009210662  0.33866952704273257  1.0000
  H   H45       1.0  0.8949042086463378  0.5767816085414451  0.8354563314931056  1.0000
  H   H46       1.0  0.42321884239974844  0.10509589373159403  0.6645433597801116  1.0000
  H   H47       1.0  0.10509786635345357  0.42321899190388723  0.16454477865995187  1.0000
  H   H48       1.0  0.576781574415385  0.8949038084083938  0.33545610245136  1.0000
  H   H49       1.0  0.9361832681505005  0.23453401461244258  0.7084046648779675  1.0000
  H   H50       1.0  0.7654668704212142  0.06381692526128566  0.7915948825836524  1.0000
  H   H51       1.0  0.06381715017885627  0.7654663845498246  0.2915949158169013  1.0000
  H   H52       1.0  0.23453354766869688  0.9361834736610318  0.2084053052149102  1.0000
  H   H53       1.0  0.11597050383451091  0.30658321757782386  0.6761516707364308  1.0000
  H   H54       1.0  0.6934173461591084  0.8840299826885524  0.8238482154769428  1.0000
  H   H55       1.0  0.884030743587175  0.6934176307371089  0.3238487339192275  1.0000
  H   H56       1.0  0.3065830736844646  0.11597111349598072  0.17615148368131633  1.0000
  H   H57       1.0  0.297146694140622  0.49422384768595157  0.9495971699487596  1.0000
  H   H58       1.0  0.5057749722972601  0.7028530217455893  0.5504028907282645  1.0000
  H   H59       1.0  0.7028520605036519  0.5057735611443661  0.05040283584912689  1.0000
  H   H60       1.0  0.49422544754632014  0.2971480744389439  0.4495968084299946  1.0000
  H   H61       1.0  0.11861624308545518  0.4219520898243871  0.9816165586151442  1.0000
  H   H62       1.0  0.5780470180754449  0.8813826656422348  0.5183833102976507  1.0000
  H   H63       1.0  0.8813825115588189  0.5780453190059305  0.018383447182749535  1.0000
  H   H64       1.0  0.42195422934623383  0.11861818267269796  0.4816170943580076  1.0000
  C   C1        1.0  0.7538492883531307  0.7657625766069389  0.024021351588700775  1.0000
  C   C2        1.0  0.23423668736913328  0.2461498374516609  0.4759785680576414  1.0000
  C   C3        1.0  0.24614946955902178  0.23423622650786774  0.97597828403228  1.0000
  C   C4        1.0  0.7657629026637949  0.7538508088603564  0.5240221284509232  1.0000
  C   C5        1.0  0.8010266332436798  0.8287154244876687  0.11233863072203566  1.0000
  C   C6        1.0  0.17128528190642814  0.1989747390022032  0.38766189911515886  1.0000
  C   C7        1.0  0.19897378333201493  0.1712842774123757  0.8876614386131365  1.0000
  C   C8        1.0  0.8287151392119297  0.8010270539646526  0.6123385256101913  1.0000
  C   C9        1.0  0.7329276302429477  0.8096896963212075  0.16488550098469554  1.0000
  C   C10       1.0  0.19031059430752612  0.2670719587114334  0.3351140008385016  1.0000
  C   C11       1.0  0.2670711279086504  0.19030910703354922  0.8351135275325845  1.0000
  C   C12       1.0  0.8096898255360544  0.732929137473107  0.6648856983197576  1.0000
  C   C13       1.0  0.6193709688093348  0.728517689200899  0.12552395165077707  1.0000
  C   C14       1.0  0.27148264434626407  0.380630685215145  0.3744764832399028  1.0000
  C   C15       1.0  0.3806302740696809  0.2714810680472226  0.8744760976146964  1.0000
  C   C16       1.0  0.7285161153195574  0.6193688151618771  0.6255226637407745  1.0000
  C   C17       1.0  0.57840202846738  0.66932622259025  0.03681175394287097  1.0000
  C   C18       1.0  0.3306739219067865  0.4215990366640768  0.4631885668028062  1.0000
  C   C19       1.0  0.4215975572623236  0.33067233289490616  0.9631879800718153  1.0000
  C   C20       1.0  0.6693264992115715  0.5784027563027863  0.5368118579225438  1.0000
  C   C21       1.0  0.7733612811580599  0.8657744949504574  0.2594216916177459  1.0000
  C   C22       1.0  0.134226033335537  0.22663879336453618  0.2405791319506747  1.0000
  C   C23       1.0  0.2266383058464214  0.13422475731702124  0.7405787679640312  1.0000
  C   C24       1.0  0.865775213846703  0.7733620547104534  0.759421879808684  1.0000
  C   C25       1.0  0.8485641663609086  0.025575725109796082  0.42812151384104885  1.0000
  C   C26       1.0  0.9744249805020998  0.15143574906495166  0.07187838468609442  1.0000
  C   C27       1.0  0.1514362519684482  0.9744246740524716  0.571878066853813  1.0000
  C   C28       1.0  0.025575437348372497  0.8485646496174154  0.9281224102161687  1.0000
  C   C29       1.0  0.9026930881801505  0.9792518639892192  0.39491398843382086  1.0000
  C   C30       1.0  0.020750130524035605  0.09730827717300632  0.1050867109886582  1.0000
  C   C31       1.0  0.0973073299097678  0.02074853493309801  0.6050861993647487  1.0000
  C   C32       1.0  0.9792519477436343  0.9026937175568222  0.8949140289874862  1.0000
  C   C33       1.0  0.9880525284623757  0.978494408500488  0.45377549801749234  1.0000
  C   C34       1.0  0.021506654528984405  0.0119486703667704  0.04622509924431029  1.0000
  C   C35       1.0  0.011947060295767599  0.021505541029206696  0.5462244729239744  1.0000
  C   C36       1.0  0.9784954250134632  0.9880540211453733  0.953776366298932  1.0000
  C   C37       1.0  0.047366508957921404  0.9349627014475811  0.4226229706532791  1.0000
  C   C38       1.0  0.06503880536413219  0.9526346718243487  0.0773774303806647  1.0000
  C   C39       1.0  0.9526339093714354  0.06503769771467909  0.5773766100415898  1.0000
  C   C40       1.0  0.9349632726640991  0.047367322665529524  0.9226239166991804  1.0000
  C   C41       1.0  0.12667578569941176  0.9321311065897075  0.480917889372698  1.0000
  C   C42       1.0  0.06786973830909199  0.8733242099696881  0.019082278595782026  1.0000
  C   C43       1.0  0.873324632629945  0.06786929257255295  0.5190816913221638  1.0000
  C   C44       1.0  0.9321315088731551  0.1266766381052945  0.9809187331635768  1.0000
  C   C45       1.0  0.6962000514251586  0.507603749137509  0.8541313381218388  1.0000
  C   C46       1.0  0.49239693671697177  0.30380088495206076  0.6458702295650696  1.0000
  C   C47       1.0  0.3037995367765305  0.49239550432970697  0.1458660859414422  1.0000
  C   C48       1.0  0.5076009913845354  0.6961974682902293  0.3541304034062165  1.0000
  C   C49       1.0  0.7544261603174788  0.4481763021945894  0.8559058711812924  1.0000
  C   C50       1.0  0.5518250145121115  0.24557477404551514  0.6440953107931904  1.0000
  C   C51       1.0  0.245572598073565  0.5518225014001175  0.14409255023228698  1.0000
  C   C52       1.0  0.4481762311559052  0.7544253770072017  0.3559055825027784  1.0000
  C   C53       1.0  0.7080610161898803  0.3452077708763284  0.8694787221518112  1.0000
  C   C54       1.0  0.6547938059506038  0.29194014611086067  0.6305232050209852  1.0000
  C   C55       1.0  0.29193857201180856  0.6547914825908876  0.13051870191146972  1.0000
  C   C56       1.0  0.34520661293520755  0.7080609491138858  0.3694789225520764  1.0000
  C   C57       1.0  0.7648018099824652  0.29197565160605154  0.8727606001712543  1.0000
  C   C58       1.0  0.7080251478103393  0.2351990983941193  0.6272406522461864  1.0000
  C   C59       1.0  0.23519777646556145  0.7080229045989481  0.12723731253232978  1.0000
  C   C60       1.0  0.29197692997845337  0.7648028958558084  0.3727613019373592  1.0000
  C   C61       1.0  0.8687751223467259  0.3411435649010528  0.8612676911399362  1.0000
  C   C62       1.0  0.6588568856626863  0.13122499389062628  0.6387322068981335  1.0000
  C   C63       1.0  0.1312261268286221  0.658857980676096  0.13873222487541884  1.0000
  C   C64       1.0  0.341142703095457  0.8687749556390684  0.36126776404333333  1.0000
  C   C65       1.0  0.9164600083816196  0.4437655655481122  0.8476157980155321  1.0000
  C   C66       1.0  0.5562346974455535  0.08354011559396922  0.6523840159070105  1.0000
  C   C67       1.0  0.0835395806159624  0.5562343842215326  0.152383565822241  1.0000
  C   C68       1.0  0.4437657206443646  0.9164602833283481  0.34761617189155203  1.0000
  C   C69       1.0  0.8590425669196833  0.4965340108152177  0.8454890923681831  1.0000
  C   C70       1.0  0.5034667488572069  0.1409571915081358  0.6545112434378524  1.0000
  C   C71       1.0  0.14095785467755917  0.5034677826315316  0.1545101181497728  1.0000
  C   C72       1.0  0.4965328381472743  0.8590420607593428  0.34548921614391753  1.0000
  C   C73       1.0  0.019287303608145095  0.32528806027064405  0.8462699304116867  1.0000
  C   C74       1.0  0.6747119599516153  0.9807128254945778  0.6537296903959273  1.0000
  C   C75       1.0  0.9807122821215585  0.6747104952145122  0.15372980360299235  1.0000
  C   C76       1.0  0.32528928922373274  0.019288720082578058  0.3462702256194277  1.0000
  C   C77       1.0  0.0161732263007721  0.29162117135154386  0.7601528808009306  1.0000
  C   C78       1.0  0.7083789956797872  0.9838263543872896  0.7398460945335614  1.0000
  C   C79       1.0  0.9838263611825936  0.7083780813958283  0.23984636457344516  1.0000
  C   C80       1.0  0.29162142416379305  0.01617474179724354  0.2601536046246977  1.0000
  C   C81       1.0  0.11566703082874599  0.3318348487063645  0.7426530428562829  1.0000
  C   C82       1.0  0.6681652381848411  0.8843327028134526  0.7573472170532726  1.0000
  C   C83       1.0  0.8843333870217265  0.6681655499760095  0.2573477520459804  1.0000
  C   C84       1.0  0.331834352087526  0.11566794373851513  0.24265287235159153  1.0000
  C   C85       1.0  0.21731814706970454  0.40524439409368535  0.8105709078601322  1.0000
  C   C86       1.0  0.5947543644045225  0.7826818479050244  0.6894285914659619  1.0000
  C   C87       1.0  0.7826814386599993  0.5947541613914707  0.18942882615454687  1.0000
  C   C88       1.0  0.4052452273820606  0.21731949566921568  0.3105716164022922  1.0000
  C   C89       1.0  0.2182837685891457  0.43763558782139717  0.8967265892254446  1.0000
  C   C90       1.0  0.5623629355926097  0.7817161026269089  0.6032734257589639  1.0000
  C   C91       1.0  0.7817149890835607  0.562363215053466  0.10327365349923667  1.0000
  C   C92       1.0  0.4376366561939804  0.21828524094733132  0.3967267821092975  1.0000
  C   C93       1.0  0.1191825785201033  0.3975412350859314  0.9150382251552359  1.0000
  C   C94       1.0  0.6024576680721339  0.8808160857794222  0.5849609847760037  1.0000
  C   C95       1.0  0.8808153467924027  0.6024557243517703  0.08496156378556205  1.0000
  C   C96       1.0  0.3975427517714394  0.11918501040511123  0.4150387143822556  1.0000
  C   C97       1.0  0.3232390921940436  0.446192226132325  0.7900953621139308  1.0000
  C   C98       1.0  0.5538068122304409  0.6767614012057805  0.7099055469840607  1.0000
  C   C99       1.0  0.6767613241422126  0.5538074755277689  0.20990531432494205  1.0000
  C   C100      1.0  0.44619360864847113  0.3232403915211321  0.290095484844997  1.0000
  N   N1        1.0  0.6441006239111998  0.6870662299005089  0.986591581517672  1.0000
  N   N2        1.0  0.312933962442699  0.35590036797368896  0.5134096858866926  1.0000
  N   N3        1.0  0.35589979091082563  0.31293277473731956  0.01340897645780358  1.0000
  N   N4        1.0  0.6870639702014644  0.6441000763354195  0.4865913024747713  1.0000
  N   N5        1.0  0.8769647052826811  0.9325229193558684  0.3048219930387717  1.0000
  N   N6        1.0  0.06747808813813799  0.1230352875669141  0.19517893391735444  1.0000
  N   N7        1.0  0.1230348834754693  0.06747703017382632  0.6951779779026949  1.0000
  N   N8        1.0  0.9325231590441092  0.8769655605080685  0.8048220778420045  1.0000
  O   O1        1.0  0.5950016836359068  0.4571601987529803  0.8547433487056395  1.0000
  O   O2        1.0  0.5428412252838655  0.40500080855419895  0.6452634159598389  1.0000
  O   O3        1.0  0.4049970722055746  0.5428372112770816  0.14525362157375812  1.0000
  O   O4        1.0  0.45715836148117  0.5949984434733293  0.3547376507256317  1.0000
  O   O5        1.0  0.7454640978389832  0.6063343885770748  0.85359111943297  1.0000
  O   O6        1.0  0.3936649282945979  0.2545344841344246  0.6464067326071331  1.0000
  O   O7        1.0  0.2545354898838212  0.39366486441024756  0.1464075188377052  1.0000
  O   O8        1.0  0.6063363160986411  0.7454649701359697  0.35359343512173774  1.0000
  O   O9        1.0  0.9192656573683635  0.2826453313757683  0.8637993581056946  1.0000
  O   O10       1.0  0.7173540531598662  0.08073434237191185  0.6361998385761396  1.0000
  O   O11       1.0  0.0807339298755565  0.7173539211316609  0.1362004943723818  1.0000
  O   O12       1.0  0.282646366683707  0.9192667538126215  0.3637998605821195  1.0000
  O   O13       1.0  0.31372087577518926  0.4082578359534921  0.7104972809433008  1.0000
  O   O14       1.0  0.5917404993773729  0.6862779148926706  0.7895014263442519  1.0000
  O   O15       1.0  0.6862778823764089  0.5917409674012646  0.28950174757397923  1.0000
  O   O16       1.0  0.4082599202267616  0.31372318105191255  0.2104988799177079  1.0000
  O   O17       1.0  0.41378465361299277  0.5143668744446188  0.8531806789849697  1.0000
  O   O18       1.0  0.4856312626564829  0.5862144497416677  0.6468186489978152  1.0000
  O   O19       1.0  0.5862149321167109  0.4856316810405374  0.14681905502970957  1.0000
  O   O20       1.0  0.5143691554334352  0.4137859491806495  0.3531815388007473  1.0000
