data_image0
_chemical_formula_structural       Cd2H32C32S4N20
_chemical_formula_sum              "Cd2 H32 C32 S4 N20"
_cell_length_a       9.144699725864537
_cell_length_b       9.144680803736302
_cell_length_c       13.826719491012422
_cell_angle_alpha    89.99987878777934
_cell_angle_beta     89.99997473323154
_cell_angle_gamma    117.97498510633656

_space_group_name_H-M_alt    "P 1"
_space_group_IT_number       1

loop_
  _space_group_symop_operation_xyz
  'x, y, z'

loop_
  _atom_site_type_symbol
  _atom_site_label
  _atom_site_symmetry_multiplicity
  _atom_site_fract_x
  _atom_site_fract_y
  _atom_site_fract_z
  _atom_site_occupancy
  Cd  Cd1       1.0  0.9999981718665438  0.99999912265686  0.999999196267204  1.0000
  Cd  Cd2       1.0  0.4999996785322054  0.5000007994704134  0.49999959813265354  1.0000
  H   H1        1.0  0.2967359365708049  0.3352244107051945  0.8614737710270431  1.0000
  H   H2        1.0  0.20326342164940306  0.1647784804803507  0.3614746080139851  1.0000
  H   H3        1.0  0.1647765310162939  0.20326523724902767  0.6385258426788526  1.0000
  H   H4        1.0  0.3352221675108923  0.2967336970952844  0.1385250113582401  1.0000
  H   H5        1.0  0.703262235296748  0.6647747119532996  0.1385247020028118  1.0000
  H   H6        1.0  0.7967364300006069  0.8352218669335376  0.6385325438630004  1.0000
  H   H7        1.0  0.8352200590578676  0.7967351502837163  0.36147335358769794  1.0000
  H   H8        1.0  0.6647769935490971  0.7032629225437007  0.8614741849105627  1.0000
  H   H9        1.0  0.3312047147515004  0.9159793320787488  0.9617711945595105  1.0000
  H   H10       1.0  0.1687956788618905  0.5840220030790207  0.46177287717770105  1.0000
  H   H11       1.0  0.5840201010931098  0.16879603037098434  0.5382279733315869  1.0000
  H   H12       1.0  0.9159781214170694  0.33120334269707297  0.0382285171756251  1.0000
  H   H13       1.0  0.6687951369096368  0.08402101535314442  0.0382280017065995  1.0000
  H   H14       1.0  0.8312037762057471  0.41598208551435806  0.5382255958485089  1.0000
  H   H15       1.0  0.4159781687715949  0.8312055819302416  0.46177411588328  1.0000
  H   H16       1.0  0.08402163223983203  0.6687945150806274  0.961772125566931  1.0000
  H   H17       1.0  0.6058792030352366  0.10509194345142701  0.8477989147519976  1.0000
  H   H18       1.0  0.8941199315169329  0.39490974289132924  0.34779720649324025  1.0000
  H   H19       1.0  0.3949097109005139  0.8941216608215544  0.6522017468290215  1.0000
  H   H20       1.0  0.10509036327185584  0.6058785992067685  0.1522012476945136  1.0000
  H   H21       1.0  0.3941212412228127  0.8949096421191742  0.15220172798787251  1.0000
  H   H22       1.0  0.10588377433315098  0.605091802586607  0.6521998200594226  1.0000
  H   H23       1.0  0.605090336763027  0.10588366590889821  0.3477988959082978  1.0000
  H   H24       1.0  0.8949099829849914  0.39412049671454963  0.8477986718097483  1.0000
  H   H25       1.0  0.6555545608871185  0.3444455393993167  0.725607790221737  1.0000
  H   H26       1.0  0.8444463991771087  0.15555294546471293  0.22560787605207366  1.0000
  H   H27       1.0  0.1555573066659052  0.8444486000017621  0.7743942131620543  1.0000
  H   H28       1.0  0.3444441055771605  0.6555523317502434  0.2743906828089138  1.0000
  H   H29       1.0  0.5428211315609915  0.45717902546947203  0.7441623822932968  1.0000
  H   H30       1.0  0.9571776022202414  0.042819402146165024  0.24416331578082406  1.0000
  H   H31       1.0  0.04282333663251589  0.9571809319122337  0.7558387734345473  1.0000
  H   H32       1.0  0.45717812750019965  0.5428200838187964  0.2558375372111144  1.0000
  C   C1        1.0  0.3395797850485495  0.24417867407949256  0.8743908473448343  1.0000
  C   C2        1.0  0.1604189444474784  0.25582292049840316  0.3743922931698905  1.0000
  C   C3        1.0  0.25582101302494925  0.16042031322636066  0.6256095634836427  1.0000
  C   C4        1.0  0.24417772162545506  0.3395786795803418  0.1256079755553969  1.0000
  C   C5        1.0  0.6604172996253653  0.7558204619492276  0.12560617921045752  1.0000
  C   C6        1.0  0.8395798200109184  0.7441774402889794  0.6256119657578338  1.0000
  C   C7        1.0  0.7441749844462252  0.8395788361578485  0.3743925257332634  1.0000
  C   C8        1.0  0.7558220320324622  0.6604191781989999  0.8743919439498101  1.0000
  C   C9        1.0  0.36386470757675937  0.030675174768681812  0.9238980357388371  1.0000
  C   C10       1.0  0.13613487265941873  0.4693236927163441  0.42389919129986003  1.0000
  C   C11       1.0  0.46932529274844376  0.13613617770580794  0.5761017830704348  1.0000
  C   C12       1.0  0.030675754746574996  0.363863012441989  0.07610166944594  1.0000
  C   C13       1.0  0.6361362312800337  0.9693251592962541  0.0761011605271236  1.0000
  C   C14       1.0  0.8638623100126638  0.5306779329567419  0.5761007282030945  1.0000
  C   C15       1.0  0.5306745589106684  0.8638641697228095  0.4238988596703806  1.0000
  C   C16       1.0  0.9693262713048725  0.6361373082543624  0.9238982500572277  1.0000
  C   C17       1.0  0.5017548138687643  0.12371592200368303  0.8690671576457092  1.0000
  C   C18       1.0  0.9982420868094765  0.37628569480538243  0.3690676149685643  1.0000
  C   C19       1.0  0.376283721210541  0.9982443110594803  0.6309341594379205  1.0000
  C   C20       1.0  0.12371423804907523  0.5017560719637899  0.1309330766665795  1.0000
  C   C21       1.0  0.4982462229872128  0.8762869017072676  0.130934208330558  1.0000
  C   C22       1.0  0.0017583574475636924  0.6237158907635845  0.6309337510086551  1.0000
  C   C23       1.0  0.6237145486551796  0.001757301243387099  0.3690672065395972  1.0000
  C   C24       1.0  0.8762888752010624  0.4982442353705212  0.8690646731243774  1.0000
  C   C25       1.0  0.6049408504133921  0.3950604266962046  0.7803727411053457  1.0000
  C   C26       1.0  0.895060647093132  0.10494153808602394  0.2803736060325122  1.0000
  C   C27       1.0  0.10494256415416468  0.8950612588910263  0.7196277599434637  1.0000
  C   C28       1.0  0.39505949584548017  0.6049386692283891  0.21962573192421084  1.0000
  C   C29       1.0  0.880440029605971  0.11956211979392613  0.7888022244781894  1.0000
  C   C30       1.0  0.6195707345010887  0.38044093805886103  0.2887955529734683  1.0000
  C   C31       1.0  0.38044038571521094  0.6195555345502229  0.7112007503443037  1.0000
  C   C32       1.0  0.11956061065347262  0.8804444450736001  0.2112005879702394  1.0000
  S   S1        1.0  0.849446741236079  0.15055480695072282  0.6768768876345277  1.0000
  S   S2        1.0  0.6505576167112821  0.349443858396306  0.1768673573895967  1.0000
  S   S3        1.0  0.3494424355510618  0.6505477685918992  0.823123883271677  1.0000
  S   S4        1.0  0.15054915823693452  0.8494418527891129  0.3231223086347228  1.0000
  N   N1        1.0  0.4848793452367275  0.2590449313464377  0.8382188230663276  1.0000
  N   N2        1.0  0.015122154409354537  0.2409555487108151  0.3382188850668442  1.0000
  N   N3        1.0  0.24095531148397947  0.015120831023040205  0.6617816597390346  1.0000
  N   N4        1.0  0.2590454963967518  0.48487797132921184  0.1617805884444152  1.0000
  N   N5        1.0  0.5151205064254185  0.7409554160870898  0.1617796499624262  1.0000
  N   N6        1.0  0.9848765120498656  0.7590423224305666  0.6617832041505666  1.0000
  N   N7        1.0  0.7590434529794763  0.9848795297725277  0.33821898300192293  1.0000
  N   N8        1.0  0.7409581114480943  0.515121084492897  0.8382186078220499  1.0000
  N   N9        1.0  0.2636684412824266  0.10606483206672832  0.926033717619859  1.0000
  N   N10       1.0  0.23633004578222477  0.393934039113809  0.42603711893558943  1.0000
  N   N11       1.0  0.39393478066320853  0.23633242394599566  0.5739652810586051  1.0000
  N   N12       1.0  0.10606518561100842  0.2636667892385561  0.073965285178673  1.0000
  N   N13       1.0  0.7363308177828074  0.8939342772280912  0.07396330893514148  1.0000
  N   N14       1.0  0.7636671368847984  0.6060675865510917  0.5739664167541321  1.0000
  N   N15       1.0  0.6060623040046381  0.7636667120728975  0.42603608492080985  1.0000
  N   N16       1.0  0.8939345680458928  0.7363310685391441  0.9260353575638832  1.0000
  N   N17       1.0  0.9016300371258268  0.09837323166731692  0.8714827303214676  1.0000
  N   N18       1.0  0.5983749617742902  0.40162702914879844  0.37147531219716257  1.0000
  N   N19       1.0  0.4016263736861205  0.5983695637710156  0.6285173749351713  1.0000
  N   N20       1.0  0.09837169033433224  0.9016333198414446  0.1285164659400522  1.0000
