data_image0
_chemical_formula_structural       Cd2H24C24Br4N4F4
_chemical_formula_sum              "Cd2 H24 C24 Br4 N4 F4"
_cell_length_a       6.811436786935737
_cell_length_b       7.405199435756354
_cell_length_c       14.955853029052278
_cell_angle_alpha    84.816742241696
_cell_angle_beta     80.05139226086216
_cell_angle_gamma    73.72507830868985

_space_group_name_H-M_alt    "P 1"
_space_group_IT_number       1

loop_
  _space_group_symop_operation_xyz
  'x, y, z'

loop_
  _atom_site_type_symbol
  _atom_site_label
  _atom_site_symmetry_multiplicity
  _atom_site_fract_x
  _atom_site_fract_y
  _atom_site_fract_z
  _atom_site_occupancy
  Cd  Cd1       1.0  0.23880437293620102  0.4346559050390509  0.05952556936654219  1.0000
  Cd  Cd2       1.0  0.7612174973327159  0.565356850866344  0.940468049502833  1.0000
  H   H1        1.0  0.5037804728312736  0.0290285297636856  0.1742582487765461  1.0000
  H   H2        1.0  0.49624403700628533  0.9709800712044228  0.825737398507826  1.0000
  H   H3        1.0  0.2528812148979823  0.7970149274965337  0.42808281288346706  1.0000
  H   H4        1.0  0.7471654517901387  0.20300807470625404  0.5719186097398961  1.0000
  H   H5        1.0  0.9009920006985156  0.8926558687906546  0.3798598965350948  1.0000
  H   H6        1.0  0.09905444771944624  0.10734749638280046  0.6201451867364085  1.0000
  H   H7        1.0  0.8522923386465566  0.05411355948059078  0.22965208929415576  1.0000
  H   H8        1.0  0.14773516994335276  0.9458883556368248  0.7703543816049319  1.0000
  H   H9        1.0  0.9982799170522795  0.1733841229195079  0.0939809022883793  1.0000
  H   H10       1.0  0.0017361646841891644  0.8266218400080233  0.9060214806294482  1.0000
  H   H11       1.0  0.23944268509483632  0.0625281364063852  0.05458723164690581  1.0000
  H   H12       1.0  0.7605740819597532  0.9374806238005032  0.94541429661286  1.0000
  H   H13       1.0  0.9790454167004442  0.4869484267059007  0.29920699194888567  1.0000
  H   H14       1.0  0.020920268747936212  0.5130979766695916  0.7007875309326792  1.0000
  H   H15       1.0  0.9896766041409109  0.3178419655112704  0.4498455993086524  1.0000
  H   H16       1.0  0.010251993562874921  0.6821658988436708  0.5501406960747843  1.0000
  H   H17       1.0  0.32645736723922175  0.20324192122142648  0.5124989344367776  1.0000
  H   H18       1.0  0.6734591541784171  0.7967154386126792  0.48749805235380717  1.0000
  H   H19       1.0  0.6369299993148161  0.4242758032584319  0.26990764447286614  1.0000
  H   H20       1.0  0.3630530029218662  0.5756753387942125  0.730105764730709  1.0000
  H   H21       1.0  0.43473398417211956  0.6032983026460527  0.1662421555782743  1.0000
  H   H22       1.0  0.5652803212902383  0.396692422627936  0.8337691297660755  1.0000
  H   H23       1.0  0.17994126033539715  0.6855069854683576  0.1928834081977726  1.0000
  H   H24       1.0  0.8200730207797452  0.3145102007229426  0.8071172076978286  1.0000
  C   C1        1.0  0.30658712490434686  0.4655383383927116  0.2749191133683055  1.0000
  C   C2        1.0  0.693392714683455  0.5344646399490285  0.7250832597737187  1.0000
  C   C3        1.0  0.1248503885361458  0.4352427020642082  0.32596350568588417  1.0000
  C   C4        1.0  0.8751174055745636  0.5647670084933978  0.674030676713187  1.0000
  C   C5        1.0  0.13141818248482912  0.34123231039365715  0.4108099243739147  1.0000
  C   C6        1.0  0.8685274992694049  0.6587574514617103  0.589181429061057  1.0000
  C   C7        1.0  0.3169588690069319  0.27643659039988216  0.44627135195827355  1.0000
  C   C8        1.0  0.682973420981199  0.7235278481953245  0.5537241894986238  1.0000
  C   C9        1.0  0.49341653402827024  0.30813425268927835  0.3933520609241299  1.0000
  C   C10       1.0  0.5065331897093088  0.6918249623301306  0.6066538977816408  1.0000
  C   C11       1.0  0.49480319188035105  0.3995448766746818  0.30818771826568536  1.0000
  C   C12       1.0  0.5051653267581958  0.6004301191648266  0.6918235123704334  1.0000
  C   C13       1.0  0.17350699899502334  0.05393160671352599  0.1924207979301897  1.0000
  C   C14       1.0  0.8265208040442218  0.9460800172811543  0.8075804909033835  1.0000
  C   C15       1.0  0.3703344401481772  0.0004992380232735999  0.2186581878185123  1.0000
  C   C16       1.0  0.6296937335195595  0.9995121666966039  0.781336397532165  1.0000
  C   C17       1.0  0.3905738087453089  0.910406774084599  0.3032222770528037  1.0000
  C   C18       1.0  0.6094599809496657  0.089610366467511  0.6967743101580338  1.0000
  C   C19       1.0  0.2268149462146596  0.8697258072345734  0.3629520512023774  1.0000
  C   C20       1.0  0.7732256098201449  0.13029291097626577  0.637048669921427  1.0000
  C   C21       1.0  0.03264895272788247  0.923634520054115  0.3353497524253015  1.0000
  C   C22       1.0  0.9673827122648223  0.0763786312719077  0.6646545369002865  1.0000
  C   C23       1.0  0.004627824375397405  0.014941918912832398  0.2507239036029816  1.0000
  C   C24       1.0  0.9954025070439271  0.9850656159269917  0.7492814246904445  1.0000
  Br  Br1       1.0  0.174373719354712  0.35826338464239876  0.8892473408192103  1.0000
  Br  Br2       1.0  0.8256419236945547  0.6417407942964459  0.11074379015149562  1.0000
  Br  Br3       1.0  0.3422515526957071  0.7647613010663079  0.9710884509671303  1.0000
  Br  Br4       1.0  0.657765979180482  0.2352545713220167  0.028914679381976803  1.0000
  N   N1        1.0  0.3003322594849607  0.5652809508988026  0.1889584672538831  1.0000
  N   N2        1.0  0.6996733603964246  0.43472501130273855  0.8110453114769456  1.0000
  N   N3        1.0  0.14843888534206678  0.14711183073288933  0.1055311485555848  1.0000
  N   N4        1.0  0.8515778817125226  0.8528969294740064  0.8944703797041811  1.0000
  F   F1        1.0  0.6772918625587466  0.24793273953090986  0.4269645630286405  1.0000
  F   F2        1.0  0.3226493947440547  0.7519997320241671  0.5730446427732899  1.0000
  F   F3        1.0  0.5832180342307609  0.8579261472090494  0.3289314536623493  1.0000
  F   F4        1.0  0.4168248763146565  0.14209090312292713  0.671061159980141  1.0000
