data_image0
_chemical_formula_structural       Sm2H44C66O22
_chemical_formula_sum              "Sm2 H44 C66 O22"
_cell_length_a       10.333218847069478
_cell_length_b       11.460057986137425
_cell_length_c       13.836308189681265
_cell_angle_alpha    102.35340348941914
_cell_angle_beta     110.85963662826182
_cell_angle_gamma    100.14152128405007

_space_group_name_H-M_alt    "P 1"
_space_group_IT_number       1

loop_
  _space_group_symop_operation_xyz
  'x, y, z'

loop_
  _atom_site_type_symbol
  _atom_site_label
  _atom_site_symmetry_multiplicity
  _atom_site_fract_x
  _atom_site_fract_y
  _atom_site_fract_z
  _atom_site_occupancy
  Sm  Sm1       1.0  0.6172210828113336  0.5650636948268896  0.6628273028173196  1.0000
  Sm  Sm2       1.0  0.382776905328022  0.43493670611075436  0.337170916972795  1.0000
  H   H1        1.0  0.19028249108276188  0.1439578874554925  0.9791967811525096  1.0000
  H   H2        1.0  0.8097181234101568  0.8560378538469494  0.02080637296190701  1.0000
  H   H3        1.0  0.26422292424067706  0.9403665691697541  0.9415306871052564  1.0000
  H   H4        1.0  0.735778038351853  0.05963661290500972  0.05846881633974728  1.0000
  H   H5        1.0  0.4643432574025893  0.8727636839496284  0.9061020320439965  1.0000
  H   H6        1.0  0.5356574043170995  0.1272385676952155  0.09389505855970268  1.0000
  H   H7        1.0  0.4455479431692808  0.8059643151498508  0.7178310248834165  1.0000
  H   H8        1.0  0.5544518133415863  0.1940351477691848  0.28216460885013117  1.0000
  H   H9        1.0  0.22585437404534756  0.8057537879323957  0.5631560614944391  1.0000
  H   H10       1.0  0.7741391734373265  0.1942456990346884  0.4368429827117453  1.0000
  H   H11       1.0  0.030570528840527723  0.8800598875094819  0.6008899717278594  1.0000
  H   H12       1.0  0.9694190097286962  0.11993682195458892  0.39910751407769846  1.0000
  H   H13       1.0  0.8621462858158605  0.45952444157029493  0.6084877503785576  1.0000
  H   H14       1.0  0.1378482951557274  0.540475042724161  0.39151373669354683  1.0000
  H   H15       1.0  0.8656618127712291  0.731585492132737  0.4485900127679656  1.0000
  H   H16       1.0  0.13433039873074648  0.26841306867952147  0.5514077892646227  1.0000
  H   H17       1.0  0.7551927105841044  0.9035275174125061  0.4196192434257995  1.0000
  H   H18       1.0  0.24480411449110304  0.09647567887818553  0.5803784383295323  1.0000
  H   H19       1.0  0.6279871987632363  0.9123729077276439  0.23258888693795404  1.0000
  H   H20       1.0  0.3720101876304581  0.08762563235017501  0.7674045071695303  1.0000
  H   H21       1.0  0.6042204628549968  0.7455720631586689  0.07347850507272112  1.0000
  H   H22       1.0  0.3957810623511762  0.2544264614212679  0.9265138198975365  1.0000
  H   H23       1.0  0.7165874529313212  0.572851184871375  0.10316370199115704  1.0000
  H   H24       1.0  0.2834151034972265  0.42714733927935095  0.896836124792081  1.0000
  H   H25       1.0  0.6945743898886149  0.9456377183007519  0.6345741415449595  1.0000
  H   H26       1.0  0.3054310117416462  0.0543663793470159  0.3654281510175821  1.0000
  H   H27       1.0  0.9898269596321255  0.6757319795903456  0.17558082109311365  1.0000
  H   H28       1.0  0.01017546722118109  0.3242693372407928  0.8244209105212549  1.0000
  H   H29       1.0  0.9379397194920713  0.6222274904760284  0.9780256846042832  1.0000
  H   H30       1.0  0.062057663663722486  0.37777105280668616  0.021974936570437396  1.0000
  H   H31       1.0  0.1296618764718716  0.7006333664797496  0.91985995198187  1.0000
  H   H32       1.0  0.8703365417917722  0.2993651725278851  0.08013949852514207  1.0000
  H   H33       1.0  0.37057023080318163  0.8319955338422248  0.057192862876895845  1.0000
  H   H34       1.0  0.6294329312565168  0.16800484732245022  0.9428031171082836  1.0000
  H   H35       1.0  0.4203421290706189  0.8868243018887724  0.2529579504655289  1.0000
  H   H36       1.0  0.5796605569331774  0.11317142958154143  0.7470399714865792  1.0000
  H   H37       1.0  0.9387436716816068  0.5400472861294717  0.775109782368375  1.0000
  H   H38       1.0  0.06125759178375031  0.4599568263752047  0.22489213391794044  1.0000
  H   H39       1.0  0.8311193633868612  0.4435330735157663  0.7945473126318134  1.0000
  H   H40       1.0  0.16888203030132581  0.5564682456675171  0.20545125340991888  1.0000
  H   H41       1.0  0.5553261309175568  0.3596798126024012  0.7447055796056006  1.0000
  H   H42       1.0  0.4446765974561657  0.6403224340176693  0.2552971194366336  1.0000
  H   H43       1.0  0.49701872497272603  0.4543990377727171  0.8040940603140428  1.0000
  H   H44       1.0  0.5029795643632582  0.5456022932743493  0.19590584961066068  1.0000
  C   C1        1.0  0.799812830567724  0.785555196475457  0.8225288875397184  1.0000
  C   C2        1.0  0.20018601749642778  0.21444148092265886  0.1774725163909139  1.0000
  C   C3        1.0  0.9018569573700788  0.8986283920711954  0.9122976856729822  1.0000
  C   C4        1.0  0.0981462008041447  0.1013719929393559  0.0877069667928723  1.0000
  C   C5        1.0  0.10672733062428821  0.0788824726326354  0.9870482077800276  1.0000
  C   C6        1.0  0.8932725952414344  0.9211207153196597  0.01295607986630653  1.0000
  C   C7        1.0  0.00951509264206152  0.9784151579778565  0.8985762668442091  1.0000
  C   C8        1.0  0.9904867301990449  0.0215843002368885  0.1014256980346033  1.0000
  C   C9        1.0  0.018307969219463927  0.9629372148602331  0.7901569118245533  1.0000
  C   C10       1.0  0.9816864847671951  0.03706505955071289  0.2098406984248912  1.0000
  C   C11       1.0  0.1348909269954389  0.914135576854896  0.772720702269538  1.0000
  C   C12       1.0  0.8651111989850333  0.0858648095463224  0.22727861650351852  1.0000
  C   C13       1.0  0.2566370308312925  0.9112157494434143  0.8589798928388604  1.0000
  C   C14       1.0  0.7433606554638671  0.0887837220257879  0.14101808223010442  1.0000
  C   C15       1.0  0.368537135399542  0.8735583138344294  0.83915927519066  1.0000
  C   C16       1.0  0.631460120123748  0.1264430202057554  0.16083891457485322  1.0000
  C   C17       1.0  0.3583973139272202  0.8358824754150618  0.733111158225654  1.0000
  C   C18       1.0  0.6416003726917195  0.16411699573365013  0.2668860941365878  1.0000
  C   C19       1.0  0.23542716530283767  0.8355983234756222  0.6463758182399812  1.0000
  C   C20       1.0  0.7645686236931439  0.1644048780516201  0.3536252023032347  1.0000
  C   C21       1.0  0.12527611754194365  0.8755374969189588  0.6664136513110036  1.0000
  C   C22       1.0  0.8747187665690036  0.12446291556197757  0.33358518965533795  1.0000
  C   C23       1.0  0.6986989310908953  0.4924440203444433  0.4259391085273592  1.0000
  C   C24       1.0  0.3012995269523628  0.5075610363768632  0.5740709007235694  1.0000
  C   C25       1.0  0.8552531153510756  0.5013102892766739  0.4633854965713482  1.0000
  C   C26       1.0  0.14474068836798176  0.4986836152139986  0.5366162423330891  1.0000
  C   C27       1.0  0.9241882035510542  0.4808747442371768  0.5624347487715156  1.0000
  C   C28       1.0  0.07580590233599341  0.5191200894014472  0.4375665121473419  1.0000
  C   C29       1.0  0.9318548153567432  0.5206849625737674  0.3994683289369548  1.0000
  C   C30       1.0  0.06814390280837299  0.47931450782524365  0.6005357025315377  1.0000
  C   C31       1.0  0.8699084634159391  0.5419909154375305  0.29143056509256143  1.0000
  C   C32       1.0  0.1300909443477494  0.4580011073501566  0.7085701647238452  1.0000
  C   C33       1.0  0.7962603543632553  0.6405565900417827  0.27728967519834663  1.0000
  C   C34       1.0  0.20373896975679168  0.35944473705068714  0.7227097867653641  1.0000
  C   C35       1.0  0.8066131267727454  0.7335602789963361  0.366446009457583  1.0000
  C   C36       1.0  0.1933855943064771  0.26643918851827664  0.6335515176503961  1.0000
  C   C37       1.0  0.7450368986337992  0.8303961443575574  0.35020581640502263  1.0000
  C   C38       1.0  0.2549579864485096  0.16960426716190818  0.6497908564411503  1.0000
  C   C39       1.0  0.6728164419342305  0.8348872713417567  0.24494507372110527  1.0000
  C   C40       1.0  0.3271853844685637  0.1651121833475955  0.7550489413837482  1.0000
  C   C41       1.0  0.6609802017809728  0.7420228590072072  0.15557455925058156  1.0000
  C   C42       1.0  0.339017311921431  0.25797289063363144  0.8444219889728402  1.0000
  C   C43       1.0  0.7227795765385849  0.6453758456735486  0.17147318900995862  1.0000
  C   C44       1.0  0.2772243161944488  0.354623604311513  0.8285271572401527  1.0000
  C   C45       1.0  0.48262230948764545  0.7429027868663243  0.4962901237586976  1.0000
  C   C46       1.0  0.5173858901175662  0.2571003739360691  0.503720698093872  1.0000
  C   C47       1.0  0.4872160885457575  0.8754651159013563  0.4987881366341611  1.0000
  C   C48       1.0  0.5127873743867754  0.12453619569323139  0.50121025619233  1.0000
  C   C49       1.0  0.6083860721614086  0.9696803366685954  0.5762839440269119  1.0000
  C   C50       1.0  0.3916159235962411  0.030322843054022997  0.42371872499072083  1.0000
  C   C51       1.0  0.3773259875107867  0.9063753617608653  0.4224873436541898  1.0000
  C   C52       1.0  0.6226770433547201  0.09362781368666623  0.5775141546957414  1.0000
  C   C53       1.0  0.23951379212652318  0.810276030528208  0.34316876768434673  1.0000
  C   C54       1.0  0.7604917374600434  0.18972527604159953  0.6568352335806793  1.0000
  C   C55       1.0  0.20866384777474423  0.7830842878067019  0.22635825457813752  1.0000
  C   C56       1.0  0.7913424147516819  0.21691608534006693  0.7736450540047599  1.0000
  C   C57       1.0  0.07240312943041965  0.708400890410381  0.14840963118190587  1.0000
  C   C58       1.0  0.9275985208179377  0.2915948459759933  0.8515909068513494  1.0000
  C   C59       1.0  0.043974650039402305  0.6789322223214711  0.038635542651995515  1.0000
  C   C60       1.0  0.9560279054177769  0.32106630279072595  0.9613664522514113  1.0000
  C   C61       1.0  0.15129172365587348  0.723582587931638  0.005640802009608597  1.0000
  C   C62       1.0  0.8487094958206143  0.27641501102572624  0.9943599507201952  1.0000
  C   C63       1.0  0.28667130510592637  0.797851039588238  0.08275243261549284  1.0000
  C   C64       1.0  0.7133278467451659  0.20214656535538467  0.9172448797959446  1.0000
  C   C65       1.0  0.3151972626622738  0.8283084570255145  0.19259072306817882  1.0000
  C   C66       1.0  0.6848064571542238  0.171687271451674  0.8074089190431125  1.0000
  O   O1        1.0  0.8282743913681256  0.7474102452598003  0.7405664994457766  1.0000
  O   O2        1.0  0.1717235954760739  0.2525901569597977  0.2594346111712298  1.0000
  O   O3        1.0  0.688359792160739  0.7276937811945884  0.8310879728363999  1.0000
  O   O4        1.0  0.3116442282047984  0.2723028780329956  0.1689148048229256  1.0000
  O   O5        1.0  0.9357962541964825  0.9988336508181136  0.7210641541294862  1.0000
  O   O6        1.0  0.0642103079076222  0.0011676540405218998  0.2789444581216216  1.0000
  O   O7        1.0  0.6489325381803681  0.5277266999924067  0.49668042675781277  1.0000
  O   O8        1.0  0.3510651494099477  0.47227277019483443  0.5033146574842674  1.0000
  O   O9        1.0  0.6172961742639912  0.4473393059921165  0.3258471568959251  1.0000
  O   O10       1.0  0.38269440167961477  0.5526573969534496  0.674144099294857  1.0000
  O   O11       1.0  0.8906791720095981  0.48078158637665075  0.21524627855316686  1.0000
  O   O12       1.0  0.10931984864729573  0.5192188128498216  0.7847565522230228  1.0000
  O   O13       1.0  0.4263114787081931  0.6612872914428111  0.40302802787226005  1.0000
  O   O14       1.0  0.5736893119391624  0.33871216816260846  0.5969686033137549  1.0000
  O   O15       1.0  0.5374110942313096  0.7225426207310053  0.5865319366109247  1.0000
  O   O16       1.0  0.4625887075635902  0.2774633544533743  0.41346196985224287  1.0000
  O   O17       1.0  0.15605914139411672  0.7581549666268187  0.37623478666056076  1.0000
  O   O18       1.0  0.8439500962330584  0.24184818701608887  0.6237683601637869  1.0000
  O   O19       1.0  0.840412816010236  0.5193182501129529  0.7729615152651234  1.0000
  O   O20       1.0  0.15958918104256978  0.48068492832770454  0.22703826292562468  1.0000
  O   O21       1.0  0.5825425974036803  0.4450474933128632  0.7918725604377599  1.0000
  O   O22       1.0  0.41745599345271955  0.5549547675231352  0.2081283169148023  1.0000
