data_image0
_chemical_formula_structural       Cd4H24C28S4N8O12
_chemical_formula_sum              "Cd4 H24 C28 S4 N8 O12"
_cell_length_a       5.964221255817066
_cell_length_b       11.374344594024087
_cell_length_c       14.861596836092978
_cell_angle_alpha    90.00027774668449
_cell_angle_beta     89.99969341284553
_cell_angle_gamma    93.70742000884185

_space_group_name_H-M_alt    "P 1"
_space_group_IT_number       1

loop_
  _space_group_symop_operation_xyz
  'x, y, z'

loop_
  _atom_site_type_symbol
  _atom_site_label
  _atom_site_symmetry_multiplicity
  _atom_site_fract_x
  _atom_site_fract_y
  _atom_site_fract_z
  _atom_site_occupancy
  Cd  Cd1       1.0  0.8232080287434586  0.7051904452119758  0.9836289092863951  1.0000
  Cd  Cd2       1.0  0.32322498919094766  0.20518688380666816  0.5163698487025883  1.0000
  Cd  Cd3       1.0  0.17676219847241728  0.2948133376147481  0.016371408080083  1.0000
  Cd  Cd4       1.0  0.6767663345547988  0.7948115649800724  0.4836297957564994  1.0000
  H   H1        1.0  0.6826129221311348  0.9555148501876969  0.901177409645392  1.0000
  H   H2        1.0  0.18259808053957727  0.45550744158992257  0.598828622664179  1.0000
  H   H3        1.0  0.3174004822775629  0.0444985314403326  0.0988269449441574  1.0000
  H   H4        1.0  0.817398618785923  0.5444936391482145  0.4011723675444543  1.0000
  H   H5        1.0  0.7909963966361887  0.08844677216083593  0.7711997623084628  1.0000
  H   H6        1.0  0.29099761223152143  0.5884489649788947  0.7287986348984603  1.0000
  H   H7        1.0  0.2090171803057999  0.9115551526673614  0.22880122788382812  1.0000
  H   H8        1.0  0.7090149825746863  0.4115582495622477  0.2711942808021419  1.0000
  H   H9        1.0  0.392087186016937  0.9003950225544206  0.7426394710886443  1.0000
  H   H10       1.0  0.8920812341017382  0.4003936393450828  0.7573625498715372  1.0000
  H   H11       1.0  0.6079186450570192  0.09959898800897093  0.257373630850978  1.0000
  H   H12       1.0  0.107916794457779  0.5996047946586244  0.2426317115787882  1.0000
  H   H13       1.0  0.24890149285977262  0.76566523551476  0.8667707200553281  1.0000
  H   H14       1.0  0.7488901888079552  0.2656613653090076  0.6332364923927685  1.0000
  H   H15       1.0  0.75109890575618  0.23433848091062964  0.1332464191591214  1.0000
  H   H16       1.0  0.2510980138839257  0.7343388528763126  0.3667631520728846  1.0000
  H   H17       1.0  0.8076955597822818  0.456813530759888  0.9894898851336649  1.0000
  H   H18       1.0  0.3076904859571599  0.9568091550810036  0.5105071392287215  1.0000
  H   H19       1.0  0.1922971519871624  0.5431954901133549  0.01050841359298  1.0000
  H   H20       1.0  0.6923078895717866  0.04319192196137321  0.489492505227723  1.0000
  H   H21       1.0  0.6602021731032863  0.4687639242738584  0.0755801957161708  1.0000
  H   H22       1.0  0.16020355082571303  0.9687619894620025  0.4244176454286617  1.0000
  H   H23       1.0  0.33980400504314195  0.5312327292800916  0.924422140224678  1.0000
  H   H24       1.0  0.839802743022986  0.031235545083440296  0.5755793075120579  1.0000
  C   C1        1.0  0.3439388164301818  0.7569511424680186  0.0714300937057715  1.0000
  C   C2        1.0  0.8439533956730116  0.2569577796316053  0.42856456044723495  1.0000
  C   C3        1.0  0.6560181737773121  0.24304121308484378  0.928564167776905  1.0000
  C   C4        1.0  0.15605081812027782  0.7430494533863197  0.5714344111391298  1.0000
  C   C5        1.0  0.8372628173369492  0.9453066346342923  0.8634767020588114  1.0000
  C   C6        1.0  0.337255009155058  0.4453056029796514  0.6365222359186191  1.0000
  C   C7        1.0  0.1627528984716022  0.054698810532329396  0.1365242881376787  1.0000
  C   C8        1.0  0.6627470657716685  0.5546981096998493  0.3634767356635393  1.0000
  C   C9        1.0  0.8995343777976641  0.020212229913290993  0.7924569952138824  1.0000
  C   C10       1.0  0.399537656500577  0.5202151733706373  0.707543612426214  1.0000
  C   C11       1.0  0.1004739392153198  0.9797879439790762  0.2075453407311727  1.0000
  C   C12       1.0  0.6004740129364592  0.47978499312219464  0.2924533405136458  1.0000
  C   C13       1.0  0.10295271902860043  0.0050031189474709  0.7485506864826731  1.0000
  C   C14       1.0  0.6029521309378012  0.5050052671355516  0.7514498215179869  1.0000
  C   C15       1.0  0.8970621870615361  0.9949961591864066  0.2514570324553773  1.0000
  C   C16       1.0  0.3970584406440167  0.49499930808674003  0.2485471314311383  1.0000
  C   C17       1.0  0.23377295099253095  0.9139556872636659  0.7763574403921183  1.0000
  C   C18       1.0  0.7337776022096351  0.41395496195527653  0.7236402561124821  1.0000
  C   C19       1.0  0.7662334584511046  0.08604272832340598  0.2236509514285601  1.0000
  C   C20       1.0  0.2662340672317001  0.5860452045355514  0.2763560239521752  1.0000
  C   C21       1.0  0.15554230144947914  0.8403092560827258  0.8456177784874227  1.0000
  C   C22       1.0  0.6555440213703747  0.34030460139240404  0.6543878877484985  1.0000
  C   C23       1.0  0.8444511610726693  0.1596927130845458  0.1543959963551558  1.0000
  C   C24       1.0  0.34445654988190466  0.6596876581850352  0.3456097380637999  1.0000
  C   C25       1.0  0.1810615598104448  0.08293184945951988  0.6717218560947701  1.0000
  C   C26       1.0  0.6810602226759529  0.5829362175186785  0.8282760811767247  1.0000
  C   C27       1.0  0.8189526523279511  0.9170621426030294  0.3282771154566504  1.0000
  C   C28       1.0  0.3189463025128845  0.4170630790398492  0.1717201988917836  1.0000
  S   S1        1.0  0.5873636163882665  0.823062305563674  0.09576179727112331  1.0000
  S   S2        1.0  0.08740175254387589  0.32305571051052334  0.4042235509982959  1.0000
  S   S3        1.0  0.41259331700967994  0.1769423877704952  0.9042270812326622  1.0000
  S   S4        1.0  0.9125960446669126  0.6769409614841136  0.5957727290746533  1.0000
  N   N1        1.0  0.16557192898149958  0.7092640346687915  0.05628848453285679  1.0000
  N   N2        1.0  0.6656040022833453  0.20927777321873012  0.4437083913172089  1.0000
  N   N3        1.0  0.8343908406319615  0.2907212580707679  0.9437104870571389  1.0000
  N   N4        1.0  0.33437657029429596  0.7907154116692323  0.5562899073932073  1.0000
  N   N5        1.0  0.9614392401915808  0.8565756326312906  0.8889514624831136  1.0000
  N   N6        1.0  0.46142493663108297  0.3565735829227775  0.611048904540887  1.0000
  N   N7        1.0  0.0385677476045601  0.1434271879874842  0.11105491071943867  1.0000
  N   N8        1.0  0.5385611272114161  0.6434231149160964  0.38894804841974917  1.0000
  O   O1        1.0  0.030696689240045302  0.13215884130954691  0.6253139032499888  1.0000
  O   O2        1.0  0.5306903664866809  0.6321555642613603  0.8746865525626646  1.0000
  O   O3        1.0  0.9693174072175452  0.8678342697514764  0.3746870869255474  1.0000
  O   O4        1.0  0.46931771920332466  0.36784284760990704  0.1253137647537912  1.0000
  O   O5        1.0  0.38842115630182417  0.09394913281875719  0.6545061443179279  1.0000
  O   O6        1.0  0.8884188486496643  0.593960655218325  0.8454887020923181  1.0000
  O   O7        1.0  0.6115921304845812  0.9060378111874596  0.3454941729719323  1.0000
  O   O8        1.0  0.11159137594125208  0.4060412769753228  0.1545062322267015  1.0000
  O   O9        1.0  0.7678342988955364  0.5138632884759176  0.03529849037035861  1.0000
  O   O10       1.0  0.26783201306611915  0.0138615474368606  0.4647008146569362  1.0000
  O   O11       1.0  0.23217604130319808  0.48613952475334093  0.9647058642030188  1.0000
  O   O12       1.0  0.732178442856359  0.9861421467738792  0.5352947925402844  1.0000
