data_image0
_chemical_formula_structural       Cu2H36C20N4O16
_chemical_formula_sum              "Cu2 H36 C20 N4 O16"
_cell_length_a       7.797734853077881
_cell_length_b       8.731663578456892
_cell_length_c       11.123421831970886
_cell_angle_alpha    106.47115263291285
_cell_angle_beta     90.0002510591478
_cell_angle_gamma    90.00036608560887

_space_group_name_H-M_alt    "P 1"
_space_group_IT_number       1

loop_
  _space_group_symop_operation_xyz
  'x, y, z'

loop_
  _atom_site_type_symbol
  _atom_site_label
  _atom_site_symmetry_multiplicity
  _atom_site_fract_x
  _atom_site_fract_y
  _atom_site_fract_z
  _atom_site_occupancy
  Cu  Cu1       1.0  1.0862174449000003e-06  0.9999985464773717  3.1343678798898476e-06  1.0000
  Cu  Cu2       1.0  0.499999883435912  0.500000578899936  0.5000019408165387  1.0000
  H   H1        1.0  0.8891421528920562  0.3800833086239592  0.16014272427530332  1.0000
  H   H2        1.0  0.6108570453065455  0.8800798834103178  0.6601470862181389  1.0000
  H   H3        1.0  0.11085376667030293  0.6199142332963633  0.8398531699266983  1.0000
  H   H4        1.0  0.3891414391434013  0.11992365049643894  0.3398546210345756  1.0000
  H   H5        1.0  0.5820457744872201  0.5498045607359857  0.9350223700210096  1.0000
  H   H6        1.0  0.9179514614436928  0.0498010754461546  0.4350264654801563  1.0000
  H   H7        1.0  0.41795014509069983  0.45019656396301855  0.06497431225067635  1.0000
  H   H8        1.0  0.08204830542477741  0.9502012642057025  0.5649749790856547  1.0000
  H   H9        1.0  0.746356859835409  0.41215208896831973  0.8615812837861087  1.0000
  H   H10       1.0  0.7536387120131283  0.9121483352320895  0.36158647245591174  1.0000
  H   H11       1.0  0.25363777731362097  0.5878478414664629  0.13841513579269105  1.0000
  H   H12       1.0  0.24636233727385112  0.0878528101648683  0.6384147094229959  1.0000
  H   H13       1.0  0.7880121910110065  0.6229256986535675  0.9115302570824114  1.0000
  H   H14       1.0  0.7119867132584475  0.12292071108143429  0.4115324915658434  1.0000
  H   H15       1.0  0.21198629340913305  0.37707423179521277  0.08846616250535534  1.0000
  H   H16       1.0  0.28801305360197926  0.877080430174999  0.5884677903910218  1.0000
  H   H17       1.0  0.6230506516871729  0.686977658317666  0.17193533375490236  1.0000
  H   H18       1.0  0.876943363486646  0.18698239913857861  0.6719388536902998  1.0000
  H   H19       1.0  0.37695039758840926  0.3130234705358603  0.8280622484478002  1.0000
  H   H20       1.0  0.12305896822403645  0.8130187462630403  0.3280623281915994  1.0000
  H   H21       1.0  0.8399945712057006  0.7446800189436189  0.15237864215588104  1.0000
  H   H22       1.0  0.6599971772066554  0.2446760079268699  0.6523777738257907  1.0000
  H   H23       1.0  0.16000647804861504  0.2553175188594993  0.8476163521390349  1.0000
  H   H24       1.0  0.3400051545040272  0.7553251374747559  0.3476234080561085  1.0000
  H   H25       1.0  0.7914918522948685  0.6151417143238904  0.24789011284925522  1.0000
  H   H26       1.0  0.7085008344427453  0.1151428455540255  0.7478932213567832  1.0000
  H   H27       1.0  0.20850791454378037  0.3848570218699906  0.7521060440516153  1.0000
  H   H28       1.0  0.29149893242622954  0.8848583081099832  0.25210976035723587  1.0000
  H   H29       1.0  0.18650353040134612  0.8849344168772363  0.8094905463030743  1.0000
  H   H30       1.0  0.3135036786663293  0.38493847787266594  0.30948429425640717  1.0000
  H   H31       1.0  0.8135039310051727  0.1150643565673519  0.19051370988721322  1.0000
  H   H32       1.0  0.686499935478942  0.6150638700649013  0.6905189501564808  1.0000
  H   H33       1.0  0.9931759692887643  0.840925855491108  0.7705974320931335  1.0000
  H   H34       1.0  0.5068287685915323  0.34092414439243157  0.2705979601962696  1.0000
  H   H35       1.0  0.006831492134630001  0.15908006283155635  0.22940390064125896  1.0000
  H   H36       1.0  0.4931748455472375  0.659073447186188  0.7294087330523027  1.0000
  C   C1        1.0  0.6235427636397263  0.9573663292180972  0.9722837392939784  1.0000
  C   C2        1.0  0.8764512709992829  0.4573649099168621  0.4722836669009497  1.0000
  C   C3        1.0  0.37645828562079947  0.04263003086889941  0.02771459198725521  1.0000
  C   C4        1.0  0.12354849585646833  0.5426338510921696  0.5277178895142286  1.0000
  C   C5        1.0  0.5501026064571164  0.07986798250745152  0.08114208681110573  1.0000
  C   C6        1.0  0.949895184219507  0.579869391224463  0.5811440565287144  1.0000
  C   C7        1.0  0.44990100766973745  0.9201307785155707  0.9188594696130539  1.0000
  C   C8        1.0  0.05010330018038901  0.42012457619821936  0.41885284944768847  1.0000
  C   C9        1.0  0.8503523524660609  0.37323646381508985  0.06310250455292994  1.0000
  C   C10       1.0  0.649646184333463  0.8732345108708586  0.5631064102622789  1.0000
  C   C11       1.0  0.14964228466973856  0.6267610739647156  0.9368924897270293  1.0000
  C   C12       1.0  0.35035230011364166  0.12676901890003478  0.43689439707138433  1.0000
  C   C13       1.0  0.7201319304264545  0.5241460194133084  0.9334503301506843  1.0000
  C   C14       1.0  0.7798638257844674  0.024137934524780705  0.43345029345528024  1.0000
  C   C15       1.0  0.27986527157283103  0.47585391516666686  0.06654698935314944  1.0000
  C   C16       1.0  0.22013594107077247  0.9758620124720919  0.5665497258116903  1.0000
  C   C17       1.0  0.7573702514855968  0.6469050123776653  0.16239564112130725  1.0000
  C   C18       1.0  0.7426208460962727  0.14690518926344961  0.6623968463120421  1.0000
  C   C19       1.0  0.24262823293219787  0.3530937279474032  0.8376014156956232  1.0000
  C   C20       1.0  0.2573789207716786  0.8530983363762489  0.3376030611055613  1.0000
  N   N1        1.0  0.7758119389612617  0.5083225472829513  0.053892480884670156  1.0000
  N   N2        1.0  0.7241838751670431  0.008320222205455302  0.5538975742510601  1.0000
  N   N3        1.0  0.2241852630271381  0.4916761847657371  0.9461027760911664  1.0000
  N   N4        1.0  0.2758158916933838  0.9916809190509855  0.44610270770580496  1.0000
  O   O1        1.0  0.7692924696649899  0.9030688699146764  0.9359856064236782  1.0000
  O   O2        1.0  0.7307099167435143  0.4030663822221427  0.4359830541288616  1.0000
  O   O3        1.0  0.23070601477326855  0.09692871337357191  0.06401928697482621  1.0000
  O   O4        1.0  0.2692911325208912  0.5969276100250269  0.5640192513678387  1.0000
  O   O5        1.0  0.611390283944921  0.17291896626888814  0.17923467914752686  1.0000
  O   O6        1.0  0.8886126514845502  0.672918710137381  0.6792307006983124  1.0000
  O   O7        1.0  0.38861204774552505  0.8270762161066473  0.8207669891230086  1.0000
  O   O8        1.0  0.11138968022042663  0.32708242699252565  0.32076868134549136  1.0000
  O   O9        1.0  0.875449243811275  0.2514227097301571  0.9738447032695134  1.0000
  O   O10       1.0  0.6245484265293585  0.7514180087414319  0.4738474897477192  1.0000
  O   O11       1.0  0.12454411090133993  0.7485736420571386  0.026151828155661937  1.0000
  O   O12       1.0  0.37544621064663647  0.24858552101547102  0.5261533175769628  1.0000
  O   O13       1.0  0.06787824781478241  0.9307894613645262  0.8173893718820582  1.0000
  O   O14       1.0  0.4321267809904371  0.4307884139073366  0.31738235989865166  1.0000
  O   O15       1.0  0.9321279311807446  0.06921289071822662  0.18261477245586383  1.0000
  O   O16       1.0  0.5678781155710128  0.5692115496516337  0.6826212590564965  1.0000
