data_image0
_chemical_formula_structural       H24Pb2C32O16
_chemical_formula_sum              "H24 Pb2 C32 O16"
_cell_length_a       8.77230975189872
_cell_length_b       8.545466709470494
_cell_length_c       12.166963168516904
_cell_angle_alpha    70.42983972189404
_cell_angle_beta     85.95435388096674
_cell_angle_gamma    73.31624960858016

_space_group_name_H-M_alt    "P 1"
_space_group_IT_number       1

loop_
  _space_group_symop_operation_xyz
  'x, y, z'

loop_
  _atom_site_type_symbol
  _atom_site_label
  _atom_site_symmetry_multiplicity
  _atom_site_fract_x
  _atom_site_fract_y
  _atom_site_fract_z
  _atom_site_occupancy
  H   H1        1.0  0.8570863178772541  0.47487892830428546  0.8795255024383195  1.0000
  H   H2        1.0  0.1429172997301579  0.5251129217268724  0.12048213551506141  1.0000
  H   H3        1.0  0.4247761004569739  0.9757038153997755  0.7040177895988505  1.0000
  H   H4        1.0  0.5752301711357717  0.0242960615442271  0.29598143630362017  1.0000
  H   H5        1.0  0.2782974447092244  0.1446092475778116  0.6833935241853054  1.0000
  H   H6        1.0  0.7217031404504582  0.8553768347836976  0.3166031471319925  1.0000
  H   H7        1.0  0.05434928937674501  0.2761071114779341  0.4617230069502438  1.0000
  H   H8        1.0  0.9456526307065048  0.7239059647000728  0.538268668412357  1.0000
  H   H9        1.0  0.671781210359569  0.38419275408986653  0.22077104177925116  1.0000
  H   H10       1.0  0.3282180916111699  0.6158217328217644  0.7792188075739401  1.0000
  H   H11       1.0  0.08012419929596605  0.9419485254386827  0.2594335657070062  1.0000
  H   H12       1.0  0.9198621281100615  0.0580580441180274  0.7405659660755859  1.0000
  H   H13       1.0  0.687223394401535  0.14314577842363724  0.9352489727965787  1.0000
  H   H14       1.0  0.31279410304389904  0.8568409242689866  0.06475501727331329  1.0000
  H   H15       1.0  0.8399731967544994  0.5020614308100376  0.040335460861896905  1.0000
  H   H16       1.0  0.1600271161278997  0.49792518842149036  0.959675910736287  1.0000
  H   H17       1.0  0.6792128405122214  0.18129824747845188  0.11628821912796637  1.0000
  H   H18       1.0  0.3207776891225081  0.8187006142117423  0.883711119972716  1.0000
  H   H19       1.0  0.8572961862708937  0.2039702991720844  0.03929769952078741  1.0000
  H   H20       1.0  0.1426918512231978  0.7960248599661809  0.9607000760432242  1.0000
  H   H21       1.0  0.9106735306487083  0.6349297070436817  0.17473732117191787  1.0000
  H   H22       1.0  0.08932536514196701  0.3650674496634635  0.8252677559186665  1.0000
  H   H23       1.0  0.6074245814996574  0.01357933400921498  0.8058305631887563  1.0000
  H   H24       1.0  0.3925903544251311  0.9864178809907003  0.19416801236611997  1.0000
  Pb  Pb1       1.0  0.450917322160052  0.2806016390586094  0.4866264634593023  1.0000
  Pb  Pb2       1.0  0.5490771681191404  0.7193995732997679  0.5133754827913604  1.0000
  C   C1        1.0  0.003701622238857317  0.24346914995535224  0.39583114362256566  1.0000
  C   C2        1.0  0.9962971834527605  0.7565425576838293  0.6041634329349748  1.0000
  C   C3        1.0  0.0822138022452847  0.09597265855851587  0.3665509660103651  1.0000
  C   C4        1.0  0.917781891644573  0.904037638532749  0.6334473429364491  1.0000
  C   C5        1.0  0.8732398609657114  0.16513980284004495  0.22317368003913168  1.0000
  C   C6        1.0  0.12675678442980862  0.8348666991678396  0.7768237501706351  1.0000
  C   C7        1.0  0.7633179093700945  0.4931903986125973  0.3841663801671018  1.0000
  C   C8        1.0  0.23668350407451305  0.5068200663293678  0.6158266976224951  1.0000
  C   C9        1.0  0.7893053411308627  0.3052688189523707  0.25867329352993806  1.0000
  C   C10       1.0  0.210693137895973  0.6947443077479815  0.7413185282273886  1.0000
  C   C11       1.0  0.8546725279670186  0.3452472763614408  0.34415412376144866  1.0000
  C   C12       1.0  0.14532760212738088  0.6547684867432721  0.6558354155763053  1.0000
  C   C13       1.0  0.016815636153936005  0.05745311005752998  0.28043144848999185  1.0000
  C   C14       1.0  0.9831780903630972  0.9425558016541301  0.7195697128535271  1.0000
  C   C15       1.0  0.811242982996518  0.8957545558171132  0.06126467961359335  1.0000
  C   C16       1.0  0.18875336147177532  0.10422983877354139  0.9387415912515917  1.0000
  C   C17       1.0  0.23753854769648097  0.977831547522477  0.4254118049961874  1.0000
  C   C18       1.0  0.7624551788205521  0.022177364189182886  0.5745893563473317  1.0000
  C   C19       1.0  0.7215536545803335  0.7486331128511592  0.9105680875837404  1.0000
  C   C20       1.0  0.278456641857126  0.25135498392001665  0.08943593405837899  1.0000
  C   C21       1.0  0.7215028073861448  0.002873389817935395  0.9588741580283012  1.0000
  C   C22       1.0  0.278502132034177  0.9971225576878523  0.04112761151094441  1.0000
  C   C23       1.0  0.6734436352912637  0.6750559515696962  0.8294749903810581  1.0000
  C   C24       1.0  0.326580065424139  0.32492388251768023  0.17053676013662766  1.0000
  C   C25       1.0  0.8100871825518965  0.6427454554578844  0.014362640548306152  1.0000
  C   C26       1.0  0.18991229184730682  0.35724005561697664  0.985645716287969  1.0000
  C   C27       1.0  0.8102324732067601  0.1352122001860963  0.12241038256875919  1.0000
  C   C28       1.0  0.18976181637953007  0.8647853179478843  0.877589071354414  1.0000
  C   C29       1.0  0.853261271714743  0.7145168490014412  0.08972680922181551  1.0000
  C   C30       1.0  0.14673234679831643  0.2854737755446876  0.9102831915216  1.0000
  C   C31       1.0  0.6761785393105415  0.9289291517986341  0.8852914838977098  1.0000
  C   C32       1.0  0.32383392001289474  0.0710641085947401  0.114710515286518  1.0000
  O   O1        1.0  0.6113606129810805  0.5149634449352405  0.39567190732106633  1.0000
  O   O2        1.0  0.38864131746169056  0.48504946320635867  0.6043230928188945  1.0000
  O   O3        1.0  0.758104351590852  0.5126585925958478  0.8334031882850822  1.0000
  O   O4        1.0  0.2418998882675609  0.4873309234221991  0.1665999849366813  1.0000
  O   O5        1.0  0.2954161396257149  0.8377795904087009  0.40148949169292786  1.0000
  O   O6        1.0  0.7045724563046319  0.16221733978355962  0.5985235053308529  1.0000
  O   O7        1.0  0.3064242087674955  0.02020076800180699  0.49530176796401537  1.0000
  O   O8        1.0  0.6935868848763179  0.9798122154590486  0.5046886858183441  1.0000
  O   O9        1.0  0.5596631007978559  0.7489992652242276  0.759224534523838  1.0000
  O   O10       1.0  0.4403264436627623  0.2510039376676687  0.24076487778750524  1.0000
  O   O11       1.0  0.3942993196371206  0.10026869999416729  0.692462511292639  1.0000
  O   O12       1.0  0.605697883647892  0.899726492454249  0.3075315491081128  1.0000
  O   O13       1.0  0.8621297733929012  0.9529330974245623  0.13920888938271495  1.0000
  O   O14       1.0  0.13786402509401802  0.047061557418771785  0.8607969541334837  1.0000
  O   O15       1.0  0.8361754073587592  0.5877805295381789  0.40517312377493647  1.0000
  O   O16       1.0  0.16382550721684913  0.41222719814044234  0.5948238500246674  1.0000
