data_image0
_chemical_formula_structural       K2H68C40N2O2
_chemical_formula_sum              "K2 H68 C40 N2 O2"
_cell_length_a       9.729256143962449
_cell_length_b       11.243641385103109
_cell_length_c       11.562968136279178
_cell_angle_alpha    108.38486778879923
_cell_angle_beta     102.89405875925581
_cell_angle_gamma    113.95692919145692

_space_group_name_H-M_alt    "P 1"
_space_group_IT_number       1

loop_
  _space_group_symop_operation_xyz
  'x, y, z'

loop_
  _atom_site_type_symbol
  _atom_site_label
  _atom_site_symmetry_multiplicity
  _atom_site_fract_x
  _atom_site_fract_y
  _atom_site_fract_z
  _atom_site_occupancy
  K   K1        1.0  0.39476253743653433  0.14258105505481206  0.906753423846581  1.0000
  K   K2        1.0  0.9877995498127277  0.2364425631507955  0.09283319706923263  1.0000
  H   H1        1.0  0.9092926842208441  0.2694818563182792  0.7330268620996562  1.0000
  H   H2        1.0  0.6757877501481457  0.5363172170663401  0.2668772412696325  1.0000
  H   H3        1.0  0.1015649526158597  0.4051784277472946  0.7529334731949077  1.0000
  H   H4        1.0  0.848116299976375  0.6521684769893167  0.24694945850414723  1.0000
  H   H5        1.0  0.021211622601278166  0.4462654019980049  0.871824894913736  1.0000
  H   H6        1.0  0.6489389700347488  0.5741631522509465  0.12798103622094448  1.0000
  H   H7        1.0  0.3303482851994488  0.37272927964464486  0.054513454588182145  1.0000
  H   H8        1.0  0.775865592480507  0.31827581940112276  0.9456220179265741  1.0000
  H   H9        1.0  0.2918358116890046  0.5154237620634345  0.05837229433392806  1.0000
  H   H10       1.0  0.7335534525607983  0.45710049171971406  0.9417346363050213  1.0000
  H   H11       1.0  0.37846735928496855  0.4570046828446975  0.9509355318735259  1.0000
  H   H12       1.0  0.9275427186972961  0.5060987425964638  0.04926248026232111  1.0000
  H   H13       1.0  0.8379475977928266  0.6252036699325528  0.5926177052590375  1.0000
  H   H14       1.0  0.7454776683469151  0.03255012026150438  0.4073078010077679  1.0000
  H   H15       1.0  0.8390817997525062  0.5283078461434058  0.7581147080142184  1.0000
  H   H16       1.0  0.581036609926727  0.7701798559977033  0.24182374380706748  1.0000
  H   H17       1.0  0.9789398624370591  0.7029020110826351  0.9997573243744424  1.0000
  H   H18       1.0  0.47922388256119297  0.7031610666204099  0.00013740636449448174  1.0000
  H   H19       1.0  0.0583975082065251  0.018594689870084793  0.6767706554269282  1.0000
  H   H20       1.0  0.8817434301233149  0.34189887745188224  0.3233651494509856  1.0000
  H   H21       1.0  0.1871152649063461  0.8666397051650847  0.6209026910588307  1.0000
  H   H22       1.0  0.06608889887069573  0.2456449561913059  0.37921579416646967  1.0000
  H   H23       1.0  0.08939300394015229  0.8836890555801201  0.4825556714446859  1.0000
  H   H24       1.0  0.10675863830386582  0.4010248863378008  0.5176156696069255  1.0000
  H   H25       1.0  0.9933997680892543  0.7187438476359203  0.49512807390721736  1.0000
  H   H26       1.0  0.9980105328251055  0.2234475962719742  0.5049534077797374  1.0000
  H   H27       1.0  0.7327666587307817  0.736067855427329  0.4809687523581373  1.0000
  H   H28       1.0  0.7516513531341573  0.25509392759689564  0.5190614726614908  1.0000
  H   H29       1.0  0.8281669242156009  0.8902187161459941  0.4532110860485969  1.0000
  H   H30       1.0  0.8748505298309297  0.4370095241257557  0.5468510697614375  1.0000
  H   H31       1.0  0.7535440198649183  0.9032001374394478  0.5818609979382782  1.0000
  H   H32       1.0  0.6716176005103662  0.3213891943159054  0.41818364424621973  1.0000
  H   H33       1.0  0.15481981981969983  0.10467004344671686  0.12990285944110264  1.0000
  H   H34       1.0  0.5252991736759894  0.9749239586506274  0.8701179129900961  1.0000
  H   H35       1.0  0.280503046208352  0.904768932811883  0.16817571023506842  1.0000
  H   H36       1.0  0.6124327354221676  0.7366345026311262  0.8319961673349707  1.0000
  H   H37       1.0  0.35739902263473067  0.08624720107088275  0.2884774102013523  1.0000
  H   H38       1.0  0.5691600636518429  0.7977094845404263  0.7115855790628484  1.0000
  H   H39       1.0  0.3780228019249847  0.05278061567442899  0.13482417087155338  1.0000
  H   H40       1.0  0.7433476049885003  0.9179281272275333  0.8652559705432309  1.0000
  H   H41       1.0  0.9000831950322661  0.9399312402872864  0.15198017003923056  1.0000
  H   H42       1.0  0.24833653965636412  0.7882869859286569  0.8481865306670213  1.0000
  H   H43       1.0  0.08134710258141811  0.030238536765487795  0.2997261383011817  1.0000
  H   H44       1.0  0.28168204721043816  0.7306732356104246  0.700320241041531  1.0000
  H   H45       1.0  0.9947160056736448  0.8438663259232225  0.1889100535511829  1.0000
  H   H46       1.0  0.30592599206457277  0.6552170747521797  0.8112260376577536  1.0000
  H   H47       1.0  0.6333225071354533  0.10787874763198597  0.751094050014558  1.0000
  H   H48       1.0  0.38227945365322563  0.3568934942041933  0.24878588283255698  1.0000
  H   H49       1.0  0.6204402340232916  0.036514174846764995  0.5859602695356472  1.0000
  H   H50       1.0  0.5345216898910792  0.4506787976508661  0.41385907703946145  1.0000
  H   H51       1.0  0.4464063170618428  0.9517700425589619  0.6199602689520062  1.0000
  H   H52       1.0  0.32659868741278325  0.3317090657388348  0.3798945538266309  1.0000
  H   H53       1.0  0.6031054872295627  0.2610224435720737  0.63962010507484  1.0000
  H   H54       1.0  0.4629726773631545  0.6212744703985889  0.3602029743637018  1.0000
  H   H55       1.0  0.4163858295137146  0.10500825025737016  0.5087182348640978  1.0000
  H   H56       1.0  0.4075116414063301  0.5961561443493648  0.49123934175212003  1.0000
  H   H57       1.0  0.239269409699773  0.24532548346738275  0.7061415170348012  1.0000
  H   H58       1.0  0.03273721585208021  0.5387701990432345  0.29362429529518147  1.0000
  H   H59       1.0  0.2474811911520972  0.19150277182040296  0.546754081736367  1.0000
  H   H60       1.0  0.2000896558860319  0.6442787980761862  0.45311159322325506  1.0000
  H   H61       1.0  0.5179615145483892  0.4754855173109645  0.8010896798356695  1.0000
  H   H62       1.0  0.21707326278466602  0.6740344519470864  0.19895825250983987  1.0000
  H   H63       1.0  0.36716765015666636  0.46347551196440384  0.6711878870892746  1.0000
  H   H64       1.0  0.19618545198284912  0.7920690012772409  0.3288147616196467  1.0000
  H   H65       1.0  0.5196721464908479  0.4270861791931394  0.639903629820722  1.0000
  H   H66       1.0  0.379695877912006  0.7865363394489006  0.36023018712412364  1.0000
  H   H67       1.0  0.9210043069170054  0.08717909243598848  0.7744328905865528  1.0000
  H   H68       1.0  0.6462524986393416  0.31265801617162464  0.22559626202990996  1.0000
  C   C1        1.0  0.04526191932879439  0.15990285134883914  0.8555773542872344  1.0000
  C   C2        1.0  0.6893868817954856  0.30428016284356113  0.14445217329551238  1.0000
  C   C3        1.0  0.1175483108242474  0.3051080080165248  0.8850335917574055  1.0000
  C   C4        1.0  0.7322857078161888  0.4200202567687937  0.11501641549981655  1.0000
  C   C5        1.0  0.033216128386705124  0.35843183722913335  0.8072270908627173  1.0000
  C   C6        1.0  0.7255694003423229  0.5510768503252162  0.19270911427167178  1.0000
  C   C7        1.0  0.2868850626293095  0.4170810100467504  0.9922382235080532  1.0000
  C   C8        1.0  0.7946425281821305  0.42488938671691295  0.007918380637242609  1.0000
  C   C9        1.0  0.03719794554263695  0.9524597789431151  0.8761467210790383  1.0000
  C   C10       1.0  0.6610355110953634  0.07633126456248357  0.12384035401753822  1.0000
  C   C11       1.0  0.9671443826013043  0.8508391646809127  0.7373249219243188  1.0000
  C   C12       1.0  0.729873894470579  0.11351434797475686  0.26265812621462453  1.0000
  C   C13       1.0  0.8932230930037691  0.7008161045251099  0.6987247051511501  1.0000
  C   C14       1.0  0.6946724221415083  0.002045119776099099  0.3011845791597381  1.0000
  C   C15       1.0  0.8940957113918412  0.6454463967527599  0.7907099088914291  1.0000
  C   C16       1.0  0.6035651694792037  0.8546974901988801  0.20920586241209072  1.0000
  C   C17       1.0  0.9732040968920967  0.7442127673289531  0.9262157285381816  1.0000
  C   C18       1.0  0.5471363747033563  0.8179706947191147  0.07370841496141607  1.0000
  C   C19       1.0  0.043673029261696965  0.8943438906702352  0.9703987613374421  1.0000
  C   C20       1.0  0.5733889318871163  0.9240048386296561  0.029616977729147925  1.0000
  C   C21       1.0  0.9815618053749661  0.8988235819740495  0.6289654953730944  1.0000
  C   C22       1.0  0.852599201389907  0.26988182288664575  0.37112891118930946  1.0000
  C   C23       1.0  0.06780221718939572  0.8384346512944061  0.5526695590211402  1.0000
  C   C24       1.0  0.014993259492022936  0.28568187596268746  0.44747779409816957  1.0000
  C   C25       1.0  0.8146917912893412  0.8554500090695069  0.530773615727618  1.0000
  C   C26       1.0  0.7837962005953969  0.3246621289133954  0.4692512556254157  1.0000
  C   C27       1.0  0.12815169791753786  0.9959766448208001  0.11935337588290901  1.0000
  C   C28       1.0  0.5089802160184362  0.8767221606339175  0.8806554267252552  1.0000
  C   C29       1.0  0.294843425016481  0.010805841495148596  0.18101916029353757  1.0000
  C   C30       1.0  0.6139870790130998  0.8297771269783066  0.8190330202195992  1.0000
  C   C31       1.0  0.019912467225125637  0.9502620987712825  0.1935619718239818  1.0000
  C   C32       1.0  0.32648448019389065  0.7569282534592999  0.8065024177004075  1.0000
  C   C33       1.0  0.551800960110981  0.057544116471746086  0.6454894414863616  1.0000
  C   C34       1.0  0.40632222528448375  0.4120600966190862  0.3543877295032728  1.0000
  C   C35       1.0  0.49614944254270194  0.15633252600990488  0.6157470664932773  1.0000
  C   C36       1.0  0.38015130626924787  0.5404384006255325  0.3841967641338042  1.0000
  C   C37       1.0  0.3234403610816301  0.25423261816280973  0.655266277718539  1.0000
  C   C38       1.0  0.16772841698070817  0.5985010845351014  0.34462513668344025  1.0000
  C   C39       1.0  0.4393156161411866  0.41355380058621444  0.6938272685943899  1.0000
  C   C40       1.0  0.24542766952446712  0.7192973006909537  0.30619441477050185  1.0000
  N   N1        1.0  0.10690656695842898  0.10233454215305218  0.9260535028663098  1.0000
  N   N2        1.0  0.6806951222388947  0.17630610390091306  0.07396867696456866  1.0000
  O   O1        1.0  0.4055395688115411  0.18235821468811506  0.6929546327605889  1.0000
  O   O2        1.0  0.21223227332369976  0.4889813080072114  0.30710416220756526  1.0000
