data_image0
_chemical_formula_structural       Cu2H16C16N4O12
_chemical_formula_sum              "Cu2 H16 C16 N4 O12"
_cell_length_a       6.383177465109235
_cell_length_b       8.48875882104908
_cell_length_c       9.899298578341567
_cell_angle_alpha    89.99976803678722
_cell_angle_beta     107.28062259574054
_cell_angle_gamma    89.99975229394595

_space_group_name_H-M_alt    "P 1"
_space_group_IT_number       1

loop_
  _space_group_symop_operation_xyz
  'x, y, z'

loop_
  _atom_site_type_symbol
  _atom_site_label
  _atom_site_symmetry_multiplicity
  _atom_site_fract_x
  _atom_site_fract_y
  _atom_site_fract_z
  _atom_site_occupancy
  Cu  Cu1       1.0  0.4999723864016589  1.5619809580900003e-05  5.640251465929684e-06  1.0000
  Cu  Cu2       1.0  0.49999290824770537  0.49999684165941016  0.4999998294167297  1.0000
  H   H1        1.0  0.6744316334137325  0.1058040274576513  0.2570386248403906  1.0000
  H   H2        1.0  0.3255701897427699  0.6058070949459307  0.2429637715487445  1.0000
  H   H3        1.0  0.3255772744416988  0.8941990800323795  0.7429681130579695  1.0000
  H   H4        1.0  0.6744401416459809  0.394197190581437  0.7570381632438269  1.0000
  H   H5        1.0  0.6243375879169832  0.35643224250326716  0.17051790039823797  1.0000
  H   H6        1.0  0.3756645769826079  0.8564335496881628  0.3294977998426276  1.0000
  H   H7        1.0  0.37566769322001653  0.6435720430421412  0.8294801176000632  1.0000
  H   H8        1.0  0.624332806840478  0.1435672017720648  0.6705059075758797  1.0000
  H   H9        1.0  0.9826399464524087  0.45270605151069526  0.1478162472420123  1.0000
  H   H10       1.0  0.017367917228519006  0.9527132145666355  0.352197073286689  1.0000
  H   H11       1.0  0.01737388175533991  0.5472864537120258  0.8521913531263081  1.0000
  H   H12       1.0  0.9826245462825444  0.047287536904214306  0.6478057716880272  1.0000
  H   H13       1.0  0.024585452078959204  0.32530123488793816  0.29565320876681506  1.0000
  H   H14       1.0  0.9754132360207138  0.8253163522503186  0.20435188899275403  1.0000
  H   H15       1.0  0.9754231959328338  0.674692448388761  0.7043474204538426  1.0000
  H   H16       1.0  0.024587427988009808  0.1746902893454418  0.7956523933737358  1.0000
  C   C1        1.0  0.723481296810391  0.27989095491080457  0.12355303495117197  1.0000
  C   C2        1.0  0.2765176065516073  0.7798829628279905  0.3764492326906463  1.0000
  C   C3        1.0  0.27652881801215307  0.7201133306289337  0.8764438092572675  1.0000
  C   C4        1.0  0.7234797339671886  0.22011543257767133  0.6235534566168468  1.0000
  C   C5        1.0  0.6397576329740461  0.297102478576221  0.9625336909524195  1.0000
  C   C6        1.0  0.36025046389881504  0.7970875441634105  0.5374662492439981  1.0000
  C   C7        1.0  0.36025735880250664  0.7029135872405803  0.0374629975539023  1.0000
  C   C8        1.0  0.6397452798336972  0.2029096732147977  0.4625371707019639  1.0000
  C   C9        1.0  0.9657279142600503  0.33042075600885573  0.17941102408961743  1.0000
  C   C10       1.0  0.03427241837434991  0.8304291868579128  0.3205953540111537  1.0000
  C   C11       1.0  0.034288804345479214  0.6695693931719973  0.8205879881955979  1.0000
  C   C12       1.0  0.9657233253402498  0.16957274263437944  0.6794080659231839  1.0000
  C   C13       1.0  0.10023184387360123  0.2304101418371545  0.11964459623833079  1.0000
  C   C14       1.0  0.8997623419011165  0.7304211604325204  0.3803529807160473  1.0000
  C   C15       1.0  0.899784571561618  0.7695741172184042  0.8803472892436304  1.0000
  C   C16       1.0  0.10022835156620863  0.2695795910492862  0.6196465224269261  1.0000
  N   N1        1.0  0.19549762389652162  0.1469774114805062  0.06532448407511278  1.0000
  N   N2        1.0  0.8044691409384086  0.6469885068983244  0.43466454511037256  1.0000
  N   N3        1.0  0.8044973402558143  0.8530044915714329  0.9346606098057605  1.0000
  N   N4        1.0  0.1955179258418198  0.3530051764392184  0.5653262381528991  1.0000
  O   O1        1.0  0.7008326986537269  0.1185681521848423  0.1585896830278912  1.0000
  O   O2        1.0  0.29914761956410985  0.6185590680373494  0.3414068768888612  1.0000
  O   O3        1.0  0.2991531177879666  0.8814396674762364  0.8414099757706666  1.0000
  O   O4        1.0  0.7008477776624604  0.38143814936064047  0.6585883981224896  1.0000
  O   O5        1.0  0.5329393903620031  0.18209191106380726  0.8900789234097175  1.0000
  O   O6        1.0  0.4670390250022436  0.6820739066157414  0.6099303760553879  1.0000
  O   O7        1.0  0.4670289046542211  0.8179265108632238  0.10992979047070861  1.0000
  O   O8        1.0  0.5329597823854968  0.3179197766821887  0.39006852827768757  1.0000
  O   O9        1.0  0.6838987308700839  0.42200536090346225  0.9075887790025163  1.0000
  O   O10       1.0  0.3161035397173607  0.9219997460919983  0.5924107002392986  1.0000
  O   O11       1.0  0.31614077592517026  0.577988322323293  0.0924101855443524  1.0000
  O   O12       1.0  0.6838986778136517  0.07799511521995581  0.4075918334038775  1.0000
