data_image0
_chemical_formula_structural       Zn2H24C24Br4N4
_chemical_formula_sum              "Zn2 H24 C24 Br4 N4"
_cell_length_a       5.526446115517328
_cell_length_b       9.003401551795923
_cell_length_c       13.853868220833103
_cell_angle_alpha    87.59876997773164
_cell_angle_beta     97.72244097869384
_cell_angle_gamma    96.95269527567284

_space_group_name_H-M_alt    "P 1"
_space_group_IT_number       1

loop_
  _space_group_symop_operation_xyz
  'x, y, z'

loop_
  _atom_site_type_symbol
  _atom_site_label
  _atom_site_symmetry_multiplicity
  _atom_site_fract_x
  _atom_site_fract_y
  _atom_site_fract_z
  _atom_site_occupancy
  Zn  Zn1       1.0  0.37288527541335975  0.46121449243794643  0.7603431623922032  1.0000
  Zn  Zn2       1.0  0.6271069118985153  0.538788620919142  0.23965353104804873  1.0000
  H   H1        1.0  0.2674949229084191  0.4015885506952658  0.546943214158716  1.0000
  H   H2        1.0  0.7324907705700526  0.5983988110254403  0.45305551441839487  1.0000
  H   H3        1.0  0.9442627046326137  0.2564584613141676  0.4340501402570779  1.0000
  H   H4        1.0  0.055713715580331835  0.74352762976541  0.5659517534701164  1.0000
  H   H5        1.0  0.5800719217263719  0.10911722151220724  0.6849344318556658  1.0000
  H   H6        1.0  0.4199277375360353  0.8908755004333033  0.3150728674056252  1.0000
  H   H7        1.0  0.9158123573618228  0.2570033397013134  0.786388418220994  1.0000
  H   H8        1.0  0.08419086153360675  0.7429895670937229  0.21361400131038263  1.0000
  H   H9        1.0  0.3671492982059092  0.14039076018952565  0.4767854106516437  1.0000
  H   H10       1.0  0.6328337663879751  0.8596006940074262  0.5232239681447479  1.0000
  H   H11       1.0  0.5856671351948392  0.08553946981214723  0.4091584752989092  1.0000
  H   H12       1.0  0.4143142272979788  0.9144532469450725  0.5908464714274257  1.0000
  H   H13       1.0  0.9719868568005056  0.48041393938235194  0.8864404258965873  1.0000
  H   H14       1.0  0.028029654455366395  0.5195911852494106  0.11356611531071786  1.0000
  H   H15       1.0  0.7881083812821289  0.6789203430790283  0.9602454508137439  1.0000
  H   H16       1.0  0.21190891248841123  0.32108933211237906  0.03975890782805889  1.0000
  H   H17       1.0  0.304909537200338  0.004732673699670902  0.8347443416935503  1.0000
  H   H18       1.0  0.6950869922592275  0.9952751750665958  0.16524528945128478  1.0000
  H   H19       1.0  0.468948606087352  0.7898413148306744  0.7639225689904944  1.0000
  H   H20       1.0  0.5310398329303466  0.21016196142907972  0.23606888210984775  1.0000
  H   H21       1.0  0.7341384979917152  0.9538564414817686  0.9542420195369129  1.0000
  H   H22       1.0  0.26587349721589953  0.046155877540670104  0.045749769287340286  1.0000
  H   H23       1.0  0.9496121171607045  0.08623916890533681  0.9031539813223259  1.0000
  H   H24       1.0  0.05040475526157461  0.9137697847068229  0.09683881262731826  1.0000
  C   C1        1.0  0.1126368452879305  0.3333988853791539  0.5742370311729059  1.0000
  C   C2        1.0  0.887363696732045  0.6665895895667334  0.4257638652465302  1.0000
  C   C3        1.0  0.9310265579043956  0.25191123933465326  0.5120032954307943  1.0000
  C   C4        1.0  0.06896671661577611  0.7480771391460408  0.48799940739362296  1.0000
  C   C5        1.0  0.7334204723636475  0.16687656388397443  0.5492913450987726  1.0000
  C   C6        1.0  0.2665730752710189  0.8331128094098333  0.4507149693629413  1.0000
  C   C7        1.0  0.7301178249629102  0.16904714531851536  0.6502138665066962  1.0000
  C   C8        1.0  0.2698761206669928  0.8309444908353997  0.3497917181747637  1.0000
  C   C9        1.0  0.9183444896088774  0.2522966964357423  0.7080653475844796  1.0000
  C   C10       1.0  0.08166220446623385  0.7476950526435218  0.29193870264950295  1.0000
  C   C11       1.0  0.5320444630044533  0.08130257025155882  0.4828331033482981  1.0000
  C   C12       1.0  0.46793999014860793  0.9186867010903372  0.5171749268658841  1.0000
  C   C13       1.0  0.042063549935470214  0.5977313948961651  0.8762494191915732  1.0000
  C   C14       1.0  0.9579547209232188  0.40227385941953037  0.12375359764329366  1.0000
  C   C15       1.0  0.9391728304789454  0.7094060771224309  0.9172018502644189  1.0000
  C   C16       1.0  0.06084013821826772  0.2906003294223184  0.08279944521535038  1.0000
  C   C17       1.0  0.030349058340704047  0.8595074343797294  0.9029292355576144  1.0000
  C   C18       1.0  0.9696583350805241  0.1404991295809666  0.09706672692974648  1.0000
  C   C19       1.0  0.22470754974310844  0.8895895073228958  0.8468241758084215  1.0000
  C   C20       1.0  0.7752973186349975  0.11041384315674922  0.15316736815942272  1.0000
  C   C21       1.0  0.3177788385322131  0.7720624189260052  0.8080404225366916  1.0000
  C   C22       1.0  0.6822254665425403  0.2279374751648788  0.19195402361400937  1.0000
  C   C23       1.0  0.9306483732500084  0.9836012573188738  0.9485339366121789  1.0000
  C   C24       1.0  0.0693582083911934  0.016410921046194505  0.05146119527951499  1.0000
  Br  Br1       1.0  0.6467331824296353  0.5859065056891597  0.6561388544599324  1.0000
  Br  Br2       1.0  0.35326142443275893  0.4140899045793845  0.34385804061113123  1.0000
  Br  Br3       1.0  0.5048285219845497  0.294536319627163  0.8911527630947373  1.0000
  Br  Br4       1.0  0.4952046332155078  0.7054902039656598  0.10885145629503508  1.0000
  N   N1        1.0  0.10771428051648262  0.33314780071984984  0.6712124598904976  1.0000
  N   N2        1.0  0.8922848459927266  0.6668429067599747  0.32878833910117317  1.0000
  N   N3        1.0  0.22821740501589724  0.6278394361934474  0.8222276575410061  1.0000
  N   N4        1.0  0.7717918692903254  0.37216703389619715  0.17777128761879618  1.0000
