data_image0
_chemical_formula_structural       Al2H6C24S6O15
_chemical_formula_sum              "Al2 H6 C24 S6 O15"
_cell_length_a       3.9627242280009027
_cell_length_b       20.152702686917277
_cell_length_c       20.152696128820487
_cell_angle_alpha    120.00004664312034
_cell_angle_beta     90.00007089787071
_cell_angle_gamma    89.99999123030625

_space_group_name_H-M_alt    "P 1"
_space_group_IT_number       1

loop_
  _space_group_symop_operation_xyz
  'x, y, z'

loop_
  _atom_site_type_symbol
  _atom_site_label
  _atom_site_symmetry_multiplicity
  _atom_site_fract_x
  _atom_site_fract_y
  _atom_site_fract_z
  _atom_site_occupancy
  Al  Al1       1.0  0.0031708360861628987  0.5000009628610156  0.4999987798230947  1.0000
  Al  Al2       1.0  0.002957648067486199  0.1666682100654597  0.8333327416733312  1.0000
  H   H1        1.0  0.47240165425923636  0.17779606383094657  0.614372565199652  1.0000
  H   H2        1.0  0.4723765917188059  0.9365819515346625  0.8222030959932807  1.0000
  H   H3        1.0  0.4723946693730239  0.3856229901264001  0.06341890907047087  1.0000
  H   H4        1.0  0.49867936142048536  0.5162345708670697  0.784476662541401  1.0000
  H   H5        1.0  0.4986782113150807  0.7682434227229394  0.48376642868234404  1.0000
  H   H6        1.0  0.49867775697656896  0.21552448567135937  0.23175697001845214  1.0000
  C   C1        1.0  0.5023422459361341  0.43873749263681106  0.3823740242275733  1.0000
  C   C2        1.0  0.5023428268635184  0.4436397318310695  0.561263726546926  1.0000
  C   C3        1.0  0.5023401712948398  0.6176261150508748  0.5563614526877529  1.0000
  C   C4        1.0  0.5023310511520548  0.2254461562605669  0.7744943320103346  1.0000
  C   C5        1.0  0.5023261219606069  0.049052309087478686  0.7745534223513318  1.0000
  C   C6        1.0  0.502329103840644  0.22550350559649238  0.9509485055850392  1.0000
  C   C7        1.0  0.4906416833430284  0.43081120398378664  0.6819012535162018  1.0000
  C   C8        1.0  0.48484520566435657  0.23899611450053723  0.6548939427543345  1.0000
  C   C9        1.0  0.49771486328411624  0.4009234796316719  0.6032773693467207  1.0000
  C   C10       1.0  0.4981771789694988  0.2686910294649322  0.7331032776092101  1.0000
  C   C11       1.0  0.5038799897802234  0.2977953278071936  0.636008000045301  1.0000
  C   C12       1.0  0.507874878189831  0.3716393736394892  0.7006288748946901  1.0000
  C   C13       1.0  0.49063857812905787  0.751093080031495  0.5691895906864417  1.0000
  C   C14       1.0  0.4848249125797109  0.9158992020531044  0.7610029503446327  1.0000
  C   C15       1.0  0.49770203094365656  0.7023578980938652  0.5990786759801027  1.0000
  C   C16       1.0  0.49816661502146065  0.96441584202617  0.7313095860087556  1.0000
  C   C17       1.0  0.5038621809005119  0.8382178958210886  0.7022051838123176  1.0000
  C   C18       1.0  0.5078667666006847  0.828993981562412  0.628362231872046  1.0000
  C   C19       1.0  0.49064791504651567  0.3180983470305775  0.24890707497151243  1.0000
  C   C20       1.0  0.48484074734983545  0.3451048883714519  0.08410146342249898  1.0000
  C   C21       1.0  0.4977138679758964  0.3967210451289063  0.2976410943957148  1.0000
  C   C22       1.0  0.49816985525906415  0.2668936995768902  0.03558414335623177  1.0000
  C   C23       1.0  0.503883443992997  0.3639890676025813  0.16178210681098187  1.0000
  C   C24       1.0  0.5078757203304035  0.2993692795804249  0.1710068203257649  1.0000
  S   S1        1.0  0.5166234730489946  0.30133104355599727  0.5524938349596127  1.0000
  S   S2        1.0  0.5264987056973849  0.36825417946049993  0.7843577373816544  1.0000
  S   S3        1.0  0.5166009387459948  0.7511669482087271  0.6986717067210293  1.0000
  S   S4        1.0  0.5265028889498207  0.9161064825404351  0.6317458369046632  1.0000
  S   S5        1.0  0.5166198603792721  0.44750592382459325  0.24883309536544826  1.0000
  S   S6        1.0  0.5265015670247092  0.21563991521071554  0.08389344570754531  1.0000
  O   O1        1.0  0.738160340422183  0.5850422164613036  0.5727073857310361  1.0000
  O   O2        1.0  0.7381598902111717  0.48766905160626106  0.41495919358406047  1.0000
  O   O3        1.0  0.7381602484670677  0.4272932685417672  0.5123315865718894  1.0000
  O   O4        1.0  0.26962891247895016  0.5831552203813217  0.507327785254283  1.0000
  O   O5        1.0  0.26962667300126947  0.49267370214902667  0.5758251880051191  1.0000
  O   O6        1.0  0.26962872302332386  0.4241742335611889  0.41684427136646474  1.0000
  O   O7        1.0  0.7377377878841853  0.17657913586864973  0.9174452080908964  1.0000
  O   O8        1.0  0.7377349144340212  0.24086875000381253  0.8234205471853144  1.0000
  O   O9        1.0  0.7377322865586461  0.0825546323344141  0.7591311090689885  1.0000
  O   O10       1.0  0.27029921065530255  0.2413640034767678  0.9171469057601627  1.0000
  O   O11       1.0  0.27029396585538723  0.08285479042055488  0.8242147093860126  1.0000
  O   O12       1.0  0.2702936897155651  0.17578618076208835  0.7586364462476282  1.0000
  O   O13       1.0  0.4802449098379212  0.507684523252976  0.7326635200859498  1.0000
  O   O14       1.0  0.480246503528633  0.7249819876244316  0.4923168693181453  1.0000
  O   O15       1.0  0.4802435756190916  0.2673368238493977  0.275018803903059  1.0000
