data_image0
_chemical_formula_structural       Cd4H52C56N8O16
_chemical_formula_sum              "Cd4 H52 C56 N8 O16"
_cell_length_a       7.741404840001987
_cell_length_b       11.964098233682785
_cell_length_c       15.344802099943642
_cell_angle_alpha    96.03877086398583
_cell_angle_beta     89.99991823623058
_cell_angle_gamma    90.00001550124665

_space_group_name_H-M_alt    "P 1"
_space_group_IT_number       1

loop_
  _space_group_symop_operation_xyz
  'x, y, z'

loop_
  _atom_site_type_symbol
  _atom_site_label
  _atom_site_symmetry_multiplicity
  _atom_site_fract_x
  _atom_site_fract_y
  _atom_site_fract_z
  _atom_site_occupancy
  Cd  Cd1       1.0  0.745307894666482  0.5015082988483927  0.9745836223345421  1.0000
  Cd  Cd2       1.0  0.2453089456243164  0.9984932307636998  0.5254154456347634  1.0000
  Cd  Cd3       1.0  0.2546915664146496  0.4984941352220602  0.0254157463243843  1.0000
  Cd  Cd4       1.0  0.7546918072127797  0.0015075194661093995  0.4745831376522958  1.0000
  H   H1        1.0  0.8907227399062453  0.6207684844111513  0.5181622731799108  1.0000
  H   H2        1.0  0.3907211591054607  0.8792305409981723  0.9818377946447683  1.0000
  H   H3        1.0  0.10927801292792341  0.37923059339576076  0.4818381324031407  1.0000
  H   H4        1.0  0.6092783019755076  0.12077021208603611  0.018161440559602195  1.0000
  H   H5        1.0  0.9717324265299117  0.4653453402268966  0.6067575377968168  1.0000
  H   H6        1.0  0.47173224454167706  0.0346532346501149  0.8932420136275353  1.0000
  H   H7        1.0  0.02826832630417901  0.534652897086886  0.3932428010589604  1.0000
  H   H8        1.0  0.5282685082944951  0.9653475184341359  0.10675722157637321  1.0000
  H   H9        1.0  0.19894094244123295  0.7071617634286727  0.8009274334254215  1.0000
  H   H10       1.0  0.6989382081347416  0.7928380843629625  0.6990721861043595  1.0000
  H   H11       1.0  0.8010623939034291  0.29283815487145404  0.19907303888398786  1.0000
  H   H12       1.0  0.30105866943657134  0.2071609848804458  0.3009262637295294  1.0000
  H   H13       1.0  0.1186985595318504  0.8614338152774298  0.7113688210536465  1.0000
  H   H14       1.0  0.6186967995793466  0.6385651799289108  0.7886294851919899  1.0000
  H   H15       1.0  0.881303485059448  0.138566097313749  0.28863034742251864  1.0000
  H   H16       1.0  0.38130136974633205  0.3614347326621187  0.21136968328556086  1.0000
  H   H17       1.0  0.2544476256676021  0.4910790065490573  0.7959662432122059  1.0000
  H   H18       1.0  0.7544512179426733  0.0089212348837222  0.7040342486805642  1.0000
  H   H19       1.0  0.7455505436562364  0.5089209117508701  0.2040342290990438  1.0000
  H   H20       1.0  0.24555211840106497  0.9910786862708607  0.29596687554570167  1.0000
  H   H21       1.0  0.11064692773547344  0.4006262457535571  0.7295537196601244  1.0000
  H   H22       1.0  0.6106490781445901  0.0993723032535172  0.7704467414238536  1.0000
  H   H23       1.0  0.8893525333444078  0.5993728291988419  0.27044603400653944  1.0000
  H   H24       1.0  0.38935167468881826  0.900628458394088  0.22955444953061027  1.0000
  H   H25       1.0  0.012402191976285303  0.7216962118376031  0.984525339031286  1.0000
  H   H26       1.0  0.512402554185954  0.7783036239693786  0.515475065566001  1.0000
  H   H27       1.0  0.9875946855913473  0.27830286882359456  0.015475718470000304  1.0000
  H   H28       1.0  0.48759690689308866  0.22169629433059873  0.4845254067447868  1.0000
  H   H29       1.0  0.574859425427377  0.6913116833267452  0.1439623494381834  1.0000
  H   H30       1.0  0.07485946267472343  0.8086878982619369  0.3560382251299501  1.0000
  H   H31       1.0  0.4251387438963763  0.3086873944800601  0.8560380561457919  1.0000
  H   H32       1.0  0.9251412901596087  0.1913128605312195  0.6439623139076573  1.0000
  H   H33       1.0  0.7575652290805125  0.8818525890376138  0.20923375123798144  1.0000
  H   H34       1.0  0.2575666633105485  0.6181470070854331  0.2907666929138557  1.0000
  H   H35       1.0  0.24243294024324777  0.11814648876918454  0.7907666543459939  1.0000
  H   H36       1.0  0.7424340895237835  0.3818537517077161  0.7092338461237517  1.0000
  H   H37       1.0  0.17308364301991472  0.877391912538016  0.07874249958464928  1.0000
  H   H38       1.0  0.6730853767367366  0.6226093549962997  0.4212574864079244  1.0000
  H   H39       1.0  0.8269145263049256  0.12260884340058452  0.9212573875370325  1.0000
  H   H40       1.0  0.3269153760975955  0.3773914037968495  0.5787430526296901  1.0000
  H   H41       1.0  0.06754454307423434  0.9479505712969928  0.1712947000282341  1.0000
  H   H42       1.0  0.5675452173274281  0.5520498444940359  0.3287046426546211  1.0000
  H   H43       1.0  0.9324536262523682  0.052049338439587686  0.8287038165324673  1.0000
  H   H44       1.0  0.43245424375161445  0.4479500738059415  0.6712958296561666  1.0000
  H   H45       1.0  0.8856324415028001  0.0551536671489217  0.07491014782259948  1.0000
  H   H46       1.0  0.38563234020162446  0.4448471603169466  0.4250892278778977  1.0000
  H   H47       1.0  0.11436701957900655  0.9448462425877082  0.9250883687376471  1.0000
  H   H48       1.0  0.6143671208775817  0.5551544389692822  0.5749113778874531  1.0000
  H   H49       1.0  0.10895043541749062  0.07944379380235493  0.0639607852191446  1.0000
  H   H50       1.0  0.6089509595958235  0.4205570145078355  0.4360394398941949  1.0000
  H   H51       1.0  0.8910490256624759  0.9205561216431731  0.9360390351748008  1.0000
  H   H52       1.0  0.39104850148329723  0.579443744285264  0.5639610991438744  1.0000
  C   C1        1.0  0.9315693174731055  0.8424705597960198  0.5605536223992473  1.0000
  C   C2        1.0  0.4315703477546722  0.6575276312240916  0.9394470014576939  1.0000
  C   C3        1.0  0.06843014360502052  0.15752936135840664  0.439447501828397  1.0000
  C   C4        1.0  0.5684316968356244  0.3424714437284209  0.0605527522080465  1.0000
  C   C5        1.0  0.9964695934014787  0.7504045944441061  0.6100366211651364  1.0000
  C   C6        1.0  0.4964733854070858  0.7495961232183177  0.8899641565467035  1.0000
  C   C7        1.0  0.0035285759225161003  0.24959700484206593  0.3899639846006763  1.0000
  C   C8        1.0  0.5035299509385782  0.25040463272048896  0.11003573057313079  1.0000
  C   C9        1.0  0.9586483116372551  0.6384229616057342  0.5801821192736227  1.0000
  C   C10       1.0  0.4586533576032964  0.8615769097004745  0.9198179667905534  1.0000
  C   C11       1.0  0.041351149441787506  0.36157695669424345  0.4198183530371722  1.0000
  C   C12       1.0  0.5413486869860833  0.1384221681064801  0.08018243879203618  1.0000
  C   C13       1.0  0.004663752909671401  0.5521079988845657  0.6296352480150986  1.0000
  C   C14       1.0  0.5046631823800285  0.9478901553205431  0.870365028651676  1.0000
  C   C15       1.0  0.9953369999245826  0.4478919194154614  0.3703652242952344  1.0000
  C   C16       1.0  0.49533627870077634  0.0521089167774136  0.1296340730981385  1.0000
  C   C17       1.0  0.0889752143324003  0.5758818223667818  0.7103054688545851  1.0000
  C   C18       1.0  0.5889748619737318  0.9241163385453393  0.7896947476304064  1.0000
  C   C19       1.0  0.9110268302569724  0.42411725544018  0.2896949367280044  1.0000
  C   C20       1.0  0.41102330735286347  0.07588357119124112  0.2103037689302951  1.0000
  C   C21       1.0  0.13186017850497223  0.6878639737799331  0.7387432355244029  1.0000
  C   C22       1.0  0.6318572764269136  0.8121341876891537  0.761256298433274  1.0000
  C   C23       1.0  0.8681431578405284  0.312135101172629  0.2612565181408755  1.0000
  C   C24       1.0  0.3681383093892024  0.18786488155420503  0.23874215140106966  1.0000
  C   C25       1.0  0.08684518127409292  0.7743175194728525  0.689096186247319  1.0000
  C   C26       1.0  0.5868446863643585  0.7256814817629407  0.8109040984854303  1.0000
  C   C27       1.0  0.9131555715610777  0.22568239597272569  0.3109036341461646  1.0000
  C   C28       1.0  0.4131534829604037  0.2743184336825379  0.18909572190896984  1.0000
  C   C29       1.0  0.12442991944556075  0.48314847858620885  0.7674052369912515  1.0000
  C   C30       1.0  0.6244308507646539  0.016848390531016808  0.732595080800273  1.0000
  C   C31       1.0  0.8755708333883665  0.5168480777413293  0.2325949684099626  1.0000
  C   C32       1.0  0.3755711938240439  0.9831532116097605  0.2674061768810034  1.0000
  C   C33       1.0  0.9952058739530476  0.4922279676810177  0.8428733162650984  1.0000
  C   C34       1.0  0.49520634830656013  0.0077706119177918  0.657126870320468  1.0000
  C   C35       1.0  0.004794878882044902  0.5077711072714379  0.1571264374011037  1.0000
  C   C36       1.0  0.5047956962846601  0.9922284601802718  0.3428722314284228  1.0000
  C   C37       1.0  0.9142166005918002  0.7401027323763929  0.03433023964552011  1.0000
  C   C38       1.0  0.4142163075876583  0.7598968762082594  0.4656700926888391  1.0000
  C   C39       1.0  0.08578156873196013  0.2598963454304126  0.9656701659384551  1.0000
  C   C40       1.0  0.5857831534914626  0.24010388258484033  0.5343304463492302  1.0000
  C   C41       1.0  0.6922025096294039  0.7268436833168013  0.1199524764319335  1.0000
  C   C42       1.0  0.19220504772049915  0.7731559047522156  0.38004736245870413  1.0000
  C   C43       1.0  0.3077943679382288  0.2731553973443965  0.880048581069353  1.0000
  C   C44       1.0  0.8077957051138329  0.2268448540409409  0.6199531765789033  1.0000
  C   C45       1.0  0.7806257116715759  0.8221773879826986  0.1518747115049237  1.0000
  C   C46       1.0  0.2806270085788968  0.677823885252167  0.3481245458071953  1.0000
  C   C47       1.0  0.21937374940746687  0.17782253031727888  0.848125760805864  1.0000
  C   C48       1.0  0.7193724525011479  0.32217687068649087  0.6518753413140317  1.0000
  C   C49       1.0  0.0515462468001218  0.91773597618473  0.1018011820194218  1.0000
  C   C50       1.0  0.5515480289164219  0.5822652788267959  0.3981982388099397  1.0000
  C   C51       1.0  0.9484519225256354  0.08226477689942162  0.8981980531854105  1.0000
  C   C52       1.0  0.4484527239187487  0.4177346366187821  0.601801581583544  1.0000
  C   C53       1.0  0.006970244459900202  0.0160662917675083  0.0495005878219814  1.0000
  C   C54       1.0  0.5069707541351322  0.4839345084301172  0.4504997100850403  1.0000
  C   C55       1.0  0.993029216620066  0.9839336236780201  0.950499232571957  1.0000
  C   C56       1.0  0.49302999869919995  0.5160662503630319  0.5495008289525741  1.0000
  N   N1        1.0  0.7769314100172837  0.6764414304650829  0.04677797113406972  1.0000
  N   N2        1.0  0.27693117870040157  0.8235573267053627  0.4532223924674597  1.0000
  N   N3        1.0  0.22306675930655478  0.3235584878348448  0.95322250117718  1.0000
  N   N4        1.0  0.7230695741346836  0.1764417482470932  0.5467773611987425  1.0000
  N   N5        1.0  0.9205241719174073  0.8292968454832064  0.09651638530939981  1.0000
  N   N6        1.0  0.4205253093562364  0.6707044388806196  0.40348277214295797  1.0000
  N   N7        1.0  0.07947270565130542  0.1707039133097865  0.9034841537296003  1.0000
  N   N8        1.0  0.5794728599694423  0.3292954737104096  0.5965163963346001  1.0000
  O   O1        1.0  0.8312555702960299  0.8178880216727223  0.4955177690006138  1.0000
  O   O2        1.0  0.3312513817379284  0.6821115746032973  0.0044813187192005235  1.0000
  O   O3        1.0  0.16874905780667868  0.1821127285572359  0.504480814285067  1.0000
  O   O4        1.0  0.6687506628533699  0.31788833798788835  0.9955178497569646  1.0000
  O   O5        1.0  0.9735952659606042  0.9448172696116901  0.5864929295778083  1.0000
  O   O6        1.0  0.4735950352248823  0.5551817623902195  0.9135070790918007  1.0000
  O   O7        1.0  0.02640290336331931  0.055183489181359804  0.41350760946072274  1.0000
  O   O8        1.0  0.5264044258569244  0.44481814734641034  0.0864914374684389  1.0000
  O   O9        1.0  0.8462316289325147  0.4481647197255115  0.8310348292778399  1.0000
  O   O10       1.0  0.34623337990866804  0.051834697078867016  0.6689674861232433  1.0000
  O   O11       1.0  0.15376783214653503  0.5518351985744728  0.1689656430329549  1.0000
  O   O12       1.0  0.6537712481921222  0.9481652183668674  0.3310323342688548  1.0000
  O   O13       1.0  0.0382283156636234  0.5475665308363062  0.9151262248970298  1.0000
  O   O14       1.0  0.5382298459002118  0.9524324693865225  0.5848747464546733  1.0000
  O   O15       1.0  0.9617711454162648  0.4524325441160996  0.08487352876963429  1.0000
  O   O16       1.0  0.46177607395277687  0.04756493314323511  0.4151268295056809  1.0000
