data_image0
_chemical_formula_structural       Zr6H34C52O52
_chemical_formula_sum              "Zr6 H34 C52 O52"
_cell_length_a       14.834505384074047
_cell_length_b       14.864146436813217
_cell_length_c       14.863800563901531
_cell_angle_alpha    60.024356097167264
_cell_angle_beta     60.01415979814795
_cell_angle_gamma    60.00960897275562

_space_group_name_H-M_alt    "P 1"
_space_group_IT_number       1

loop_
  _space_group_symop_operation_xyz
  'x, y, z'

loop_
  _atom_site_type_symbol
  _atom_site_label
  _atom_site_symmetry_multiplicity
  _atom_site_fract_x
  _atom_site_fract_y
  _atom_site_fract_z
  _atom_site_occupancy
  Zr  Zr1       1.0  0.8790766880155018  0.8811367103371666  0.6194042544423369  1.0000
  Zr  Zr2       1.0  0.11566769528286618  0.11891721495396004  0.38164769323354625  1.0000
  Zr  Zr3       1.0  0.11565588477368041  0.8827501587945291  0.6178505068212915  1.0000
  Zr  Zr4       1.0  0.8789937997120915  0.1205734583566525  0.37998419326776656  1.0000
  Zr  Zr5       1.0  0.11514185513208043  0.8825288886030476  0.38132300337021263  1.0000
  Zr  Zr6       1.0  0.8786276339482201  0.11937373236081338  0.6180997032608533  1.0000
  H   H1        1.0  0.0899241599420078  0.7203825813063742  0.5941201492695213  1.0000
  H   H2        1.0  0.09001614456664701  0.09507718831221722  0.21923029356142368  1.0000
  H   H3        1.0  0.09147872152147586  0.09413991896994381  0.5928850652695203  1.0000
  H   H4        1.0  0.715565900809274  0.09456869248931106  0.5934161256687959  1.0000
  H   H5        1.0  0.7506236367189634  0.6273674973150069  0.9593081789510549  1.0000
  H   H6        1.0  0.83677833692898  0.5425165331792029  0.874062111654034  1.0000
  H   H7        1.0  0.8370305517621973  0.3745369395155932  0.04199748649406845  1.0000
  H   H8        1.0  0.750852638155706  0.459710485293158  0.12688891993187215  1.0000
  H   H9        1.0  0.1465588906612538  0.35051210924529397  0.3441113859257142  1.0000
  H   H10       1.0  0.8481284110848858  0.6528042257829583  0.6526008268649689  1.0000
  H   H11       1.0  0.1489230360877087  0.6558611916501816  0.342468429091383  1.0000
  H   H12       1.0  0.84509177069328  0.34807087592755453  0.6534127892629016  1.0000
  H   H13       1.0  0.3448848320945573  0.15263542325264004  0.15334351656020576  1.0000
  H   H14       1.0  0.6592185807399955  0.8411582050581217  0.853966814354081  1.0000
  H   H15       1.0  0.6521204573115612  0.15247798609637195  0.8489871769866325  1.0000
  H   H16       1.0  0.34999072182911545  0.8430444508363665  0.15710868438785752  1.0000
  H   H17       1.0  0.844670937505704  0.1541860176078132  0.847161972132973  1.0000
  H   H18       1.0  0.14834690567642617  0.8432870908430132  0.15508365314211384  1.0000
  H   H19       1.0  0.8476768861623826  0.15359690813803448  0.1518294594446489  1.0000
  H   H20       1.0  0.1463412916998904  0.8450964285521962  0.8494933639263065  1.0000
  H   H21       1.0  0.34937836371833  0.6580156559355927  0.34232141282704015  1.0000
  H   H22       1.0  0.6516878767137585  0.3498986398039747  0.6515834715240274  1.0000
  H   H23       1.0  0.6588338524216371  0.35506370052856084  0.34015563017037925  1.0000
  H   H24       1.0  0.3443436045398941  0.6542399956459449  0.6518576363602547  1.0000
  H   H25       1.0  0.3472226648403023  0.8456316054583936  0.6493204260512897  1.0000
  H   H26       1.0  0.6530711307472217  0.1514580014152216  0.34415532374818275  1.0000
  H   H27       1.0  0.6531528771748042  0.845657484334872  0.6498764585711285  1.0000
  H   H28       1.0  0.34710699915209636  0.15097184036586941  0.3441396281406953  1.0000
  H   H29       1.0  0.17975167002892078  0.46973271995652505  0.11286924319478686  1.0000
  H   H30       1.0  0.18050925224099498  0.33421798896792865  0.16088149912090438  1.0000
  H   H31       1.0  0.2623910749050609  0.39008877896573313  0.02526193738998469  1.0000
  H   H32       1.0  0.262328041574115  0.5259877207545073  0.8892720296738262  1.0000
  H   H33       1.0  0.18032720255448723  0.6618864283333891  0.8341251220295122  1.0000
  H   H34       1.0  0.17988591572836313  0.6127785324488001  0.969740441366099  1.0000
  C   C1        1.0  0.9962881935247269  0.6967231627420887  0.49618605436344165  1.0000
  C   C2        1.0  0.3067376246215402  0.9975298026297565  0.1962865918584811  1.0000
  C   C3        1.0  0.9955470452065923  0.3086911171601871  0.49881365480248263  1.0000
  C   C4        1.0  0.6952115489563581  0.9976689708908921  0.809647656305785  1.0000
  C   C5        1.0  0.9965335759848978  0.7009541320835168  0.8052214015849019  1.0000
  C   C6        1.0  0.6942775348025874  0.998299189841582  0.4968797880596654  1.0000
  C   C7        1.0  0.996375536859084  0.3061432834543539  0.20013134045549213  1.0000
  C   C8        1.0  0.30698055799995677  0.9977057893449908  0.4962673668310984  1.0000
  C   C9        1.0  0.30654929265349307  0.6974401086066706  0.4964799583135857  1.0000
  C   C10       1.0  0.9953877806826983  0.9998578564053203  0.8076006335990584  1.0000
  C   C11       1.0  0.6949714218791883  0.3108630642565373  0.4965647868595084  1.0000
  C   C12       1.0  0.9960649330756224  0.9972687331507474  0.19563219857013084  1.0000
  C   C13       1.0  0.9966175178294705  0.40633179886937393  0.4989728934096364  1.0000
  C   C14       1.0  0.9976746502791866  0.5970149526662993  0.4978940054207471  1.0000
  C   C15       1.0  0.07906812634531239  0.45511698913935555  0.4144732469462652  1.0000
  C   C16       1.0  0.916506965681933  0.5470033552363276  0.5835464752059709  1.0000
  C   C17       1.0  0.07970708376058157  0.5495060734245456  0.41396371748759014  1.0000
  C   C18       1.0  0.915578769124835  0.4529325641882733  0.5837669458737693  1.0000
  C   C19       1.0  0.40555661617240424  0.9973489310132493  0.09835905727285864  1.0000
  C   C20       1.0  0.5974828004978859  0.9969996821056739  0.9084343846121499  1.0000
  C   C21       1.0  0.4522519074437313  0.08194914738088949  0.048958860481768306  1.0000
  C   C22       1.0  0.5510021825008025  0.912193646750154  0.9579908729596697  1.0000
  C   C23       1.0  0.5472594323960751  0.08186761601801613  0.9548943473322639  1.0000
  C   C24       1.0  0.4555391896617918  0.9127532936266364  0.05159448448197414  1.0000
  C   C25       1.0  0.9961584157083578  0.9997956679253335  0.9054990820142383  1.0000
  C   C26       1.0  0.997174793801747  0.998773840711877  0.09615094922199305  1.0000
  C   C27       1.0  0.9149896578172657  0.08451504557564948  0.9521762523358107  1.0000
  C   C28       1.0  0.07912369577710622  0.9147397878333405  0.048745525523010265  1.0000
  C   C29       1.0  0.9159214025097882  0.08437602683674333  0.04620996234636019  1.0000
  C   C30       1.0  0.07857851677808034  0.915274932065557  0.9542988526466231  1.0000
  C   C31       1.0  0.4051002671049774  0.5992921876597633  0.496524862306785  1.0000
  C   C32       1.0  0.5969912417323328  0.40943468987136095  0.49612283470487734  1.0000
  C   C33       1.0  0.4549809887448573  0.5524856110192218  0.41197531742069077  1.0000
  C   C34       1.0  0.546672823873564  0.455744455481202  0.5811225239524589  1.0000
  C   C35       1.0  0.5504772751029563  0.45894165546460647  0.41135250156630593  1.0000
  C   C36       1.0  0.4516701140978867  0.5497885073122362  0.5812443384681316  1.0000
  C   C37       1.0  0.004578273143117561  0.5997850082219429  0.9039227202640632  1.0000
  C   C38       1.0  0.00456592958536818  0.4047307661105251  0.0989958973587264  1.0000
  C   C39       1.0  0.9253450702286375  0.5486866569738356  0.9541625858354124  1.0000
  C   C40       1.0  0.08855889283690023  0.4531454122203868  0.048455239160155386  1.0000
  C   C41       1.0  0.9253781306347973  0.4549690159067834  0.047890158814489305  1.0000
  C   C42       1.0  0.0885473542354376  0.5491604208795521  0.9524590113908503  1.0000
  C   C43       1.0  0.8236374708740042  0.5543238184448781  0.9476016697718207  1.0000
  C   C44       1.0  0.8237507863119333  0.4481806600998368  0.0537178576719342  1.0000
  C   C45       1.0  0.4048251309194412  0.9982132834466951  0.4967146918389174  1.0000
  C   C46       1.0  0.5957914970729234  0.9984533430820478  0.496929989120588  1.0000
  C   C47       1.0  0.45267967931637526  0.9154256114617851  0.5802620992780874  1.0000
  C   C48       1.0  0.5472211233850287  0.08190357451447736  0.41400377774507285  1.0000
  C   C49       1.0  0.5472790254584652  0.915506013798698  0.5803380472595877  1.0000
  C   C50       1.0  0.4526155620614674  0.08181562687862245  0.4139407588721866  1.0000
  C   C51       1.0  0.18214251339099963  0.40854552715853754  0.08988254246337848  1.0000
  C   C52       1.0  0.18209645441396552  0.5905179281465961  0.9081296531131856  1.0000
  O   O1        1.0  0.919695397611541  0.7400993637163538  0.5716051363951848  1.0000
  O   O2        1.0  0.2631240590381907  0.0743127199883844  0.23826105016253513  1.0000
  O   O3        1.0  0.07220747508223714  0.26514740896081435  0.4237115148717622  1.0000
  O   O4        1.0  0.7379507082023409  0.9217615234573773  0.7667940502288461  1.0000
  O   O5        1.0  0.06699322801399864  0.7501461912001446  0.7603665343881331  1.0000
  O   O6        1.0  0.7367370701577088  0.07478506128296664  0.4210795995255054  1.0000
  O   O7        1.0  0.9196387855825138  0.26756274881568504  0.2353398872457789  1.0000
  O   O8        1.0  0.26397855658272124  0.9217811943516949  0.5724264692208791  1.0000
  O   O9        1.0  0.26367262071673253  0.7399880311818875  0.42047460095935907  1.0000
  O   O10       1.0  0.9186238220518917  0.07566676452042027  0.765380160552262  1.0000
  O   O11       1.0  0.7365146717189291  0.26705043442113663  0.5738857837814278  1.0000
  O   O12       1.0  0.07217449470735425  0.9208563301434795  0.23844399899196111  1.0000
  O   O13       1.0  0.07217817204313771  0.9248186603190903  0.763992939803991  1.0000
  O   O14       1.0  0.7378103003014758  0.2680910945552029  0.4205723159893395  1.0000
  O   O15       1.0  0.9196042349516063  0.07281038087767663  0.23889797331579388  1.0000
  O   O16       1.0  0.26307691088287294  0.739536182204219  0.5731430970908846  1.0000
  O   O17       1.0  0.9197829730146055  0.7362900251679249  0.7666024922798442  1.0000
  O   O18       1.0  0.2639104287812017  0.07389282207134328  0.4203953945786907  1.0000
  O   O19       1.0  0.0666823209360814  0.2613702884029223  0.2494598470233953  1.0000
  O   O20       1.0  0.7367773120045977  0.9224626967514594  0.5733245418397743  1.0000
  O   O21       1.0  0.7366070996313852  0.07510839100303471  0.7657358348514761  1.0000
  O   O22       1.0  0.07228268959580213  0.739646451511291  0.4196785081458713  1.0000
  O   O23       1.0  0.2637822274536816  0.921611496426202  0.2387284700793515  1.0000
  O   O24       1.0  0.91862124325025  0.26665051245927174  0.5745074995122721  1.0000
  O   O25       1.0  0.795646226827202  0.06810908670424001  0.5669175871159453  1.0000
  O   O26       1.0  0.06425881704841181  0.06772263536291945  0.5665579354801196  1.0000
  O   O27       1.0  0.06406991978258252  0.06678010389534708  0.2991101851660076  1.0000
  O   O28       1.0  0.06405404726947224  0.800260442750485  0.5657011241719658  1.0000
  O   O29       1.0  0.1458366478621541  0.9509318903034155  0.4498375591208513  1.0000
  O   O30       1.0  0.9474342150917537  0.9517524008728485  0.45061270246377916  1.0000
  O   O31       1.0  0.9472434912912532  0.14826982059045682  0.4512269393657249  1.0000
  O   O32       1.0  0.9472618611527394  0.9523451063452909  0.6472005000679317  1.0000
  O   O33       1.0  0.1587747342672684  0.4161468229132482  0.3315304228837803  1.0000
  O   O34       1.0  0.8379371435649218  0.5851091725423744  0.6674274744160585  1.0000
  O   O35       1.0  0.1602935435410869  0.5904506627696833  0.33090802810147574  1.0000
  O   O36       1.0  0.8355666937847345  0.4114174113151777  0.6671475793740813  1.0000
  O   O37       1.0  0.40963753235646994  0.1655555238150441  0.08708472404195083  1.0000
  O   O38       1.0  0.5940668534798877  0.8284282804997644  0.9198784046066065  1.0000
  O   O39       1.0  0.5853691262314697  0.1652750848311299  0.9132857357992066  1.0000
  O   O40       1.0  0.4164318988892004  0.8302814096077142  0.09250142786913784  1.0000
  O   O41       1.0  0.8349318026082103  0.1678067160123291  0.9106780708134891  1.0000
  O   O42       1.0  0.15962649201254886  0.8316148207450597  0.08977436033443109  1.0000
  O   O43       1.0  0.8373557834498583  0.16829400542075493  0.0842574852837714  1.0000
  O   O44       1.0  0.15839259050266447  0.83240906938871  0.9152727220853762  1.0000
  O   O45       1.0  0.41575308470456923  0.5933482765701114  0.32959337521545967  1.0000
  O   O46       1.0  0.5847789220565076  0.4140390775091448  0.6645634350134983  1.0000
  O   O47       1.0  0.5935551763431092  0.42086964370484753  0.327548498593103  1.0000
  O   O48       1.0  0.408989374792675  0.5878624433083887  0.6648920664778756  1.0000
  O   O49       1.0  0.41214688098335706  0.8342815563841199  0.6619763229750005  1.0000
  O   O50       1.0  0.5869724425314544  0.16377403630529846  0.3328695870336917  1.0000
  O   O51       1.0  0.5870526655377969  0.8343665539528761  0.6621875941278077  1.0000
  O   O52       1.0  0.41201220995607457  0.16359164030752288  0.33284801913742257  1.0000
