data_image0
_chemical_formula_structural       Zn6H84C124N24O24
_chemical_formula_sum              "Zn6 H84 C124 N24 O24"
_cell_length_a       13.560277313654595
_cell_length_b       13.560346119147775
_cell_length_c       26.363643022639742
_cell_angle_alpha    85.87246242287794
_cell_angle_beta     85.87199654280728
_cell_angle_gamma    60.39556127435769

_space_group_name_H-M_alt    "P 1"
_space_group_IT_number       1

loop_
  _space_group_symop_operation_xyz
  'x, y, z'

loop_
  _atom_site_type_symbol
  _atom_site_label
  _atom_site_symmetry_multiplicity
  _atom_site_fract_x
  _atom_site_fract_y
  _atom_site_fract_z
  _atom_site_occupancy
  Zn  Zn1       1.0  0.15104507770838893  0.3660932404837638  0.4307124984932004  1.0000
  Zn  Zn2       1.0  0.6338962448272413  0.8489545367730497  0.06928770452645952  1.0000
  Zn  Zn3       1.0  0.8489539613119562  0.6339065585128121  0.5692864126449422  1.0000
  Zn  Zn4       1.0  0.36610020469623816  0.15104644975007628  0.9307127606248005  1.0000
  Zn  Zn5       1.0  0.9532864224717276  0.04671498669549087  0.7499930709856245  1.0000
  Zn  Zn6       1.0  0.0467075725819512  0.9532828144551999  0.2500060224265752  1.0000
  H   H1        1.0  0.18851091927994898  0.2553235209065435  0.6763211547601815  1.0000
  H   H2        1.0  0.7446649847426058  0.8114901860514363  0.8236797951774479  1.0000
  H   H3        1.0  0.8114916128156652  0.7446657194070949  0.3236779392508566  1.0000
  H   H4        1.0  0.25533395645462065  0.18851853088030168  0.17631888766899811  1.0000
  H   H5        1.0  0.4560474291537561  0.06922801036657929  0.5654122174729821  1.0000
  H   H6        1.0  0.9307955535379475  0.5439605552197689  0.9345829462329152  1.0000
  H   H7        1.0  0.5439592028848779  0.9307733098348906  0.4345860783154407  1.0000
  H   H8        1.0  0.0692174437498778  0.4560633542688634  0.06541953270138381  1.0000
  H   H9        1.0  0.5187894347720531  0.00021453390344551687  0.7256984929759299  1.0000
  H   H10       1.0  0.9997915865379667  0.4812290144505338  0.7742927938336595  1.0000
  H   H11       1.0  0.48121570019737453  0.9997742835620539  0.2742982680231806  1.0000
  H   H12       1.0  0.00021481881869789764  0.5187780896624261  0.22571104956907825  1.0000
  H   H13       1.0  0.34076347398600854  0.25175807758853347  0.5174899485175858  1.0000
  H   H14       1.0  0.7482622222001752  0.6592248232981319  0.9825094397404897  1.0000
  H   H15       1.0  0.6592362485107301  0.7482524156057477  0.482510185850245  1.0000
  H   H16       1.0  0.2517519376413447  0.340783963398323  0.0174880885037467  1.0000
  H   H17       1.0  0.9902164353492963  0.360910725959414  0.5251034959321075  1.0000
  H   H18       1.0  0.6390815471201209  0.00977958968027781  0.9748998913811706  1.0000
  H   H19       1.0  0.009790430168308703  0.6390712935663668  0.47489453451382263  1.0000
  H   H20       1.0  0.36090701456077307  0.9902338558405008  0.0251057674922279  1.0000
  H   H21       1.0  0.0796673257321032  0.24922034759644163  0.6165934429959138  1.0000
  H   H22       1.0  0.7507709631762509  0.9203386905448526  0.8834063742133225  1.0000
  H   H23       1.0  0.9203446078935543  0.7507644452122193  0.38340324618989297  1.0000
  H   H24       1.0  0.24922178456316862  0.07968692093234608  0.1165954465394492  1.0000
  H   H25       1.0  0.5837543702589586  0.81774975838708  0.598250282234794  1.0000
  H   H26       1.0  0.18228583684117441  0.4162370390611727  0.9017390303172093  1.0000
  H   H27       1.0  0.4162437876550412  0.18225041852072374  0.4017497802198022  1.0000
  H   H28       1.0  0.8177309483462097  0.5837623315419834  0.0982590531175589  1.0000
  H   H29       1.0  0.889107877856901  0.8136454415583854  0.6239659546891262  1.0000
  H   H30       1.0  0.18635475767116816  0.11090284461971577  0.8760265707576169  1.0000
  H   H31       1.0  0.11089468297632982  0.18635209187345228  0.3760287501947417  1.0000
  H   H32       1.0  0.8136374119381172  0.889108421404913  0.12397184196350251  1.0000
  H   H33       1.0  0.710072351396299  0.015422489413687497  0.6596837432574248  1.0000
  H   H34       1.0  0.9845890679713776  0.28994122318591997  0.8403083154658832  1.0000
  H   H35       1.0  0.2899284792031551  0.984578837037098  0.3403109082386138  1.0000
  H   H36       1.0  0.015406269893688306  0.7100771909231867  0.1596943833917521  1.0000
  H   H37       1.0  0.3645713448623055  0.10853450460206916  0.7892867308853583  1.0000
  H   H38       1.0  0.8914459481410545  0.6354416471784033  0.7107093010272508  1.0000
  H   H39       1.0  0.6354372913343126  0.891443011019227  0.2107102320109533  1.0000
  H   H40       1.0  0.10854717688509652  0.3645535377213136  0.2892917797731442  1.0000
  H   H41       1.0  0.23701385545438577  0.22952936856050585  0.7680664722771413  1.0000
  H   H42       1.0  0.770454975914575  0.7630005905952613  0.7319337121920739  1.0000
  H   H43       1.0  0.7629980191240621  0.7704538626156108  0.2319329148680467  1.0000
  H   H44       1.0  0.2295381651010402  0.23699611290270178  0.2680661905979491  1.0000
  H   H45       1.0  0.07233582491330282  0.19426393185151622  0.7414737906564426  1.0000
  H   H46       1.0  0.8057285057791077  0.9276768408515185  0.7585154855022084  1.0000
  H   H47       1.0  0.9276675364501941  0.8057316405194044  0.25852322084485735  1.0000
  H   H48       1.0  0.19426884930650354  0.07232153827659717  0.24148388540551483  1.0000
  H   H49       1.0  0.21001525011556768  0.8506885581249362  0.7904843597019707  1.0000
  H   H50       1.0  0.14930516099312288  0.7899826323300304  0.7095036464063968  1.0000
  H   H51       1.0  0.7899754390427488  0.14930571392042677  0.2095137723374378  1.0000
  H   H52       1.0  0.8506865352035008  0.21001664682869137  0.29048674136311103  1.0000
  H   H53       1.0  0.37359697149985754  0.9168301276865802  0.7979463831700926  1.0000
  H   H54       1.0  0.08315944236548493  0.6264021351258933  0.7020502308519738  1.0000
  H   H55       1.0  0.6263979891063373  0.08315761293932404  0.20205256621616746  1.0000
  H   H56       1.0  0.916827999001505  0.3735991842089914  0.2979405936782911  1.0000
  H   H57       1.0  0.7959053082008866  0.5634652576258005  0.308885109603068  1.0000
  H   H58       1.0  0.4365431805273873  0.20407999871074609  0.19111673503881124  1.0000
  H   H59       1.0  0.20409360750002042  0.4365299102660315  0.69111999547696  1.0000
  H   H60       1.0  0.563470445499327  0.7959024658843459  0.8088807294607179  1.0000
  H   H61       1.0  0.8073465495175683  0.456707518575847  0.46643324336721304  1.0000
  H   H62       1.0  0.5432926535431974  0.1926581858015908  0.033568076203366104  1.0000
  H   H63       1.0  0.1926428802071243  0.5433017794345217  0.5335732592475324  1.0000
  H   H64       1.0  0.4567071632209689  0.8073516503000203  0.9664290372907516  1.0000
  H   H65       1.0  0.5887019259804873  0.6264164181062809  0.3102523338750203  1.0000
  H   H66       1.0  0.3736041951126198  0.4112799734404005  0.18975665334328803  1.0000
  H   H67       1.0  0.41129528885304006  0.3735848260811493  0.6897507608079891  1.0000
  H   H68       1.0  0.6264083583459837  0.5887064342522021  0.8102471871726851  1.0000
  H   H69       1.0  0.6004428812706024  0.520598024419584  0.4688816443912814  1.0000
  H   H70       1.0  0.47941198946236346  0.3995587041585223  0.03112763162434361  1.0000
  H   H71       1.0  0.3995439475639984  0.47941846020030704  0.5311243601058564  1.0000
  H   H72       1.0  0.5205808834828646  0.600453508898795  0.9688752915404777  1.0000
  H   H73       1.0  0.41124304630905323  0.7630459409856628  0.3431956503849065  1.0000
  H   H74       1.0  0.23697290446579436  0.5887246604301524  0.15681741295760793  1.0000
  H   H75       1.0  0.5887524568926635  0.23696136873878965  0.6568058138883472  1.0000
  H   H76       1.0  0.7630421530029565  0.41125446382576314  0.84319034556124  1.0000
  H   H77       1.0  0.48244396484734153  0.4520984609453933  0.42840849523360464  1.0000
  H   H78       1.0  0.5479104633699379  0.5175518677459578  0.0716014362205968  1.0000
  H   H79       1.0  0.5175428802911101  0.5479165373519662  0.5715975473121446  1.0000
  H   H80       1.0  0.45209189618028495  0.48244020535127385  0.9284025215274883  1.0000
  H   H81       1.0  0.1540578105646091  0.6661103102984852  0.3672883147416215  1.0000
  H   H82       1.0  0.333871789233612  0.845937150512519  0.1327222790961287  1.0000
  H   H83       1.0  0.8459360488332239  0.3338978735927397  0.6327112723047676  1.0000
  H   H84       1.0  0.6661179565298526  0.15406119373323424  0.8672776691127027  1.0000
  C   C1        1.0  0.27567250401024523  0.19013939854264092  0.6676626848584917  1.0000
  C   C2        1.0  0.80986090745823  0.7243297315326346  0.8323353493927499  1.0000
  C   C3        1.0  0.7243309091917142  0.8098494638597699  0.3323352578360926  1.0000
  C   C4        1.0  0.19014220997626552  0.27568212583463486  0.16766352349728214  1.0000
  C   C5        1.0  0.31354078423403564  0.16912122362506207  0.617008137154059  1.0000
  C   C6        1.0  0.8308894344236534  0.6864619897217352  0.8829898769678978  1.0000
  C   C7        1.0  0.6864616744942397  0.8308747051399409  0.3829907856381994  1.0000
  C   C8        1.0  0.16912197121314423  0.31355307904437524  0.11701287199181111  1.0000
  C   C9        1.0  0.42573647659826014  0.08782957776183747  0.6048220803820074  1.0000
  C   C10       1.0  0.9121959702682858  0.574268243755668  0.8951709375977546  1.0000
  C   C11       1.0  0.5742685442441912  0.9121696439613418  0.395174414276788  1.0000
  C   C12       1.0  0.08781884075631301  0.4257512048627631  0.10482895383791663  1.0000
  C   C13       1.0  0.49867837138669563  0.029108774711019653  0.644311467968123  1.0000
  C   C14       1.0  0.9709133505588595  0.5013321833948509  0.8556816039546933  1.0000
  C   C15       1.0  0.5013266308537895  0.9708881744940782  0.3556866037126055  1.0000
  C   C16       1.0  0.0290963388498895  0.49868143322706976  0.1443227447363498  1.0000
  C   C17       1.0  0.46136475798471116  0.04884698820216465  0.6952993350342211  1.0000
  C   C18       1.0  0.9511663962341218  0.5386455849306273  0.8046937031936566  1.0000
  C   C19       1.0  0.5386395118678281  0.951143725772809  0.3046973992709782  1.0000
  C   C20       1.0  0.0488400626303331  0.46136457789597773  0.1953070242138324  1.0000
  C   C21       1.0  0.34840683318845583  0.1285741713141917  0.7068717474837529  1.0000
  C   C22       1.0  0.8714202977764529  0.6516071034656433  0.7931251077939763  1.0000
  C   C23       1.0  0.6515974532823279  0.8714120514174791  0.2931262409290484  1.0000
  C   C24       1.0  0.1285785383889078  0.3484022598001957  0.20687697591343127  1.0000
  C   C25       1.0  0.258722814102086  0.2625128274436577  0.5310440481427676  1.0000
  C   C26       1.0  0.7374953594887188  0.7412761773909224  0.9689540445504862  1.0000
  C   C27       1.0  0.7412795983271393  0.7374883142087607  0.4689543614920809  1.0000
  C   C28       1.0  0.2625145566020067  0.25873165531950076  0.0310447565262422  1.0000
  C   C29       1.0  0.07681316161051652  0.31992649820941915  0.5371162747019937  1.0000
  C   C30       1.0  0.6800723892235183  0.9231764950706703  0.9628823990804919  1.0000
  C   C31       1.0  0.92318696952308  0.6800626154454221  0.46287833157473557  1.0000
  C   C32       1.0  0.3199281794737416  0.07683283401682667  0.037118122944193  1.0000
  C   C33       1.0  0.11967677489890602  0.26624940904614647  0.5827000350988955  1.0000
  C   C34       1.0  0.7337424306643286  0.8803239119545121  0.9173047930360598  1.0000
  C   C35       1.0  0.8803308640806691  0.7337321249826729  0.4173006439030971  1.0000
  C   C36       1.0  0.26625616220081133  0.11969572646611933  0.08270158417806071  1.0000
  C   C37       1.0  0.6425585662430252  0.8440674125612727  0.6093748102668287  1.0000
  C   C38       1.0  0.15596067672979788  0.35743843873221687  0.8906148662636754  1.0000
  C   C39       1.0  0.35744050245811826  0.15593166479119694  0.390623359921122  1.0000
  C   C40       1.0  0.8440492073820068  0.6425663567817066  0.10938629083379682  1.0000
  C   C41       1.0  0.798445408964895  0.8450271858694831  0.6241281062643651  1.0000
  C   C42       1.0  0.15498392964427413  0.20155637949697788  0.8758657499977218  1.0000
  C   C43       1.0  0.20155370279400134  0.15497193451727748  0.3758685439745761  1.0000
  C   C44       1.0  0.8450124165166671  0.7984550220424043  0.124134068825974  1.0000
  C   C45       1.0  0.7107477795218317  0.9447158671184679  0.6419341876859974  1.0000
  C   C46       1.0  0.05528990036994232  0.2892684235671651  0.8580560140261613  1.0000
  C   C47       1.0  0.28925733851495744  0.055280446511098064  0.35806010314652076  1.0000
  C   C48       1.0  0.9447097220055557  0.7107472287216648  0.1419455071205178  1.0000
  C   C49       1.0  0.2991868851268649  0.1406672866469448  0.7607830396197741  1.0000
  C   C50       1.0  0.85931899471813  0.7008252480523396  0.7392134379256704  1.0000
  C   C51       1.0  0.7008208210518492  0.8593150658531526  0.23921496044714274  1.0000
  C   C52       1.0  0.14067497587976874  0.2991747825821349  0.2607855984136052  1.0000
  C   C53       1.0  0.13260918757333684  0.1087650220746497  0.7543840766714355  1.0000
  C   C54       1.0  0.8912223704442325  0.8674013879777079  0.7456066106377364  1.0000
  C   C55       1.0  0.867392552458334  0.8912224312178694  0.24561394580547366  1.0000
  C   C56       1.0  0.10877338943465278  0.1325964112703701  0.25438978112998717  1.0000
  C   C57       1.0  0.20656453525362656  0.9311712382169192  0.780317994121866  1.0000
  C   C58       1.0  0.06882052821699602  0.7934368051830843  0.7196708995942559  1.0000
  C   C59       1.0  0.7934287300246085  0.06882108162348287  0.2196793629032427  1.0000
  C   C60       1.0  0.9311703325435375  0.2065636488409979  0.28031872053114176  1.0000
  C   C61       1.0  0.288312202391424  0.9617329337209454  0.7842550766736667  1.0000
  C   C62       1.0  0.038255793742671095  0.7116929560200945  0.7157393860640652  1.0000
  C   C63       1.0  0.7116869778241793  0.03825498545400304  0.21574375886615374  1.0000
  C   C64       1.0  0.9617333289465437  0.28830902926343066  0.2842513777081876  1.0000
  C   C65       1.0  0.9398695409255565  0.4616289480318016  0.3845296147779039  1.0000
  C   C66       1.0  0.5383614975202136  0.06012803736010141  0.11546809255262502  1.0000
  C   C67       1.0  0.06012524452273029  0.5383608714578542  0.6154745973569506  1.0000
  C   C68       1.0  0.4616402200393993  0.9398684091775849  0.8845270417218175  1.0000
  C   C69       1.0  0.8144086067169597  0.5047798939272422  0.3872658741174533  1.0000
  C   C70       1.0  0.4952217192456843  0.18558790801713346  0.1127349440071441  1.0000
  C   C71       1.0  0.18558608644762842  0.4952173464164673  0.6127385277615788  1.0000
  C   C72       1.0  0.5047849750814564  0.8144097178951667  0.8872626869283168  1.0000
  C   C73       1.0  0.7517426596900735  0.5547910989695025  0.34368474830984047  1.0000
  C   C74       1.0  0.44521923304859  0.24824150939928552  0.1563190448190781  1.0000
  C   C75       1.0  0.24824947888347987  0.4452081150963139  0.6563196686089867  1.0000
  C   C76       1.0  0.5547917330408225  0.7517465801727851  0.8436806195222176  1.0000
  C   C77       1.0  0.7586871505870222  0.49353780657255447  0.432397292005291  1.0000
  C   C78       1.0  0.5064655751717667  0.24131264232149624  0.0676061403746431  1.0000
  C   C79       1.0  0.24130570145810992  0.5064683751260758  0.5676088232520087  1.0000
  C   C80       1.0  0.49353510963618424  0.7586930462697052  0.9323918168608146  1.0000
  C   C81       1.0  0.6364561375844958  0.5904852215053608  0.3446834316115286  1.0000
  C   C82       1.0  0.40952837107548856  0.3635315523947681  0.15532466138872542  1.0000
  C   C83       1.0  0.3635418963812711  0.4095163341392407  0.6553203926669795  1.0000
  C   C84       1.0  0.590480819424272  0.6364565283213466  0.8446780845842952  1.0000
  C   C85       1.0  0.643212111149701  0.5288841645772777  0.43349219266605843  1.0000
  C   C86       1.0  0.4711255018407812  0.35678560749465055  0.0665140880869757  1.0000
  C   C87       1.0  0.35677735055391213  0.47112817062959084  0.5665119539279431  1.0000
  C   C88       1.0  0.5288725830202736  0.6432182529437539  0.9334870192078457  1.0000
  C   C89       1.0  0.5808839929681041  0.5764431838179718  0.3894281397883291  1.0000
  C   C90       1.0  0.4235690460679821  0.41910609690287254  0.11058114763965683  1.0000
  C   C91       1.0  0.4191080507092338  0.4235626971820636  0.6105768658862303  1.0000
  C   C92       1.0  0.5764358514550311  0.5808884937155551  0.889421540961017  1.0000
  C   C93       1.0  0.46089044575968063  0.6061906732648764  0.387795009031926  1.0000
  C   C94       1.0  0.39382232636199893  0.5390951948676203  0.11221808769725783  1.0000
  C   C95       1.0  0.5391007380257805  0.39381861208430285  0.612209171925592  1.0000
  C   C96       1.0  0.6061850317990292  0.4608950742006002  0.8877888227963241  1.0000
  C   C97       1.0  0.38460256209627636  0.7041192450656268  0.3606123168870567  1.0000
  C   C98       1.0  0.2958950802802605  0.6153758406155845  0.1394027986843511  1.0000
  C   C99       1.0  0.6153903594461099  0.29589151394489493  0.6393895043646297  1.0000
  C   C100      1.0  0.7041164955064473  0.3846078432403104  0.8606068290923332  1.0000
  C   C101      1.0  0.4240245819593085  0.5314784930735568  0.4087982025866027  1.0000
  C   C102      1.0  0.46853329624767065  0.575970767837859  0.0912161162686616  1.0000
  C   C103      1.0  0.5759665043174352  0.46853670529000613  0.5912069661382091  1.0000
  C   C104      1.0  0.5314748781186796  0.4240220636884685  0.9087907067729901  1.0000
  C   C105      1.0  0.273834610146622  0.727416352670694  0.35358089613338  1.0000
  C   C106      1.0  0.2725879399333309  0.7261442040021818  0.14643397749963333  1.0000
  C   C107      1.0  0.7261574896510156  0.272593340962821  0.6464205945343693  1.0000
  C   C108      1.0  0.7274177369054656  0.2738453991174053  0.8535729937519676  1.0000
  C   C109      1.0  0.3138214213875159  0.553003941256179  0.4016826714327379  1.0000
  C   C110      1.0  0.4470013194549481  0.6861676729944434  0.0983318620998901  1.0000
  C   C111      1.0  0.6861629741917669  0.44701238442918617  0.5983199852918446  1.0000
  C   C112      1.0  0.5530026757472372  0.3138242690972887  0.9016739538507395  1.0000
  C   C113      1.0  0.23856513366148144  0.6512819001237203  0.37412995513673764  1.0000
  C   C114      1.0  0.34871356754403854  0.7614258279289031  0.1258839920053987  1.0000
  C   C115      1.0  0.7614294991983216  0.3487257982705357  0.6258722804657212  1.0000
  C   C116      1.0  0.6512870999195218  0.23856556846112628  0.8741204064879541  1.0000
  C   C117      1.0  0.28134836817631037  0.46487696936976863  0.4196065684780379  1.0000
  C   C118      1.0  0.535118837559672  0.7186556514293085  0.0804042973832964  1.0000
  C   C119      1.0  0.7186470945801631  0.535131051240235  0.5803960167326636  1.0000
  C   C120      1.0  0.46488011273265784  0.2813433075788437  0.9195980526644265  1.0000
  C   C121      1.0  0.20065656886903582  0.8294608978182009  0.3202719511106268  1.0000
  C   C122      1.0  0.17053938746835942  0.7993182518094033  0.17974082371319616  1.0000
  C   C123      1.0  0.7993373824981022  0.17054287013973368  0.6797262301326087  1.0000
  C   C124      1.0  0.8294596772653409  0.20066729802029937  0.8202630087338321  1.0000
  N   N1        1.0  0.16420597214066388  0.31681744004585977  0.5055515041178609  1.0000
  N   N2        1.0  0.683184684551577  0.8357851750031099  0.9944487636133275  1.0000
  N   N3        1.0  0.8357973435525777  0.6831773353709351  0.49444742634401  1.0000
  N   N4        1.0  0.3168141542263001  0.16422494218256378  0.005552921082518504  1.0000
  N   N5        1.0  0.23562074451946563  0.22921302501335816  0.5784149978654298  1.0000
  N   N6        1.0  0.7707928996657074  0.7643768479475171  0.921584686942346  1.0000
  N   N7        1.0  0.764385152518713  0.7707813060381453  0.42158235955901807  1.0000
  N   N8        1.0  0.22921772435719126  0.23563944947681384  0.0784153944369876  1.0000
  N   N9        1.0  0.7550946237646559  0.783175218714298  0.6044484726171717  1.0000
  N   N10       1.0  0.21683905817842938  0.2449058728022493  0.8955437805631236  1.0000
  N   N11       1.0  0.24490700767945128  0.21682114175479938  0.39554970155528946  1.0000
  N   N12       1.0  0.7831641381628173  0.7550977990325477  0.10445568158154832  1.0000
  N   N13       1.0  0.6123278250885208  0.9430729884470845  0.6320824272490244  1.0000
  N   N14       1.0  0.0569513660394492  0.38767948868879637  0.8679069579277155  1.0000
  N   N15       1.0  0.3876746871475448  0.056925999031562875  0.3679133795479927  1.0000
  N   N16       1.0  0.94305250332814  0.6123318616643513  0.1320953234928908  1.0000
  N   N17       1.0  0.11007114664204211  0.023605099474650594  0.7615965938856704  1.0000
  N   N18       1.0  0.9763888297415946  0.8899369781017515  0.7383904476601018  1.0000
  N   N19       1.0  0.8899280140284135  0.9763895619445362  0.2384001704991192  1.0000
  N   N20       1.0  0.023606148523384704  0.11006204980454729  0.2616032765272536  1.0000
  N   N21       1.0  0.23968778990516892  0.07461263574067793  0.7679349390522674  1.0000
  N   N22       1.0  0.9253761506997623  0.760320048184603  0.7320585362795882  1.0000
  N   N23       1.0  0.7603131013134642  0.9253752277387829  0.2320630947793418  1.0000
  N   N24       1.0  0.07461454566730201  0.23968249546181392  0.26793596660716196  1.0000
  O   O1        1.0  0.9873404600984659  0.47519575156447746  0.3440463215580608  1.0000
  O   O2        1.0  0.5248012598881786  0.01265603893613592  0.1559477611333833  1.0000
  O   O3        1.0  0.012653633092718103  0.5247901267302879  0.6559542162048331  1.0000
  O   O4        1.0  0.47520064359377295  0.9873383394963681  0.844041730405202  1.0000
  O   O5        1.0  0.9909786266550642  0.4095981136097676  0.4258456151203305  1.0000
  O   O6        1.0  0.5903811672918878  0.009025204331699399  0.07414670126521372  1.0000
  O   O7        1.0  0.009018701991045895  0.5903957312407544  0.5741565298440109  1.0000
  O   O8        1.0  0.40961718668010144  0.9909789250710473  0.925844906348303  1.0000
  O   O9        1.0  0.17532088270788654  0.4950397164803845  0.41463630942518404  1.0000
  O   O10       1.0  0.5049456100225598  0.8246856185613681  0.08537237959774302  1.0000
  O   O11       1.0  0.8246731521622337  0.5049633836263039  0.5853592309315943  1.0000
  O   O12       1.0  0.49504832535512117  0.17531663079832077  0.914626979655857  1.0000
  O   O13       1.0  0.35387779347396287  0.36882258088397174  0.4366567898552989  1.0000
  O   O14       1.0  0.6311728227217231  0.6461341486313187  0.06335164739267189  1.0000
  O   O15       1.0  0.6461098867861922  0.6311942474688053  0.5633488042755772  1.0000
  O   O16       1.0  0.3688252702912536  0.35386896864581974  0.9366494789264551  1.0000
  O   O17       1.0  0.23815700156015404  0.8941589869955633  0.3033244210119507  1.0000
  O   O18       1.0  0.1058425824105171  0.7618079623963537  0.1966886300379471  1.0000
  O   O19       1.0  0.7618336194558496  0.10584348134083381  0.6966727417855623  1.0000
  O   O20       1.0  0.8941598805022367  0.23817369568462954  0.8033159740377016  1.0000
  O   O21       1.0  0.10303753398023471  0.8425669877816874  0.30921635319815977  1.0000
  O   O22       1.0  0.1574177869334363  0.896941660733887  0.19079579285190112  1.0000
  O   O23       1.0  0.896959888618902  0.15742920489692835  0.6907815548334784  1.0000
  O   O24       1.0  0.8425728754709922  0.10305108195465339  0.8092038971851353  1.0000
