data_image0
_chemical_formula_structural       Al2H9C24S2ClO10F2
_chemical_formula_sum              "Al2 H9 C24 S2 Cl1 O10 F2"
_cell_length_a       6.654982694166177
_cell_length_b       12.787999588521801
_cell_length_c       17.71771835963653
_cell_angle_alpha    83.7795318087149
_cell_angle_beta     79.3430658559963
_cell_angle_gamma    73.80611565414172

_space_group_name_H-M_alt    "P 1"
_space_group_IT_number       1

loop_
  _space_group_symop_operation_xyz
  'x, y, z'

loop_
  _atom_site_type_symbol
  _atom_site_label
  _atom_site_symmetry_multiplicity
  _atom_site_fract_x
  _atom_site_fract_y
  _atom_site_fract_z
  _atom_site_occupancy
  Al  Al1       1.0  0.5027498681114366  0.49320995105237114  0.5005161909878024  1.0000
  Al  Al2       1.0  0.0007683891953931141  0.49631055053676226  0.500172534522612  1.0000
  H   H1        1.0  0.2680013516455446  0.39062934547040834  0.5767963827031222  1.0000
  H   H2        1.0  0.7088927075828335  0.6161956017935637  0.44221922091342236  1.0000
  H   H3        1.0  0.7199228510693911  0.4323921375631058  0.2695729137785463  1.0000
  H   H4        1.0  0.7830011908409418  0.4462319922599959  0.12558978179219338  1.0000
  H   H5        1.0  0.04618270483373282  0.5145375203072646  0.27048555815434117  1.0000
  H   H6        1.0  0.9525821352391974  0.4909377468855353  0.7318042170754423  1.0000
  H   H7        1.0  0.2808558030814936  0.5664008178464214  0.7300025046084854  1.0000
  H   H8        1.0  0.21227275214581462  0.5645808733240542  0.8737042750595874  1.0000
  H   H9        1.0  0.6222855702164978  0.14208549059195966  0.5525879904343682  1.0000
  C   C1        1.0  0.8610882698762338  0.29953834306793675  0.5060387580736858  1.0000
  C   C2        1.0  0.663153529449467  0.5173111623077059  0.637279976151234  1.0000
  C   C3        1.0  0.14623055543418675  0.6907149918956248  0.49306357717260596  1.0000
  C   C4        1.0  0.3402102496645583  0.4755225928818305  0.36412653582625143  1.0000
  C   C5        1.0  0.38035353065745875  0.4734182174223776  0.27862925370283875  1.0000
  C   C6        1.0  0.5877687374853411  0.45265487344843774  0.23762641337981444  1.0000
  C   C7        1.0  0.622771726653127  0.46007498976577915  0.1577789966100127  1.0000
  C   C8        1.0  0.4509590397191802  0.4888444135007645  0.11630896416583167  1.0000
  C   C9        1.0  0.24526390070836615  0.5058224541477471  0.15946755644554855  1.0000
  C   C10       1.0  0.2073431540400321  0.49874179083375475  0.23890980712693724  1.0000
  C   C11       1.0  0.48204693136528926  0.5023995140779292  0.035411942000756376  1.0000
  C   C12       1.0  0.5096365882458186  0.5154590102615799  0.9654154817892856  1.0000
  C   C13       1.0  0.5429202964412737  0.525357814344943  0.8844118656488859  1.0000
  C   C14       1.0  0.749539494060741  0.5071989543695422  0.8419489636057803  1.0000
  C   C15       1.0  0.790559393649815  0.5076928328763443  0.7626099052533774  1.0000
  C   C16       1.0  0.619985470672468  0.5272442258450596  0.7221932568260385  1.0000
  C   C17       1.0  0.4114931652438544  0.5500398181950387  0.7624050139626916  1.0000
  C   C18       1.0  0.37329802116973815  0.5494573153934253  0.8421223353456923  1.0000
  C   C19       1.0  0.22362073087982284  0.8798634049466685  0.46813832564450286  1.0000
  C   C20       1.0  0.7888442882236006  0.11197119960566232  0.5284594584645105  1.0000
  C   C21       1.0  0.09505202722790085  0.8098059949100784  0.49409737619519933  1.0000
  C   C22       1.0  0.9197704973684112  0.18020384368096382  0.5038417260959491  1.0000
  C   C23       1.0  0.9009651530691656  0.0020834890807251037  0.5169925585819539  1.0000
  C   C24       1.0  0.11393863441531252  0.9896111250894958  0.4821396696554245  1.0000
  S   S1        1.0  0.8392506358032181  0.8786881130912503  0.5338217407270134  1.0000
  S   S2        1.0  0.17847981756925443  0.11229328762760098  0.4659091123232599  1.0000
  Cl  Cl1       1.0  0.47891016725689184  0.8446496780362053  0.4207524129713818  1.0000
  O   O1        1.0  0.6641630206587549  0.3474390690646486  0.5224642739693904  1.0000
  O   O2        1.0  0.8573528557305535  0.4928152645350749  0.6052119865060134  1.0000
  O   O3        1.0  0.9899668509738863  0.647907209163918  0.507398716296194  1.0000
  O   O4        1.0  0.5007066096423569  0.4565193763814931  0.3981296457217097  1.0000
  O   O5        1.0  0.3411827954673968  0.6393063290182538  0.47837422245019917  1.0000
  O   O6        1.0  0.14664663001374834  0.500244423403501  0.3965770528194952  1.0000
  O   O7        1.0  0.012135019035554348  0.34566783452463307  0.491613451264868  1.0000
  O   O8        1.0  0.5037012922874453  0.5303473446923802  0.6035280980755997  1.0000
  O   O9        1.0  0.2559476247138761  0.45050524420236115  0.5380855331156906  1.0000
  O   O10       1.0  0.7446789620841371  0.541183408085267  0.46308577076678864  1.0000
  F   F1        1.0  0.077451925130589  0.5321007937736723  0.12076138165739539  1.0000
  F   F2        1.0  0.9154482104719078  0.4857334944326085  0.8813000560955044  1.0000
