data_image0
_chemical_formula_structural       Fe6H6C30O30
_chemical_formula_sum              "Fe6 H6 C30 O30"
_cell_length_a       6.644295537343527
_cell_length_b       15.300868051028703
_cell_length_c       15.405352555560277
_cell_angle_alpha    117.89964057668459
_cell_angle_beta     98.20620600056958
_cell_angle_gamma    98.36435232808974

_space_group_name_H-M_alt    "P 1"
_space_group_IT_number       1

loop_
  _space_group_symop_operation_xyz
  'x, y, z'

loop_
  _atom_site_type_symbol
  _atom_site_label
  _atom_site_symmetry_multiplicity
  _atom_site_fract_x
  _atom_site_fract_y
  _atom_site_fract_z
  _atom_site_occupancy
  Fe  Fe1       1.0  0.5223486421525435  0.4010783676980905  0.7258063915672962  1.0000
  Fe  Fe2       1.0  0.796860116884581  0.276106077323746  0.6758371081417778  1.0000
  Fe  Fe3       1.0  0.12288678805970926  0.3266716054795678  0.601964962953943  1.0000
  Fe  Fe4       1.0  0.47819984522018194  0.5987353718354952  0.27413122594976613  1.0000
  Fe  Fe5       1.0  0.2036742352703485  0.7240343480243892  0.32411793904992686  1.0000
  Fe  Fe6       1.0  0.8773577794216438  0.6733854040631613  0.3980409379287551  1.0000
  H   H1        1.0  0.18076299477800006  0.5377562355939529  0.5600412366566516  1.0000
  H   H2        1.0  0.6205104291715103  0.439541067187477  0.9770202701938971  1.0000
  H   H3        1.0  0.6439762848625251  0.023484252809041095  0.4630989185245297  1.0000
  H   H4        1.0  0.8191959134177226  0.4620885274420913  0.4399558159852218  1.0000
  H   H5        1.0  0.38011103827111725  0.5601264958785348  0.02303772807313456  1.0000
  H   H6        1.0  0.3564502821420704  0.9765879918126072  0.5366817559812702  1.0000
  C   C1        1.0  0.769130656483924  0.4042384810703722  0.5718955139613726  1.0000
  C   C2        1.0  0.19814012418003565  0.430401738800377  0.8329697842249786  1.0000
  C   C3        1.0  0.3655082496647211  0.1682345888012762  0.598044028541679  1.0000
  C   C4        1.0  0.23143646472216522  0.5960575073387274  0.4283619121069862  1.0000
  C   C5        1.0  0.8027110750224722  0.5692346477583212  0.1670599839085227  1.0000
  C   C6        1.0  0.6349161170230673  0.8319084430743755  0.40155913141799726  1.0000
  C   C7        1.0  0.6256221014330379  0.45168753301605574  0.5367051068734696  1.0000
  C   C8        1.0  0.08962554633266258  0.46435668720230433  0.9153608053097528  1.0000
  C   C9        1.0  0.17441321282665004  0.08527839350668388  0.5494470282476414  1.0000
  C   C10       1.0  0.3744696348664646  0.5482799740630994  0.46335182154709303  1.0000
  C   C11       1.0  0.9110624205646334  0.5352805722750417  0.08462571540428603  1.0000
  C   C12       1.0  0.8260203559462627  0.9148594317340083  0.45035748476220056  1.0000
  C   C13       1.0  0.44048833295129  0.4729552299507489  0.5721874524574773  1.0000
  C   C14       1.0  0.8686014381713677  0.42881646878794294  0.900721662727335  1.0000
  C   C15       1.0  0.9683418029189499  0.10008159207943378  0.5287229745308224  1.0000
  C   C16       1.0  0.5596408160006021  0.5270236716679476  0.427889531115312  1.0000
  C   C17       1.0  0.13199708333357318  0.5709139644285698  0.09924857023216302  1.0000
  C   C18       1.0  0.032061985317639576  0.9000323887627883  0.47113732427649063  1.0000
  C   C19       1.0  0.3218083455726982  0.5212837852807722  0.5340519498850184  1.0000
  C   C20       1.0  0.7877583405351132  0.4656940836433278  0.9868388919381912  1.0000
  C   C21       1.0  0.8011149370541447  0.013426530123240398  0.4791441370850436  1.0000
  C   C22       1.0  0.67820140786381  0.47861971776644907  0.4659614494782005  1.0000
  C   C23       1.0  0.21284558680284255  0.5339844010794081  0.013143212100935376  1.0000
  C   C24       1.0  0.19932550537143365  0.9867020238336648  0.5206961022270421  1.0000
  C   C25       1.0  0.749547451277664  0.6490835569424576  0.9190507044991635  1.0000
  C   C26       1.0  0.8293442474617978  0.08287003375426137  0.7306107756575954  1.0000
  C   C27       1.0  0.1006500085734956  0.26895784281370533  0.3542754120683611  1.0000
  C   C28       1.0  0.25082105560097295  0.35149883581760116  0.08238206314629078  1.0000
  C   C29       1.0  0.16725822891960024  0.9167865471349046  0.269586836393586  1.0000
  C   C30       1.0  0.8978943132672016  0.7309588154824735  0.6443835899513174  1.0000
  O   O1        1.0  0.7480686781188836  0.39412709853453254  0.649697293351359  1.0000
  O   O2        1.0  0.0989097041254468  0.3529223857425449  0.7448201300467119  1.0000
  O   O3        1.0  0.3552147028172712  0.2571760634353737  0.6094123720757167  1.0000
  O   O4        1.0  0.2534664066443001  0.606755545408376  0.3509853386100801  1.0000
  O   O5        1.0  0.902087323584212  0.6465765053856528  0.2552426935805698  1.0000
  O   O6        1.0  0.6454904626781542  0.7428970787295197  0.3898492309526702  1.0000
  O   O7        1.0  0.917287495747658  0.3750897863181777  0.530245693917152  1.0000
  O   O8        1.0  0.38799324674765506  0.47260895651245943  0.8457713177636775  1.0000
  O   O9        1.0  0.5422654536653511  0.15512538342254348  0.6268557673497669  1.0000
  O   O10       1.0  0.08297877724586313  0.6250280151487075  0.46985157576594366  1.0000
  O   O11       1.0  0.612739381645156  0.5271808478855888  0.15426183181271821  1.0000
  O   O12       1.0  0.45807992735733905  0.8450750806449676  0.37293195770996596  1.0000
  O   O13       1.0  0.37193034126858754  0.4483804426660284  0.6377385438873729  1.0000
  O   O14       1.0  0.7343953078493329  0.3642739204792205  0.8106058366408462  1.0000
  O   O15       1.0  0.924738557788132  0.19091502078703826  0.5547801548704072  1.0000
  O   O16       1.0  0.6283981078733448  0.5516577947848232  0.3624159386767759  1.0000
  O   O17       1.0  0.26613598987983533  0.6355932280677904  0.18934060082730045  1.0000
  O   O18       1.0  0.07560671137978392  0.8091957882711679  0.4451151331845223  1.0000
  O   O19       1.0  0.7376751042083355  0.704217049572399  0.0015428323448673557  1.0000
  O   O20       1.0  0.7338261132433956  0.00027095000551470084  0.704209188589921  1.0000
  O   O21       1.0  0.03206918989285163  0.2947058580456883  0.29787495227560606  1.0000
  O   O22       1.0  0.26267281748945953  0.2958140638739976  6.329947742506594e-05  1.0000
  O   O23       1.0  0.2608621612335753  0.9997119927304253  0.2960153531097092  1.0000
  O   O24       1.0  0.9676645900918147  0.705504034004022  0.7008169410017473  1.0000
  O   O25       1.0  0.7642637748872473  0.5952878297591296  0.8362715162508181  1.0000
  O   O26       1.0  0.9279327934093119  0.16577312216985968  0.7585817478409851  1.0000
  O   O27       1.0  0.17072482424946142  0.24158797590346373  0.4093942853669362  1.0000
  O   O28       1.0  0.2362080970122165  0.4058927546029735  0.1650263823065146  1.0000
  O   O29       1.0  0.07058200765985147  0.8335295951863413  0.24159483687088829  1.0000
  O   O30       1.0  0.826630738111753  0.7580294693168736  0.5891907877755855  1.0000
