data_image0
_chemical_formula_structural       La2H22C30O18
_chemical_formula_sum              "La2 H22 C30 O18"
_cell_length_a       9.31393730480709
_cell_length_b       10.01803502321298
_cell_length_c       11.24051230185494
_cell_angle_alpha    92.0081376547275
_cell_angle_beta     98.18134220469005
_cell_angle_gamma    110.08043772887063

_space_group_name_H-M_alt    "P 1"
_space_group_IT_number       1

loop_
  _space_group_symop_operation_xyz
  'x, y, z'

loop_
  _atom_site_type_symbol
  _atom_site_label
  _atom_site_symmetry_multiplicity
  _atom_site_fract_x
  _atom_site_fract_y
  _atom_site_fract_z
  _atom_site_occupancy
  La  La1       1.0  0.2862772055090447  0.04565525482276201  0.9848113987021065  1.0000
  La  La2       1.0  0.713723469735662  0.9543443567016042  0.015189066406243486  1.0000
  H   H1        1.0  0.3266375749036783  0.48668140476420524  0.03219337407653461  1.0000
  H   H2        1.0  0.67336636197512  0.5133181802406669  0.9678101290495887  1.0000
  H   H3        1.0  0.19138289560918062  0.7956484421805003  0.22143351591005003  1.0000
  H   H4        1.0  0.808617779635526  0.20435116934386607  0.7785669491983  1.0000
  H   H5        1.0  0.8933959917007714  0.35332794845786714  0.16657642360397065  1.0000
  H   H6        1.0  0.10660644992513821  0.6466705782630913  0.8334259779747413  1.0000
  H   H7        1.0  0.1765711660513531  0.5908115961045725  0.4211690277918835  1.0000
  H   H8        1.0  0.8234221823369126  0.4091858896288159  0.5788296315868351  1.0000
  H   H9        1.0  0.27729436456137796  0.7241715644174749  0.623165673029348  1.0000
  H   H10       1.0  0.7226996579988099  0.27582486318532773  0.37683213092492457  1.0000
  H   H11       1.0  0.9162743924774831  0.9035667857379651  0.5752401216387141  1.0000
  H   H12       1.0  0.08372384471304883  0.09643495980390072  0.42476015203483536  1.0000
  H   H13       1.0  0.8152110285861411  0.7700746648864937  0.37009283729909015  1.0000
  H   H14       1.0  0.18478585276366036  0.22992922366602642  0.6299064783900263  1.0000
  H   H15       1.0  0.5809142213699873  0.18227447321869764  0.1937817565056434  1.0000
  H   H16       1.0  0.419085371661268  0.817725129312507  0.8062194751523393  1.0000
  H   H17       1.0  0.08299774043650394  0.0263378016964921  0.21337257910508364  1.0000
  H   H18       1.0  0.917000623472277  0.9736586172964724  0.7866266067062214  1.0000
  H   H19       1.0  0.532737658413737  0.31446613248559885  0.1558856289152004  1.0000
  H   H20       1.0  0.46725636414645794  0.6855302951172035  0.8441121750390651  1.0000
  H   H21       1.0  0.26354501790050483  0.11664868003864373  0.24677412215960712  1.0000
  H   H22       1.0  0.7364530773789114  0.8833498731251485  0.7532251183398487  1.0000
  C   C1        1.0  0.0700692191214287  0.25831017079062957  0.0351903652449579  1.0000
  C   C2        1.0  0.9299362080123432  0.7416904903311449  0.9648124602063534  1.0000
  C   C3        1.0  0.10555700369560134  0.4058963653667079  0.09161486729097132  1.0000
  C   C4        1.0  0.8944473337278469  0.5941043135114015  0.9083860558766403  1.0000
  C   C5        1.0  0.24478970023946545  0.5128989623959799  0.0801162604342878  1.0000
  C   C6        1.0  0.7552135524715811  0.4871017164054623  0.9198845396718413  1.0000
  C   C7        1.0  0.2751590517280108  0.6533453829146155  0.12540200105652133  1.0000
  C   C8        1.0  0.7248431137716693  0.34665530472666023  0.8745977863770095  1.0000
  C   C9        1.0  0.41965929690911  0.7660306101305282  0.10248570709567421  1.0000
  C   C10       1.0  0.5803432841289577  0.2339711178850053  0.8975168380460161  1.0000
  C   C11       1.0  0.17018327257606106  0.6859334455050502  0.187939343733639  1.0000
  C   C12       1.0  0.8298184873810541  0.31406616609598365  0.8120612444361867  1.0000
  C   C13       1.0  0.03692083867307625  0.5756342393936508  0.20623640940810622  1.0000
  C   C14       1.0  0.9630798340726728  0.42436538104721694  0.7937631660891286  1.0000
  C   C15       1.0  0.0009590032933673084  0.4369139893046922  0.1559126567236575  1.0000
  C   C16       1.0  0.9990431672042278  0.5630866805035881  0.8440889099321041  1.0000
  C   C17       1.0  0.990849993194438  0.6744993402396703  0.3842394984530912  1.0000
  C   C18       1.0  0.009147838453522189  0.3255013292619537  0.6157615759567534  1.0000
  C   C19       1.0  0.12015259675349912  0.659630985162302  0.4552034472467099  1.0000
  C   C20       1.0  0.8798441376872791  0.34036972884513983  0.544793056046089  1.0000
  C   C21       1.0  0.17583194476653574  0.7342317823648444  0.5683613963156304  1.0000
  C   C22       1.0  0.824167232726332  0.2657667797921092  0.43163707763419984  1.0000
  C   C23       1.0  0.10355397424658731  0.8232106964832159  0.6126849151235021  1.0000
  C   C24       1.0  0.8964441185338717  0.17678786559707052  0.38731343576483823  1.0000
  C   C25       1.0  0.16859737210766224  0.9078615969658945  0.7310785014888596  1.0000
  C   C26       1.0  0.8313996384593454  0.09213695612123021  0.2689206159491206  1.0000
  C   C27       1.0  0.9711676541335097  0.8329916923296211  0.5417303949303546  1.0000
  C   C28       1.0  0.028831662771516206  0.16701007112190783  0.4582682225824469  1.0000
  C   C29       1.0  0.9141446647661766  0.7591920157165645  0.427936854315135  1.0000
  C   C30       1.0  0.08585248271403148  0.24080974758163623  0.5720615170747081  1.0000
  O   O1        1.0  0.9334832705105219  0.16925005744797522  0.027752289062519347  1.0000
  O   O2        1.0  0.06652309192767804  0.8307474381218827  0.9722469574428416  1.0000
  O   O3        1.0  0.1796498641445154  0.23019495404179935  0.9973697563482632  1.0000
  O   O4        1.0  0.8203605837068154  0.7698131949325174  0.002632158127511295  1.0000
  O   O5        1.0  0.5402218838209693  0.7348585472142661  0.101510954693147  1.0000
  O   O6        1.0  0.4597806972171058  0.2651431808012605  0.8984915904485505  1.0000
  O   O7        1.0  0.4183085887115753  0.8910709696112705  0.07991815098215939  1.0000
  O   O8        1.0  0.5816894965720181  0.10892761921850543  0.9200775310728418  1.0000
  O   O9        1.0  0.9318699317831546  0.6040368633723929  0.2707298795568391  1.0000
  O   O10       1.0  0.06812748432641774  0.39596276575497324  0.729268437144846  1.0000
  O   O11       1.0  0.28889376283344603  0.8955713894210363  0.7950666174617995  1.0000
  O   O12       1.0  0.7111029816031478  0.10442928892042151  0.20493344427544713  1.0000
  O   O13       1.0  0.10746653257395868  0.9935067158413701  0.7706688121932928  1.0000
  O   O14       1.0  0.8925315652044149  0.006491828405920302  0.2293313179172785  1.0000
  O   O15       1.0  0.4904378778166959  0.21457572678708914  0.17114973283025853  1.0000
  O   O16       1.0  0.5095598169180634  0.7854217325034656  0.8288520876277161  1.0000
  O   O17       1.0  0.18799945667916526  0.03336789986281021  0.1977636278580803  1.0000
  O   O18       1.0  0.8119993152711374  0.9666295862538947  0.8022356468280449  1.0000
