data_image0
_chemical_formula_structural       Zn12H24C24O48
_chemical_formula_sum              "Zn12 H24 C24 O48"
_cell_length_a       7.701085104360943
_cell_length_b       12.608807763360872
_cell_length_c       13.669698426000545
_cell_angle_alpha    90.0000315626773
_cell_angle_beta     90.00000089679972
_cell_angle_gamma    101.3680784114051

_space_group_name_H-M_alt    "P 1"
_space_group_IT_number       1

loop_
  _space_group_symop_operation_xyz
  'x, y, z'

loop_
  _atom_site_type_symbol
  _atom_site_label
  _atom_site_symmetry_multiplicity
  _atom_site_fract_x
  _atom_site_fract_y
  _atom_site_fract_z
  _atom_site_occupancy
  Zn  Zn1       1.0  0.4995815660575432  0.10325023696299948  0.5116682291818151  1.0000
  Zn  Zn2       1.0  0.5004183127546045  0.89674815919512  0.011668373503411497  1.0000
  Zn  Zn3       1.0  0.8019600594464296  0.9984640462326977  0.6169070636941143  1.0000
  Zn  Zn4       1.0  0.19803933223425227  0.0015368432609364  0.11690748154295247  1.0000
  Zn  Zn5       1.0  0.09374995162819748  0.9245979806390137  0.49566149960664757  1.0000
  Zn  Zn6       1.0  0.9062487408016225  0.07540071836509549  0.9956613444453521  1.0000
  Zn  Zn7       1.0  0.2694790353377172  0.4257721145164409  0.2622904605639818  1.0000
  Zn  Zn8       1.0  0.7305211636875271  0.5742272470422661  0.7622890947068796  1.0000
  Zn  Zn9       1.0  0.6310955234535245  0.5233227831589105  0.3766997409148232  1.0000
  Zn  Zn10      1.0  0.3689049642939963  0.4766774587795695  0.8766997855452843  1.0000
  Zn  Zn11      1.0  0.016030930485079947  0.4150522542027844  0.7454313275169467  1.0000
  Zn  Zn12      1.0  0.9839692646426458  0.5849470968331757  0.24543131713623717  1.0000
  H   H1        1.0  0.6754790007399124  0.29228533839029314  0.6368253916880704  1.0000
  H   H2        1.0  0.3245201332739  0.7077147545688187  0.1368254383759933  1.0000
  H   H3        1.0  0.4777410296370875  0.7954760189708949  0.6256584839612813  1.0000
  H   H4        1.0  0.5222596623438635  0.20452487523926519  0.1256590077595945  1.0000
  H   H5        1.0  0.26284571465596684  0.24857918422999598  0.4208908419175188  1.0000
  H   H6        1.0  0.7371521867540451  0.7514210867835869  0.9208902978269009  1.0000
  H   H7        1.0  0.8792061214695581  0.0450781754637148  0.3201336320407719  1.0000
  H   H8        1.0  0.12079279265159228  0.9549212229459627  0.8201331864539868  1.0000
  H   H9        1.0  0.4260846653222856  0.0915326838769204  0.2977139813465683  1.0000
  H   H10       1.0  0.5739158041644999  0.9084675087601043  0.7977142473786215  1.0000
  H   H11       1.0  0.9558868908488595  0.7110619301826303  0.6309329041377225  1.0000
  H   H12       1.0  0.0441109435257161  0.28893815984465476  0.13093346697340988  1.0000
  H   H13       1.0  0.1414977447020362  0.15690718333230794  0.7114239283545627  1.0000
  H   H14       1.0  0.8585029671070288  0.8430937644110016  0.21142404830667513  1.0000
  H   H15       1.0  0.25720826004921093  0.705221788791725  0.41325948028379855  1.0000
  H   H16       1.0  0.7427906756018103  0.29477766774559205  0.913259435415803  1.0000
  H   H17       1.0  0.05485888821628044  0.5389970780241525  0.0205250963818102  1.0000
  H   H18       1.0  0.9451428154640099  0.46100294085038473  0.5205251377574314  1.0000
  H   H19       1.0  0.5409410423501058  0.4961484903572497  0.0825842473415506  1.0000
  H   H20       1.0  0.45906041340583664  0.5038507582862265  0.5825835749933717  1.0000
  H   H21       1.0  0.7874264406300783  0.29797133403684484  0.3828190584283034  1.0000
  H   H22       1.0  0.21257118970641642  0.7020281042461531  0.8828192164506277  1.0000
  H   H23       1.0  0.7591094708219831  0.7710326590938623  0.4295268660056165  1.0000
  H   H24       1.0  0.24088973086157492  0.2289676165641055  0.929526051991864  1.0000
  C   C1        1.0  0.7724195824261247  0.23844596145855948  0.6415475015813284  1.0000
  C   C2        1.0  0.22757929040764696  0.7615533254809607  0.14154757487163747  1.0000
  C   C3        1.0  0.4213474114817971  0.860119702009868  0.590280982332757  1.0000
  C   C4        1.0  0.5786532723201179  0.1398811701180378  0.09028074215331829  1.0000
  C   C5        1.0  0.3974075938177819  0.29913402888698926  0.42527061545015227  1.0000
  C   C6        1.0  0.6025913446100335  0.700865435147307  0.9252700445313451  1.0000
  C   C7        1.0  0.8059307719512818  0.04348831079192911  0.3900400747863912  1.0000
  C   C8        1.0  0.19406971888034988  0.9565119394732023  0.8900396306092162  1.0000
  C   C9        1.0  0.3017698658913944  0.0411434939944328  0.3246765233353343  1.0000
  C   C10       1.0  0.6982300852854453  0.9588550975382404  0.8246775475717383  1.0000
  C   C11       1.0  0.8496111939208577  0.7575234760059999  0.6408453507345016  1.0000
  C   C12       1.0  0.15038794102239453  0.2424766194624581  0.1408458907983956  1.0000
  C   C13       1.0  0.19595167355181084  0.11537460667187098  0.6511065668659839  1.0000
  C   C14       1.0  0.8040487620406934  0.8846254944553421  0.15110670750610206  1.0000
  C   C15       1.0  0.31517841676848973  0.6366974610963113  0.3875244403349923  1.0000
  C   C16       1.0  0.6848207752045852  0.3633027883447326  0.887524429861699  1.0000
  C   C17       1.0  0.14967044057306816  0.5004593527653041  0.06154062238704228  1.0000
  C   C18       1.0  0.8503299743126153  0.49954069245639954  0.5615406825962594  1.0000
  C   C19       1.0  0.6200767048739453  0.5200998544989589  0.1490473147349292  1.0000
  C   C20       1.0  0.37992710052988343  0.47989862517054155  0.6490466295502271  1.0000
  C   C21       1.0  0.8889276775171313  0.3584981199330172  0.3452659414679928  1.0000
  C   C22       1.0  0.11107020640918826  0.6415021038770377  0.8452660678590647  1.0000
  C   C23       1.0  0.8706705595220472  0.7454797162772026  0.3916408741946569  1.0000
  C   C24       1.0  0.1293301939514677  0.25452134395430187  0.8916408038150293  1.0000
  O   O1        1.0  0.7264316272027926  0.1462507480357615  0.5995772762441689  1.0000
  O   O2        1.0  0.273567498199526  0.8537493216735329  0.09957666528114117  1.0000
  O   O3        1.0  0.9168764348619335  0.2675616029878469  0.6850605397492017  1.0000
  O   O4        1.0  0.08312271030339254  0.7324385200788014  0.18506059704027678  1.0000
  O   O5        1.0  0.5274497219931507  0.9516322538722902  0.5794095153006111  1.0000
  O   O6        1.0  0.4725509592953685  0.04836861146981869  0.0794092276845149  1.0000
  O   O7        1.0  0.26166532222188726  0.8380529481214154  0.5644186644766478  1.0000
  O   O8        1.0  0.7383353556009808  0.16194790786391172  0.0644191683795086  1.0000
  O   O9        1.0  0.5217636832911838  0.2636822933921649  0.46444338042090283  1.0000
  O   O10       1.0  0.4782365624701087  0.7363171943473218  0.964443558068325  1.0000
  O   O11       1.0  0.4146388146544241  0.3939494821592718  0.38791941329811397  1.0000
  O   O12       1.0  0.585358816861138  0.6060499593070361  0.8879187939900672  1.0000
  O   O13       1.0  0.672681016155778  0.08739074074537712  0.39214986128876456  1.0000
  O   O14       1.0  0.32731947516360566  0.9126095108366313  0.8921493958630364  1.0000
  O   O15       1.0  0.8652919241680765  0.9964549782129449  0.4619051070005468  1.0000
  O   O16       1.0  0.13470728500100654  0.0035453176549112  0.9619041774078027  1.0000
  O   O17       1.0  0.2887379831322506  0.0310985322650268  0.4185439902205771  1.0000
  O   O18       1.0  0.711262252017541  0.968900926824908  0.9185442881304481  1.0000
  O   O19       1.0  0.18327462256733185  0.9971955344519969  0.26669450670362943  1.0000
  O   O20       1.0  0.8167255774762271  0.0028038298560062003  0.7666943138668144  1.0000
  O   O21       1.0  0.8738810851030223  0.8486202232161233  0.5972021288275967  1.0000
  O   O22       1.0  0.12611830202198604  0.15138065397782438  0.0972018907920642  1.0000
  O   O23       1.0  0.7157968090447753  0.7191551510950942  0.6922941711213325  1.0000
  O   O24       1.0  0.284203636069961  0.28084497574082684  0.1922947318058306  1.0000
  O   O25       1.0  0.08588420865346082  0.04042129324852081  0.6080397596472051  1.0000
  O   O26       1.0  0.9141175152594061  0.9595787802511707  0.1080399393300837  1.0000
  O   O27       1.0  0.35673340232949613  0.14515079722354324  0.6298786013036448  1.0000
  O   O28       1.0  0.6432670283552113  0.8548492906533127  0.12987799392940497  1.0000
  O   O29       1.0  0.21920720161539722  0.5709146748003561  0.3280307917684624  1.0000
  O   O30       1.0  0.7807932748802318  0.4290855367595795  0.8280300840108623  1.0000
  O   O31       1.0  0.46622301345377803  0.6295228087995356  0.4184117335544215  1.0000
  O   O32       1.0  0.5337761856601518  0.37047745992080644  0.9184117254945007  1.0000
  O   O33       1.0  0.12359327953389253  0.49132648012614766  0.1541359326367555  1.0000
  O   O34       1.0  0.8764084550358789  0.5086736221457002  0.6541352661619938  1.0000
  O   O35       1.0  0.2725779159708992  0.4670198908485047  0.018803753495440396  1.0000
  O   O36       1.0  0.7274235250396759  0.5329793179845411  0.5188038297135263  1.0000
  O   O37       1.0  0.5333679971286786  0.5080517738525643  0.23031976995807918  1.0000
  O   O38       1.0  0.46663479105941974  0.4919475662590643  0.7303198231598812  1.0000
  O   O39       1.0  0.7830804463244619  0.5560208305662185  0.13972158844852337  1.0000
  O   O40       1.0  0.21691946209242025  0.44397764552051905  0.6397216151944461  1.0000
  O   O41       1.0  0.8447819958662776  0.44922881808447085  0.3250965362390942  1.0000
  O   O42       1.0  0.15521691940230656  0.5507705834231302  0.8250966168221934  1.0000
  O   O43       1.0  0.035334900175279  0.33375867840337736  0.3259582635939182  1.0000
  O   O44       1.0  0.9646637530206944  0.6662399146748257  0.8259576780222702  1.0000
  O   O45       1.0  0.8312410728559814  0.6590109035177392  0.34046196145317953  1.0000
  O   O46       1.0  0.16875966878544804  0.34099012476880114  0.840461935397357  1.0000
  O   O47       1.0  0.025546120527863574  0.7997295851586017  0.3998261419209185  1.0000
  O   O48       1.0  0.9744530742891586  0.20027067196068774  0.8998253193146721  1.0000
