data_image0
_chemical_formula_structural       Ni6H6C24O18
_chemical_formula_sum              "Ni6 H6 C24 O18"
_cell_length_a       6.800315890402236
_cell_length_b       15.296161373508616
_cell_length_c       15.29597122251325
_cell_angle_alpha    117.85184025204272
_cell_angle_beta     98.52474835912918
_cell_angle_gamma    98.52398697187606

_space_group_name_H-M_alt    "P 1"
_space_group_IT_number       1

loop_
  _space_group_symop_operation_xyz
  'x, y, z'

loop_
  _atom_site_type_symbol
  _atom_site_label
  _atom_site_symmetry_multiplicity
  _atom_site_fract_x
  _atom_site_fract_y
  _atom_site_fract_z
  _atom_site_occupancy
  Ni  Ni1       1.0  0.8276341424296306  0.41672437378236526  0.6955447093184048  1.0000
  Ni  Ni2       1.0  0.4110513986742177  0.2788506583820477  0.583180794698343  1.0000
  Ni  Ni3       1.0  0.13216775054046784  0.3044869895219903  0.7210533989982791  1.0000
  Ni  Ni4       1.0  0.13216074405692502  0.7210658486268497  0.3044912985431266  1.0000
  Ni  Ni5       1.0  0.4110372377491841  0.5831831628202762  0.2788555816651763  1.0000
  Ni  Ni6       1.0  0.8276365992387155  0.6955457881648426  0.41672761036450356  1.0000
  H   H1        1.0  0.7249065038436345  0.4708133671131731  0.4708132859904097  1.0000
  H   H2        1.0  0.253987265311025  0.999959878945752  0.529184800286032  1.0000
  H   H3        1.0  0.25397364580344106  0.5291889421870477  0.9999622812407336  1.0000
  H   H4        1.0  0.09075036060018939  0.5640225332168993  0.564021696507524  1.0000
  H   H5        1.0  0.5266052194968509  8.51480825403e-05  0.43579756733896596  1.0000
  H   H6        1.0  0.5265959427518324  0.4358146908232924  9.992677791360074e-05  1.0000
  C   C1        1.0  0.49706743583811164  0.45454218615157743  0.5491213859711479  1.0000
  C   C2        1.0  0.042505074115332796  0.0946083258246802  0.5454399803084513  1.0000
  C   C3        1.0  0.9477163763459089  0.4509141621871037  0.9054309303434919  1.0000
  C   C4        1.0  0.9477320036332915  0.9054310633138413  0.4509156397874178  1.0000
  C   C5        1.0  0.04249316049839529  0.5454424032580574  0.09460978928625954  1.0000
  C   C6        1.0  0.49709152787593774  0.5491170937625113  0.45454778484138086  1.0000
  C   C7        1.0  0.5867930198094485  0.49260800987063647  0.4926110750280799  1.0000
  C   C8        1.0  0.09406866563995897  0.999994017000432  0.5074291126918808  1.0000
  C   C9        1.0  0.09405095711193197  0.5074230532061035  0.9999892598604986  1.0000
  C   C10       1.0  0.3124850692272432  0.4826167954504541  0.5764662557511997  1.0000
  C   C11       1.0  0.8297910764120786  0.09389135093274349  0.5172864182142547  1.0000
  C   C12       1.0  0.7357324086965066  0.423562024914986  0.9061867220396137  1.0000
  C   C13       1.0  0.7357082237628988  0.9061775315288614  0.42355989255822385  1.0000
  C   C14       1.0  0.8297472105484617  0.517300798514796  0.0939036205273353  1.0000
  C   C15       1.0  0.31245965123645897  0.5764658234976421  0.48261867498978717  1.0000
  C   C16       1.0  0.18991363168736086  0.445270631315786  0.6288441952160042  1.0000
  C   C17       1.0  0.7446016580214164  0.18364253592256563  0.5546446592259784  1.0000
  C   C18       1.0  0.5607617629164139  0.3712271965340505  0.8163969868692291  1.0000
  C   C19       1.0  0.5607648666702474  0.8163916332799274  0.3712270606979828  1.0000
  C   C20       1.0  0.744603667592358  0.5546581902102544  0.1836481185301223  1.0000
  C   C21       1.0  0.18991514272907023  0.6288500325593628  0.4452713692847821  1.0000
  C   C22       1.0  0.23088396491016988  0.5437601387413122  0.5437570158566202  1.0000
  C   C23       1.0  0.6869404937384617  4.400158075410001e-05  0.4561386325371188  1.0000
  C   C24       1.0  0.6869244626114864  0.4561462347520189  4.8503957280697805e-05  1.0000
  O   O1        1.0  0.5823438038384907  0.391239706182965  0.5702773023745493  1.0000
  O   O2        1.0  0.19109035069291017  0.17909645181465803  0.608667356210077  1.0000
  O   O3        1.0  0.011669278232069683  0.42975235927502076  0.8209451090026718  1.0000
  O   O4        1.0  0.011687085508093177  0.820939961774762  0.4297560690022024  1.0000
  O   O5        1.0  0.19108533734157618  0.6086762502087381  0.17910330253418044  1.0000
  O   O6        1.0  0.5823528752560065  0.5702798845145409  0.39124396031519376  1.0000
  O   O7        1.0  0.22579045421827706  0.3683409278248105  0.6376968968777703  1.0000
  O   O8        1.0  0.8573075156384605  0.26938417516074503  0.6317215582644735  1.0000
  O   O9        1.0  0.5877572860762896  0.3623738172556725  0.7306186274050857  1.0000
  O   O10       1.0  0.5877523326360715  0.7306294531854218  0.36238551022599796  1.0000
  O   O11       1.0  0.8573127808155547  0.631732791403877  0.26939580608703295  1.0000
  O   O12       1.0  0.22579292337324824  0.6377106554872753  0.36836140682633095  1.0000
  O   O13       1.0  0.044735030436264325  0.4848791501806388  0.660777421484461  1.0000
  O   O14       1.0  0.559889196584095  0.17598360798218235  0.5149279187167153  1.0000
  O   O15       1.0  0.3836405010355506  0.3393175576475684  0.8240963909903627  1.0000
  O   O16       1.0  0.38366835187213155  0.8240992539232008  0.33931964423516797  1.0000
  O   O17       1.0  0.5598900719844196  0.5149514479956352  0.17599107531059124  1.0000
  O   O18       1.0  0.044759890138457936  0.6607784334345438  0.48488228104613995  1.0000
