data_image0
_chemical_formula_structural       Al2H30C48N6O12
_chemical_formula_sum              "Al2 H30 C48 N6 O12"
_cell_length_a       4.015741715488497
_cell_length_b       28.971734930703132
_cell_length_c       28.971972296711005
_cell_angle_alpha    119.99794986211006
_cell_angle_beta     90.00162142600132
_cell_angle_gamma    89.99880087876234

_space_group_name_H-M_alt    "P 1"
_space_group_IT_number       1

loop_
  _space_group_symop_operation_xyz
  'x, y, z'

loop_
  _atom_site_type_symbol
  _atom_site_label
  _atom_site_symmetry_multiplicity
  _atom_site_fract_x
  _atom_site_fract_y
  _atom_site_fract_z
  _atom_site_occupancy
  Al  Al1       1.0  0.9986144543552767  0.500002615368025  0.4999995007368057  1.0000
  Al  Al2       1.0  0.9975968536214732  0.16666243188255694  0.8333397437984759  1.0000
  H   H1        1.0  0.14979498885537618  0.17797474847965583  0.7026616822214607  1.0000
  H   H2        1.0  0.091202221734207  0.22517384182571487  0.6508638395565145  1.0000
  H   H3        1.0  0.6924829468485498  0.3536012611198485  0.7684124469235982  1.0000
  H   H4        1.0  0.6922572608524077  0.3130344161761371  0.5648919687257745  1.0000
  H   H5        1.0  0.1508789841066474  0.48877003738348174  0.6307229239932826  1.0000
  H   H6        1.0  0.09177991778121708  0.4415555840006817  0.6824959561658802  1.0000
  H   H7        1.0  0.1498796112181253  0.024669422062018387  0.8220225377412762  1.0000
  H   H8        1.0  0.09134316647237031  0.925675772255353  0.7748281992858922  1.0000
  H   H9        1.0  0.6924311082637614  0.9148060293950591  0.6463852354799329  1.0000
  H   H10       1.0  0.692292258870772  0.7518541249127324  0.6869653200721262  1.0000
  H   H11       1.0  0.15086408347455924  0.6419589588712497  0.5112341060362057  1.0000
  H   H12       1.0  0.0917839921854124  0.7409444638762323  0.558442875065339  1.0000
  H   H13       1.0  0.14986474412918943  0.297356210328914  0.975338381027669  1.0000
  H   H14       1.0  0.09126783373937289  0.3491428847793188  0.07432839877882463  1.0000
  H   H15       1.0  0.6924962376316087  0.2315795610401423  0.08520351877609762  1.0000
  H   H16       1.0  0.6923328495117288  0.43511560126676585  0.24814525931748227  1.0000
  H   H17       1.0  0.15093872703186406  0.3692784021918385  0.35804525887139965  1.0000
  H   H18       1.0  0.09192272388303728  0.3174979167995389  0.25905957539922053  1.0000
  H   H19       1.0  0.8811224188448534  0.2869678617659515  0.8421053369582979  1.0000
  H   H20       1.0  0.9648183517950457  0.34031425990042413  0.833213726549417  1.0000
  H   H21       1.0  0.8816376213020758  0.37968037518459846  0.49123526725466604  1.0000
  H   H22       1.0  0.9647925577743803  0.326292743682984  0.5000868437085089  1.0000
  H   H23       1.0  0.8810395541070974  0.055130592289827994  0.7130247131343739  1.0000
  H   H24       1.0  0.9647276615110413  0.9928981997288063  0.6596721772389459  1.0000
  H   H25       1.0  0.8816656999097886  0.6115536309016533  0.6203247747439421  1.0000
  H   H26       1.0  0.9648365244527211  0.6737879690550271  0.6737088940543217  1.0000
  H   H27       1.0  0.881074233393285  0.15788851053437014  0.9448808337986849  1.0000
  H   H28       1.0  0.9647469960955205  0.16676827898152166  0.007114739991770612  1.0000
  H   H29       1.0  0.8815861956723906  0.50878684961598  0.3884478341052216  1.0000
  H   H30       1.0  0.9647361411029036  0.49993646401318875  0.32621264763592006  1.0000
  C   C1        1.0  0.490255270943578  0.45700401202676494  0.41764903887783345  1.0000
  C   C2        1.0  0.49025202607965906  0.46065193344967514  0.5429971891113468  1.0000
  C   C3        1.0  0.4902653728248723  0.5823505528858277  0.5393484471981866  1.0000
  C   C4        1.0  0.4892753693406461  0.20605337885669428  0.790375884723261  1.0000
  C   C5        1.0  0.48925952798253997  0.0843066639089188  0.7939422550102935  1.0000
  C   C6        1.0  0.4893094801545176  0.20963480095134915  0.9157021750768027  1.0000
  C   C7        1.0  0.4629540980319574  0.23725770703569535  0.7630929314629143  1.0000
  C   C8        1.0  0.27187309385141833  0.216191538473069  0.716056486460893  1.0000
  C   C9        1.0  0.23868158783645296  0.24217204800839182  0.6872316465009974  1.0000
  C   C10       1.0  0.3897079697043607  0.2927260906476832  0.7067652624438169  1.0000
  C   C11       1.0  0.5728426944123156  0.31499865091439005  0.7541698965678025  1.0000
  C   C12       1.0  0.6212792501609528  0.2877431436805934  0.7825129218164762  1.0000
  C   C13       1.0  0.36606877036801677  0.3208767456716756  0.678516329314249  1.0000
  C   C14       1.0  0.36605725302866426  0.3457983452734651  0.6548079918484717  1.0000
  C   C15       1.0  0.38984391262016527  0.3739556346821046  0.6265642130999894  1.0000
  C   C16       1.0  0.5729005683355055  0.3516641053097799  0.5791506593250091  1.0000
  C   C17       1.0  0.6216291270776323  0.3789329825845443  0.550826818058255  1.0000
  C   C18       1.0  0.46364907597958893  0.42944512031436927  0.570268761522982  1.0000
  C   C19       1.0  0.27263130177288275  0.4505298449257394  0.6173096891646352  1.0000
  C   C20       1.0  0.239162643370129  0.4245395432275386  0.6461193950716365  1.0000
  C   C21       1.0  0.46292438476663716  0.02582479213698  0.7627354637476601  1.0000
  C   C22       1.0  0.2719031114857415  0.9998509632261584  0.7838049794370223  1.0000
  C   C23       1.0  0.23873011410553602  0.9450507638753007  0.7578262463369542  1.0000
  C   C24       1.0  0.3896859266524259  0.9140332954878543  0.7072673953607735  1.0000
  C   C25       1.0  0.5728013482093954  0.9391674698991749  0.6849916739406227  1.0000
  C   C26       1.0  0.6212169248392384  0.994763604021415  0.7122502290160784  1.0000
  C   C27       1.0  0.3660503023290999  0.8576347943045234  0.6791144693920189  1.0000
  C   C28       1.0  0.36605638890659975  0.8090060976718687  0.6541973160073198  1.0000
  C   C29       1.0  0.3898640547803041  0.752607128521909  0.6260428407116337  1.0000
  C   C30       1.0  0.5729375238699035  0.7274829922172897  0.6483358595914696  1.0000
  C   C31       1.0  0.6216571771730415  0.671894222839441  0.6210693593520064  1.0000
  C   C32       1.0  0.46367131587796007  0.6408256048077305  0.570557856603024  1.0000
  C   C33       1.0  0.27263922307099614  0.6667846700496938  0.5494731959431577  1.0000
  C   C34       1.0  0.23917945001788607  0.7215797697109352  0.5754590242520338  1.0000
  C   C35       1.0  0.46303651421175107  0.23692076495316142  0.9741834101427075  1.0000
  C   C36       1.0  0.2719692796313423  0.2839549529548151  0.00015048657789412616  1.0000
  C   C37       1.0  0.23876562626585948  0.3127774286638996  0.05495461277366333  1.0000
  C   C38       1.0  0.38979563413894874  0.2932328930901775  0.08596899253146971  1.0000
  C   C39       1.0  0.5729159792485774  0.24582849001694737  0.060839749617947844  1.0000
  C   C40       1.0  0.6213296637865469  0.21749116828921436  0.005242621609667739  1.0000
  C   C41       1.0  0.36616450308266474  0.32148098390470636  0.14237052685849963  1.0000
  C   C42       1.0  0.3661823849096564  0.34519242204503797  0.190999960262289  1.0000
  C   C43       1.0  0.38996715200866555  0.37343870334061074  0.2474005964636491  1.0000
  C   C44       1.0  0.5729858907535573  0.42085724520041623  0.2725209466276724  1.0000
  C   C45       1.0  0.6216551434743707  0.4491829401480558  0.32811186317287894  1.0000
  C   C46       1.0  0.4636712513445928  0.42973681663202956  0.3591772780100798  1.0000
  C   C47       1.0  0.27270368770610526  0.3826921977445609  0.3332211925683738  1.0000
  C   C48       1.0  0.23926958941974866  0.35387977410834276  0.2784269578129966  1.0000
  N   N1        1.0  0.8018936762911153  0.3117228414115798  0.8289331857432033  1.0000
  N   N2        1.0  0.8021534657460306  0.3549317426692653  0.504397440615314  1.0000
  N   N3        1.0  0.8018166860757885  0.01720660201215918  0.6882668512611049  1.0000
  N   N4        1.0  0.8022005731664235  0.6494633577994974  0.6450711794231128  1.0000
  N   N5        1.0  0.8018910376379721  0.1710707684405364  0.9828083760848687  1.0000
  N   N6        1.0  0.8021137699922177  0.495618232275028  0.35053753562048945  1.0000
  O   O1        1.0  0.7346561602005152  0.5596893692050955  0.5491672292886279  1.0000
  O   O2        1.0  0.7346109613197526  0.48948677211539143  0.44031362427058  1.0000
  O   O3        1.0  0.734632878246991  0.45083225057917536  0.5105182789033621  1.0000
  O   O4        1.0  0.26794127328665945  0.5564912551683036  0.5038499205601285  1.0000
  O   O5        1.0  0.26792285697572277  0.49614985318547156  0.5526340528254468  1.0000
  O   O6        1.0  0.2679408431803126  0.44736922927918943  0.4435109410414385  1.0000
  O   O7        1.0  0.7335459691957879  0.17713153881612706  0.8930130838022948  1.0000
  O   O8        1.0  0.7335638958347132  0.21586705819486005  0.8228730856049469  1.0000
  O   O9        1.0  0.7335381159442633  0.10699475670862295  0.784131631319852  1.0000
  O   O10       1.0  0.2668517785561306  0.21927110926517904  0.8898582634479412  1.0000
  O   O11       1.0  0.26683390844607396  0.1101438215780774  0.8294251426903402  1.0000
  O   O12       1.0  0.2668149742560643  0.17057277120474623  0.7807329416876814  1.0000
