data_image0
_chemical_formula_structural       Na4Zn6H48C40O48
_chemical_formula_sum              "Na4 Zn6 H48 C40 O48"
_cell_length_a       7.458434813962308
_cell_length_b       10.325605575264325
_cell_length_c       21.213
_cell_angle_alpha    88.75673184921655
_cell_angle_beta     86.55577816888679
_cell_angle_gamma    68.82853928535268

_space_group_name_H-M_alt    "P 1"
_space_group_IT_number       1

loop_
  _space_group_symop_operation_xyz
  'x, y, z'

loop_
  _atom_site_type_symbol
  _atom_site_label
  _atom_site_symmetry_multiplicity
  _atom_site_fract_x
  _atom_site_fract_y
  _atom_site_fract_z
  _atom_site_occupancy
  Na  Na1       1.0  0.783638725542552  0.7576220395121354  0.6927398792904074  1.0000
  Na  Na2       1.0  0.4587279380076054  0.7576002296386122  0.8072776903982232  1.0000
  Na  Na3       1.0  0.21636052571440698  0.2423783173389396  0.3072602270381424  1.0000
  Na  Na4       1.0  0.5412707939694952  0.2424011657778706  0.19272241593029094  1.0000
  Zn  Zn1       1.0  0.02537064647677314  0.9491345389577431  0.74999947169772  1.0000
  Zn  Zn2       1.0  0.9746286047801858  0.0508658178933246  0.2500011060398677  1.0000
  Zn  Zn3       1.0  0.1823474224208113  0.50076819754333  0.41950465955309113  1.0000
  Zn  Zn4       1.0  0.31700161142364885  0.5007640432817055  0.08044819494942601  1.0000
  Zn  Zn5       1.0  0.8176518288361551  0.4992321593077449  0.5804954467754585  1.0000
  Zn  Zn6       1.0  0.6829962966433101  0.4992363135693694  0.9195519397511235  1.0000
  H   H1        1.0  0.4949962860348691  0.5123897444373071  0.3574028790456723  1.0000
  H   H2        1.0  0.9928427664459175  0.5123793587832495  0.14253500433183322  1.0000
  H   H3        1.0  0.5050029652220899  0.48761061241376785  0.6425972272828774  1.0000
  H   H4        1.0  0.0071551416210340136  0.48762099806782544  0.8574651303687091  1.0000
  H   H5        1.0  0.32061929079652146  0.661683521560569  0.350766714482262  1.0000
  H   H6        1.0  0.017894457209024526  0.6616741744719121  0.1492241101746004  1.0000
  H   H7        1.0  0.6793818229303097  0.338315796725098  0.6492333634743163  1.0000
  H   H8        1.0  0.9821042747680692  0.3383272209445707  0.8507759961539136  1.0000
  H   H9        1.0  0.1206199135817982  0.1557515768182327  0.6779318494424801  1.0000
  H   H10       1.0  0.7236461060602579  0.155749499687424  0.8220758692444292  1.0000
  H   H11       1.0  0.8793798569550261  0.8442477414674343  0.3220682568860981  1.0000
  H   H12       1.0  0.2763523212865593  0.844249818598243  0.17792379404711062  1.0000
  H   H13       1.0  0.13161018841643107  0.1524198589955432  0.7559350514116334  1.0000
  H   H14       1.0  0.715892558949605  0.1524250518225756  0.7440731825716826  1.0000
  H   H15       1.0  0.868389062840528  0.8475804978555316  0.24406458350787122  1.0000
  H   H16       1.0  0.28410803549736136  0.8475753050284992  0.2559264239758221  1.0000
  H   H17       1.0  0.24899395130323398  0.7036041756113747  0.6939247755335957  1.0000
  H   H18       1.0  0.047370185074449  0.703561594429722  0.8061400640544748  1.0000
  H   H19       1.0  0.7510066431437322  0.2963961812397002  0.30607530242294706  1.0000
  H   H20       1.0  0.9526290661825171  0.2964387624213529  0.19386004227407477  1.0000
  H   H21       1.0  0.36052136642202715  0.8022626963614528  0.6793749028626267  1.0000
  H   H22       1.0  0.8372024126611279  0.8022377707917059  0.8206658479331922  1.0000
  H   H23       1.0  0.6394778848349317  0.1977376604896222  0.3206247320568778  1.0000
  H   H24       1.0  0.16279735787569646  0.1977615474939611  0.179334258395393  1.0000
  H   H25       1.0  0.685344005787506  0.990135024058766  0.3945511187750769  1.0000
  H   H26       1.0  0.3245644370352919  0.9900841343538715  0.10540102919159013  1.0000
  H   H27       1.0  0.31465658865946716  0.0098653327923017  0.605449430590518  1.0000
  H   H28       1.0  0.6754371959714047  0.0099141453663876  0.8945981059469476  1.0000
  H   H29       1.0  0.5536124410693047  0.24738627972703142  0.559805483255282  1.0000
  H   H30       1.0  0.19891025965397083  0.2474278223432691  0.9401786172570824  1.0000
  H   H31       1.0  0.44638949656767574  0.7526140771240435  0.44019456632926085  1.0000
  H   H32       1.0  0.801090030162719  0.75257045737699  0.05982148907153121  1.0000
  H   H33       1.0  0.9634815678867593  0.8279858843391139  0.5661727720266541  1.0000
  H   H34       1.0  0.20848309831880835  0.8280035399510197  0.9337763643379662  1.0000
  H   H35       1.0  0.03651902656021381  0.172014472511961  0.43382730592989566  1.0000
  H   H36       1.0  0.7915145051178598  0.1719947397692465  0.0662228559165641  1.0000
  H   H37       1.0  0.7683147044125035  0.5561361964719893  0.4193026973195729  1.0000
  H   H38       1.0  0.6756481428926404  0.5562514772320668  0.08060925993839871  1.0000
  H   H39       1.0  0.23168402756459722  0.4438651989444864  0.5806974090089343  1.0000
  H   H40       1.0  0.3243511083643255  0.4437488796190081  0.9193908463901509  1.0000
  H   H41       1.0  0.4083544321530538  0.0011756560396776  0.7327969434588156  1.0000
  H   H42       1.0  0.5903946615117519  0.0011507304699307  0.7671573441738887  1.0000
  H   H43       1.0  0.5916434759138981  0.9988247008113972  0.267203191241734  1.0000
  H   H44       1.0  0.4096027272753416  0.998850664946552  0.23284279052662532  1.0000
  H   H45       1.0  0.6899381517122476  0.5193273613498874  0.7181527186258165  1.0000
  H   H46       1.0  0.7908671313929077  0.5193159371304219  0.7818890314144086  1.0000
  H   H47       1.0  0.3100610995447112  0.48067299550118747  0.28184691629368797  1.0000
  H   H48       1.0  0.209131600584186  0.4806854582860609  0.2181110749141055  1.0000
  C   C1        1.0  0.7614633964977668  0.0398964900743621  0.5704872423995156  1.0000
  C   C2        1.0  0.19854661605199908  0.0399380326906069  0.9294846440352629  1.0000
  C   C3        1.0  0.23853854113921352  0.9601038667767058  0.4295128071850343  1.0000
  C   C4        1.0  0.8014526352049598  0.960062324160468  0.07051499088424151  1.0000
  C   C5        1.0  0.7091945062211167  0.0040223638177252  0.4436036236496292  1.0000
  C   C6        1.0  0.2868465831218144  0.0039860140285128  0.0563459693246813  1.0000
  C   C7        1.0  0.2908060882258495  0.9959779930333426  0.5563959828978753  1.0000
  C   C8        1.0  0.7131555691647474  0.9960112271263383  0.9436541086319753  1.0000
  C   C9        1.0  0.46784328333869507  0.2451211685763823  0.43730036053166543  1.0000
  C   C10       1.0  0.28713531198569336  0.24505781608660726  0.0626864747316489  1.0000
  C   C11       1.0  0.5321554486384059  0.7548802268401005  0.5626997457968486  1.0000
  C   C12       1.0  0.7128658017411381  0.7549415021990598  0.9373136032249293  1.0000
  C   C13       1.0  0.6080269655077827  0.1309890618411913  0.47322817267225054  1.0000
  C   C14       1.0  0.261031267906226  0.1309568663136034  0.026740108666189106  1.0000
  C   C15       1.0  0.3919731096593253  0.8690123335752915  0.5267719052842637  1.0000
  C   C16       1.0  0.7389698458206053  0.8690424519720636  0.9732594978813581  1.0000
  C   C17       1.0  0.8372261611925679  0.8944571860241197  0.47686009736573715  1.0000
  C   C18       1.0  0.26834987541645455  0.8944499160662787  0.023081430793745004  1.0000
  C   C19       1.0  0.1627730900643911  0.1055431708269481  0.5231400089628124  1.0000
  C   C20       1.0  0.7316504144002349  0.1055483636539805  0.9769182041258306  1.0000
  C   C21       1.0  0.7894085050608624  0.0574949808803069  0.6386136571177731  1.0000
  C   C22       1.0  0.15292211282316964  0.0575749504165728  0.8613765039500267  1.0000
  C   C23       1.0  0.21059395185597654  0.9425043374053671  0.3613863924668054  1.0000
  C   C24       1.0  0.8470771384337895  0.9424254064345021  0.13862407378756103  1.0000
  C   C25       1.0  0.9446658502164735  0.7598622250930376  0.44396343268058314  1.0000
  C   C26       1.0  0.2954978200240461  0.7598466466119476  0.055981160111308305  1.0000
  C   C27       1.0  0.055333401040492405  0.2401381317580302  0.5560366736479666  1.0000
  C   C28       1.0  0.7045019505127782  0.2401526716737195  0.9440184748082316  1.0000
  C   C29       1.0  0.634338013528776  0.1487152961920728  0.5367769024179765  1.0000
  C   C30       1.0  0.21692517108316878  0.1487215275845131  0.963202327061126  1.0000
  C   C31       1.0  0.3656639241081974  0.851285060658995  0.4632236185756185  1.0000
  C   C32       1.0  0.7830751187335139  0.851276752135746  0.0367973078584498  1.0000
  C   C33       1.0  0.8630508260288181  0.912763978437006  0.5402974741884137  1.0000
  C   C34       1.0  0.2241625541992747  0.9127826726143127  0.9596525031672629  1.0000
  C   C35       1.0  0.13694976841815532  0.0872363784140688  0.45970260376813604  1.0000
  C   C36       1.0  0.7758361777778262  0.087218722802163  0.04034666034316811  1.0000
  C   C37       1.0  0.8320324320578719  0.47333449234186287  0.3835666031936142  1.0000
  C   C38       1.0  0.6947915702511124  0.4734186161397531  0.11633923795088211  1.0000
  C   C39       1.0  0.16796681919908707  0.5266658645092122  0.6164330317258903  1.0000
  C   C40       1.0  0.30520768100584655  0.5265817407113218  0.8836608683776604  1.0000
  O   O1        1.0  0.8949344846114686  0.9480544309354285  0.6671063727156651  1.0000
  O   O2        1.0  0.15672681055001902  0.9481562103452248  0.8328935105004477  1.0000
  O   O3        1.0  0.10506610983550498  0.0519459259156463  0.3328937052408776  1.0000
  O   O4        1.0  0.843271616796798  0.0518431079404422  0.16710615279109223  1.0000
  O   O5        1.0  0.3500132236327858  0.5589029347137782  0.3539174265864062  1.0000
  O   O6        1.0  0.09129904920452249  0.5588915104943055  0.1460631366714651  1.0000
  O   O7        1.0  0.649987890094046  0.44109638357189596  0.646082651370172  1.0000
  O   O8        1.0  0.9087020645223163  0.44110780779136155  0.853936941285113  1.0000
  O   O9        1.0  0.1587177685947481  0.0952977230960244  0.7163796490067966  1.0000
  O   O10       1.0  0.7459263961864621  0.0953174558387389  0.7836289642593925  1.0000
  O   O11       1.0  0.8412809633823528  0.9047036723204583  0.28361998591267934  1.0000
  O   O12       1.0  0.2540728550704968  0.904682901012336  0.216371142069157  1.0000
  O   O13       1.0  0.2751178421963585  0.7822318853744861  0.7130851375580605  1.0000
  O   O14       1.0  0.9426592026254141  0.7821913813236492  0.7869576595609472  1.0000
  O   O15       1.0  0.7248827522506147  0.21776847147658876  0.2869144689894512  1.0000
  O   O16       1.0  0.0573419111014175  0.2178079369620178  0.21304194698659268  1.0000
  O   O17       1.0  0.015406859275067613  0.4215131942749437  0.37543304178431924  1.0000
  O   O18       1.0  0.5631709875331198  0.42168144187073153  0.1245515400236599  1.0000
  O   O19       1.0  0.9845937351719057  0.5784871625761312  0.6245670361722305  1.0000
  O   O20       1.0  0.43682826372384637  0.5783189149803434  0.8754485663048897  1.0000
  O   O21       1.0  0.36547893604361553  0.3540407155384813  0.4692281919553097  1.0000
  O   O22       1.0  0.2806001565426469  0.3539680159600564  0.03077105181392881  1.0000
  O   O23       1.0  0.6345203152133434  0.6459596413125936  0.5307719143732399  1.0000
  O   O24       1.0  0.7193996139941775  0.6460313023256106  0.9692285831056111  1.0000
  O   O25       1.0  0.05011726390301157  0.658260409982141  0.47766782173740546  1.0000
  O   O26       1.0  0.2917658287574056  0.6582188673659033  0.022266966595502403  1.0000
  O   O27       1.0  0.9498825066338197  0.341738908303526  0.5223327560002176  1.0000
  O   O28       1.0  0.7082339417794186  0.3417804509197637  0.9777331397330757  1.0000
  O   O29       1.0  0.7085317316893622  0.1752838764102833  0.6651629371521823  1.0000
  O   O30       1.0  0.11605764643118728  0.1753638459465492  0.83482763706985  1.0000
  O   O31       1.0  0.2914725876973492  0.8247144033099758  0.3348375554694769  1.0000
  O   O32       1.0  0.8839442912057861  0.8246365109045257  0.1651728839237379  1.0000
  O   O33       1.0  0.4531809087815474  0.2307276906135911  0.3789071395133519  1.0000
  O   O34       1.0  0.31616912424846066  0.2306061784610804  0.12107417514540943  1.0000
  O   O35       1.0  0.5468183424754115  0.7692726662374838  0.6210929668151977  1.0000
  O   O36       1.0  0.6838301270084982  0.7693941783899945  0.8789254597740953  1.0000
  O   O37       1.0  0.9319774644720339  0.7471917271389259  0.38540943677652  1.0000
  O   O38       1.0  0.32068657510467363  0.7472530024978852  0.114544537061569  1.0000
  O   O39       1.0  0.06802178678492511  0.252808629712149  0.6145897267339393  1.0000
  O   O40       1.0  0.6793126761522925  0.2527473543531897  0.8854550978579355  1.0000
  O   O41       1.0  0.7202825485175948  0.4343612869135001  0.35312179548314765  1.0000
  O   O42       1.0  0.8456737739933118  0.4343228599934719  0.14670608031833152  1.0000
  O   O43       1.0  0.2797167027393712  0.5656390699375748  0.6468783108454019  1.0000
  O   O44       1.0  0.1543254772636544  0.565677496857603  0.8532940260102182  1.0000
  O   O45       1.0  0.5303259693764488  0.9392879003427481  0.7499629919418709  1.0000
  O   O46       1.0  0.46967141941063767  0.0607134950737276  0.250037614167681  1.0000
  O   O47       1.0  0.709972726669484  0.5803067291675745  0.7500087112294695  1.0000
  O   O48       1.0  0.2900265245874819  0.4196936276835004  0.2499913950990802  1.0000
