data_image0
_chemical_formula_structural       V2H20C28N4O8
_chemical_formula_sum              "V2 H20 C28 N4 O8"
_cell_length_a       6.383539292568166
_cell_length_b       9.885886147920777
_cell_length_c       10.713275175565824
_cell_angle_alpha    106.65952211768153
_cell_angle_beta     102.99824467640958
_cell_angle_gamma    103.2704295832247

_space_group_name_H-M_alt    "P 1"
_space_group_IT_number       1

loop_
  _space_group_symop_operation_xyz
  'x, y, z'

loop_
  _atom_site_type_symbol
  _atom_site_label
  _atom_site_symmetry_multiplicity
  _atom_site_fract_x
  _atom_site_fract_y
  _atom_site_fract_z
  _atom_site_occupancy
  V   V1        1.0  0.3441086037299143  0.3410365586256958  0.4567462923934186  1.0000
  V   V2        1.0  0.6558720580588256  0.6589595449398898  0.5432471949537429  1.0000
  H   H1        1.0  0.6229808727211291  0.1892260370677477  0.8808818839151867  1.0000
  H   H2        1.0  0.3770099245393723  0.8107745460996726  0.11911512856780598  1.0000
  H   H3        1.0  0.8739532759102814  0.05436907505605149  0.790761258854779  1.0000
  H   H4        1.0  0.1260327527799559  0.9456214468576076  0.20923799138572702  1.0000
  H   H5        1.0  0.9198070849861252  0.0462024596581685  0.5637825756659395  1.0000
  H   H6        1.0  0.08020242654288984  0.9538003910515584  0.4362222713330935  1.0000
  H   H7        1.0  0.6994151531477969  0.16673642902031097  0.4293175695001351  1.0000
  H   H8        1.0  0.3005918009482116  0.8332575380536866  0.5706836004598583  1.0000
  H   H9        1.0  0.38152684595436875  0.293716824665431  0.9329680773810409  1.0000
  H   H10       1.0  0.6184869776626343  0.7062916616244835  0.06703140981344541  1.0000
  H   H11       1.0  0.14813645700093764  0.45173061782142554  0.9930852578187837  1.0000
  H   H12       1.0  0.8518538727289807  0.5482655314486992  0.006909562347708171  1.0000
  H   H13       1.0  0.005180815264594587  0.5792081679574961  0.8288621193774969  1.0000
  H   H14       1.0  0.9948153494904018  0.4207935587205256  0.17113500096525763  1.0000
  H   H15       1.0  0.11442323063867826  0.5359215236539824  0.6159935847176284  1.0000
  H   H16       1.0  0.885584213677525  0.46408361892726196  0.38400226306422514  1.0000
  H   H17       1.0  0.7785035656633922  0.1692506981093018  0.22659832693832258  1.0000
  H   H18       1.0  0.22150910222286052  0.8307521184929881  0.7734125427170253  1.0000
  H   H19       1.0  0.11707958366443447  0.0234627141234967  0.9293298531645319  1.0000
  H   H20       1.0  0.8829244609353566  0.9765389190622076  0.07068325354953939  1.0000
  C   C1        1.0  0.5239641462910639  0.24531464194693334  0.6998128895843648  1.0000
  C   C2        1.0  0.4760363520555229  0.7546860115961775  0.30018266652636055  1.0000
  C   C3        1.0  0.641025924867037  0.18099183783930067  0.7806155955943764  1.0000
  C   C4        1.0  0.35896758361322145  0.8190076563520773  0.2193805602505633  1.0000
  C   C5        1.0  0.7826970251505897  0.1069043114234702  0.7309328642306452  1.0000
  C   C6        1.0  0.21729113763527852  0.8930906931234828  0.26906415181025506  1.0000
  C   C7        1.0  0.8084807168696313  0.1020345665228106  0.6043326156091878  1.0000
  C   C8        1.0  0.1915197593803482  0.89796607057287  0.39566479996260256  1.0000
  C   C9        1.0  0.6856797714121896  0.16750061054730736  0.5288331687403982  1.0000
  C   C10       1.0  0.3143234050092474  0.8324989293486168  0.47116431992387203  1.0000
  C   C11       1.0  0.3795255963754158  0.3331517777386424  0.7440470023778687  1.0000
  C   C12       1.0  0.6204819028858068  0.6668500433799168  0.25594702426811  1.0000
  C   C13       1.0  0.3238688027099385  0.35001073793246457  0.865021797435922  1.0000
  C   C14       1.0  0.6761413638743291  0.649993323896453  0.13497226397734602  1.0000
  C   C15       1.0  0.18990365611939097  0.43934901502259993  0.8981813100348858  1.0000
  C   C16       1.0  0.8100947305246677  0.5606505349159007  0.10181179329758544  1.0000
  C   C17       1.0  0.1124113475638495  0.5090249352384006  0.8096127151759231  1.0000
  C   C18       1.0  0.8875912627817681  0.49098018449056713  0.1903824661962687  1.0000
  C   C19       1.0  0.1720046444359298  0.485618052930718  0.6894373582587077  1.0000
  C   C20       1.0  0.8279979987580999  0.5143837288881343  0.3105578614386743  1.0000
  C   C21       1.0  0.4387266080923025  0.10947972174538727  0.08715440436619554  1.0000
  C   C22       1.0  0.5612806922994481  0.8905219513463082  0.9128563574293904  1.0000
  C   C23       1.0  0.6553676704564707  0.09592404068799  0.12785079190390286  1.0000
  C   C24       1.0  0.3446455420019916  0.9040799047963404  0.8721585894710129  1.0000
  C   C25       1.0  0.28523838091570036  0.0127801356364401  0.9591127419329978  1.0000
  C   C26       1.0  0.7147710864201  0.9872226821784263  0.040895823988165506  1.0000
  C   C27       1.0  0.3619879943199251  0.22203264950448437  0.177493000236275  1.0000
  C   C28       1.0  0.6380139499221398  0.7779712508815918  0.8225138964522143  1.0000
  N   N1        1.0  0.5432584396595884  0.2347619467270619  0.5743828462786807  1.0000
  N   N2        1.0  0.4567463152369696  0.7652409386964011  0.42561482619695556  1.0000
  N   N3        1.0  0.3026346556437501  0.40068637530993095  0.6579938223104091  1.0000
  N   N4        1.0  0.6973695988738057  0.5993154141263517  0.34200161952352187  1.0000
  O   O1        1.0  0.29868647693211153  0.49556617818552684  0.4394734351510507  1.0000
  O   O2        1.0  0.7013006083506355  0.504433301983582  0.560519972686599  1.0000
  O   O3        1.0  0.21315105765060585  0.2695291790293907  0.12673577728831015  1.0000
  O   O4        1.0  0.7868423949951333  0.730463548880891  0.8732706822428821  1.0000
  O   O5        1.0  0.46339373320882515  0.259840691119443  0.3096276051998571  1.0000
  O   O6        1.0  0.5366029092355615  0.7401553899358005  0.6903792602792577  1.0000
  O   O7        1.0  0.09777372529121918  0.2128681299798245  0.3981390922132277  1.0000
  O   O8        1.0  0.902211670736868  0.7871245598433417  0.6018662566351904  1.0000
