data_image0
_chemical_formula_structural       Cu2H48C42N8O8
_chemical_formula_sum              "Cu2 H48 C42 N8 O8"
_cell_length_a       7.786027438302849
_cell_length_b       11.764031509784697
_cell_length_c       12.25699193182892
_cell_angle_alpha    85.93454116624807
_cell_angle_beta     78.65554067912309
_cell_angle_gamma    80.1269078817332

_space_group_name_H-M_alt    "P 1"
_space_group_IT_number       1

loop_
  _space_group_symop_operation_xyz
  'x, y, z'

loop_
  _atom_site_type_symbol
  _atom_site_label
  _atom_site_symmetry_multiplicity
  _atom_site_fract_x
  _atom_site_fract_y
  _atom_site_fract_z
  _atom_site_occupancy
  Cu  Cu1       1.0  0.49999899264621217  0.5000003996161624  0.4999998468750563  1.0000
  Cu  Cu2       1.0  0.500003090256044  7.097266845020086e-07  0.9999998993522967  1.0000
  H   H1        1.0  0.669292823352869  0.715270420262783  0.5528215447734939  1.0000
  H   H2        1.0  0.3307089892564008  0.2847251210591111  0.44718286920104333  1.0000
  H   H3        1.0  0.13843360764946772  0.7639719099565596  0.41610567404792687  1.0000
  H   H4        1.0  0.8615639594135088  0.23603057331579447  0.5838972407666462  1.0000
  H   H5        1.0  0.06243790103615511  0.7357247787718747  0.5590108244376495  1.0000
  H   H6        1.0  0.9375638014545515  0.2642768100410748  0.4409924501227992  1.0000
  H   H7        1.0  0.6960727919387608  0.8515946329366813  0.17635334461204621  1.0000
  H   H8        1.0  0.30392843543274484  0.148403594599074  0.8236436479288045  1.0000
  H   H9        1.0  0.7805917359237357  0.16807822057532457  0.008470997760134918  1.0000
  H   H10       1.0  0.21941561707332366  0.8319216036014795  0.9915324996420198  1.0000
  H   H11       1.0  0.026861479211838502  0.10766195894724717  0.15093697431395015  1.0000
  H   H12       1.0  0.9731470975955362  0.8923326956633275  0.8490658454504258  1.0000
  H   H13       1.0  0.8672569929198131  0.4452797113801239  0.33199500983059244  1.0000
  H   H14       1.0  0.13274472641344912  0.5547219414943427  0.6680033635176986  1.0000
  H   H15       1.0  0.7186162983673158  0.10229050399428272  0.3342497998542272  1.0000
  H   H16       1.0  0.2813629457956922  0.897700928325477  0.6657510771643517  1.0000
  H   H17       1.0  0.13883414579812134  0.5739741675233248  0.3341973664165323  1.0000
  H   H18       1.0  0.8611677686144006  0.426026589946524  0.6658034807429872  1.0000
  H   H19       1.0  0.10131760801255037  0.919180494006831  0.26717817322121823  1.0000
  H   H20       1.0  0.8986819856345178  0.08081332349618718  0.7328274242509565  1.0000
  H   H21       1.0  0.9653867539083547  0.8117721587446523  0.27393220484078296  1.0000
  H   H22       1.0  0.03460851203882239  0.1882234592993157  0.7260697422055956  1.0000
  H   H23       1.0  0.8288131632426002  0.8596639468440587  0.6693410893677338  1.0000
  H   H24       1.0  0.1711844038203765  0.14033853642830252  0.330661825446839  1.0000
  H   H25       1.0  0.6154126410507105  0.039751887898575006  0.689973248487533  1.0000
  H   H26       1.0  0.3845829217789713  0.9602480508887227  0.31002760555506376  1.0000
  H   H27       1.0  0.5625040467185228  0.1642641733062931  0.5205631036892698  1.0000
  H   H28       1.0  0.4374822472967138  0.835730650337794  0.4794383535901476  1.0000
  H   H29       1.0  0.6866491365645615  0.3239339715435817  0.1739393393176698  1.0000
  H   H30       1.0  0.31334864242023747  0.6760676803856781  0.8260611480959741  1.0000
  H   H31       1.0  0.49980698955448605  0.26210520177057356  0.2312081765021433  1.0000
  H   H32       1.0  0.5001923185444141  0.7378956333665485  0.7687880896638717  1.0000
  H   H33       1.0  0.5621290173183838  0.3702990111161597  0.0183257124210527  1.0000
  H   H34       1.0  0.4378768458638902  0.6297017793296575  0.9816705700670456  1.0000
  H   H35       1.0  0.4248911543684599  0.4828343337567276  0.09776657170422003  1.0000
  H   H36       1.0  0.5751149067001647  0.5171655719613923  0.9022313677264152  1.0000
  H   H37       1.0  0.3479049459701714  0.3736825119358612  0.8980736262066459  1.0000
  H   H38       1.0  0.652093960741844  0.6263200713028212  0.10192095981168595  1.0000
  H   H39       1.0  0.19902684860565503  0.485257165289589  0.9749167725370073  1.0000
  H   H40       1.0  0.8009722616068943  0.5147445545752304  0.025077836686470806  1.0000
  H   H41       1.0  0.12472012895950974  0.3552563815111823  0.9546793626158137  1.0000
  H   H42       1.0  0.8752787665241257  0.6447461590198174  0.04531849087728548  1.0000
  H   H43       1.0  0.025785219012341515  0.3328287692594287  0.16849913528587024  1.0000
  H   H44       1.0  0.9742172013974083  0.6671754669337346  0.8314990083376445  1.0000
  H   H45       1.0  0.10465702545068473  0.4646195592901138  0.1784526818134609  1.0000
  H   H46       1.0  0.895345397766164  0.5353846875799704  0.8215446449413621  1.0000
  H   H47       1.0  0.17903311208381467  0.3388674735515096  0.2566363060772688  1.0000
  H   H48       1.0  0.8209732486744059  0.6611367635868604  0.743359723480893  1.0000
  C   C1        1.0  0.34602517448259107  0.20809471662405343  0.07054948261416881  1.0000
  C   C2        1.0  0.6539800669697016  0.7919086212356562  0.9294499977332366  1.0000
  C   C3        1.0  0.7582112071780501  0.6586059083072369  0.4932404314430698  1.0000
  C   C4        1.0  0.24179000335090003  0.34139225516699406  0.5067614623099318  1.0000
  C   C5        1.0  0.5031570418183477  0.42786306000727575  0.2920000775463336  1.0000
  C   C6        1.0  0.49683571119717135  0.5721378198211583  0.7079961722976124  1.0000
  C   C7        1.0  0.8639044780275996  0.9445773944139332  0.3942394486486336  1.0000
  C   C8        1.0  0.1360892700338567  0.05541908312984839  0.6057634521706136  1.0000
  C   C9        1.0  0.018388799988088123  0.7616739964910266  0.47981000988996675  1.0000
  C   C10       1.0  0.9816118000392464  0.2383267571047796  0.5201918142475749  1.0000
  C   C11       1.0  0.8960202765894466  0.8763034173592885  0.4895189038617503  1.0000
  C   C12       1.0  0.1039754869336775  0.12369564737723238  0.5104827902546987  1.0000
  C   C13       1.0  0.749803234185123  0.9304458326917028  0.15030686061979281  1.0000
  C   C14       1.0  0.2501990928426637  0.0695532193842752  0.8496923992126498  1.0000
  C   C15       1.0  0.7996915029344649  0.09431152955394849  0.06537404205123919  1.0000
  C   C16       1.0  0.20031757425595492  0.9056865824260997  0.9346277079145154  1.0000
  C   C17       1.0  0.9183703283408278  0.06703135367560982  0.1363444669805602  1.0000
  C   C18       1.0  0.0816369425026409  0.9329633290916844  0.8636568791557622  1.0000
  C   C19       1.0  0.8679333275432128  0.5204420019727678  0.3776657703471002  1.0000
  C   C20       1.0  0.132068586869309  0.47955875549708077  0.6223350768124263  1.0000
  C   C21       1.0  0.7442704452462648  0.04810742472157871  0.40710405469057787  1.0000
  C   C22       1.0  0.2557182768459115  0.9518882807213699  0.5928946085589644  1.0000
  C   C23       1.0  0.0005186647349618417  0.5845687352262559  0.3762506600590144  1.0000
  C   C24       1.0  0.999483651064452  0.41543027414203965  0.6237518672482025  1.0000
  C   C25       1.0  0.9626289891028392  0.9047734382410084  0.2804267278894201  1.0000
  C   C26       1.0  0.0373675856153426  0.09522216232316079  0.7195758759163269  1.0000
  C   C27       1.0  0.2952611018552174  0.339798969429367  0.07893810930783475  1.0000
  C   C28       1.0  0.7047428364402606  0.6602044072639828  0.9210590805428186  1.0000
  C   C29       1.0  0.8064290795415021  0.9122700980245212  0.5948609169947972  1.0000
  C   C30       1.0  0.19356647767398977  0.0877298194089349  0.4051415707851903  1.0000
  C   C31       1.0  0.6857165498330885  0.015052988108841694  0.6068408590020056  1.0000
  C   C32       1.0  0.3142739645705674  0.9849460931622716  0.39316229242042783  1.0000
  C   C33       1.0  0.6555781633008735  0.08338546701117619  0.5127155029393579  1.0000
  C   C34       1.0  0.3444094422924664  0.9166093498300328  0.4872857942307294  1.0000
  C   C35       1.0  0.5411894564002894  0.3443803335666545  0.196653967895962  1.0000
  C   C36       1.0  0.4588145892066606  0.6556169849587263  0.8033451782374712  1.0000
  C   C37       1.0  0.46131480560388394  0.38862110791136234  0.0939295194063803  1.0000
  C   C38       1.0  0.5386882337287633  0.6113805701909881  0.9060662432265122  1.0000
  C   C39       1.0  0.2391754361819665  0.39123166614801635  0.9697510283762798  1.0000
  C   C40       1.0  0.7608262915725774  0.6087700187572126  0.030244894365942795  1.0000
  C   C41       1.0  0.14240389762316852  0.3703980229972217  0.17653888146967492  1.0000
  C   C42       1.0  0.8576000378652111  0.6296053430192077  0.8234591252496702  1.0000
  N   N1        1.0  0.7186004970063848  0.5669794467287305  0.45121785370820794  1.0000
  N   N2        1.0  0.2814020279077454  0.4330187206195433  0.5487830630667788  1.0000
  N   N3        1.0  0.6962933577890027  0.0084903761599477  0.0750215469996931  1.0000
  N   N4        1.0  0.30371290397305734  0.9915086555073953  0.9249772325047801  1.0000
  N   N5        1.0  0.8846632216152629  0.963118585830635  0.1891322906647517  1.0000
  N   N6        1.0  0.1153425397637591  0.0368769884672275  0.8108675586383571  1.0000
  N   N7        1.0  0.9278285876717406  0.6717886592589226  0.4495863013591689  1.0000
  N   N8        1.0  0.0721741295145577  0.3282086020078125  0.5504179060957384  1.0000
  O   O1        1.0  0.4582737362441804  0.17290168645663329  0.9820665731697462  1.0000
  O   O2        1.0  0.5417253571258056  0.8270999693466694  0.017932937265889848  1.0000
  O   O3        1.0  0.5750140774020521  0.38669642767558804  0.37712446131002514  1.0000
  O   O4        1.0  0.4249778531900433  0.613307873617515  0.6228741463193829  1.0000
  O   O5        1.0  0.2830673685926897  0.1405930398903124  0.14624268196038773  1.0000
  O   O6        1.0  0.7169455107566876  0.8594110137567911  0.8537639832128436  1.0000
  O   O7        1.0  0.4124681870672404  0.5259631839079759  0.2870524744264387  1.0000
  O   O8        1.0  0.5875232684056542  0.47403775610793997  0.7129398511833642  1.0000
