data_image0
_chemical_formula_structural       Ni2H28C32N8O12
_chemical_formula_sum              "Ni2 H28 C32 N8 O12"
_cell_length_a       8.643748868338731
_cell_length_b       8.874793559597721
_cell_length_c       12.970168144815924
_cell_angle_alpha    77.89635465326356
_cell_angle_beta     70.53497841121654
_cell_angle_gamma    60.84730799323502

_space_group_name_H-M_alt    "P 1"
_space_group_IT_number       1

loop_
  _space_group_symop_operation_xyz
  'x, y, z'

loop_
  _atom_site_type_symbol
  _atom_site_label
  _atom_site_symmetry_multiplicity
  _atom_site_fract_x
  _atom_site_fract_y
  _atom_site_fract_z
  _atom_site_occupancy
  Ni  Ni1       1.0  5.070941779218053e-07  5.809922143063015e-07  0.999997869473731  1.0000
  Ni  Ni2       1.0  1.9275549329883163e-07  0.5000008115554877  0.4999984054181398  1.0000
  H   H1        1.0  0.6794821272532943  0.22724042741924685  0.030188511957810193  1.0000
  H   H2        1.0  0.9367993707039944  0.2730331168644966  0.4697983525586125  1.0000
  H   H3        1.0  0.32051915270188414  0.7727540793513936  0.9698075065599738  1.0000
  H   H4        1.0  0.06319700910044178  0.7269680817131672  0.5302027504124851  1.0000
  H   H5        1.0  0.7942164283429136  0.32599584597448944  0.9573637541245719  1.0000
  H   H6        1.0  0.07733839061073396  0.17419140907210817  0.542672570608545  1.0000
  H   H7        1.0  0.20578274068062544  0.6740027027786083  0.042635946128250196  1.0000
  H   H8        1.0  0.9226459336845354  0.8258024433700798  0.4573383900096817  1.0000
  H   H9        1.0  0.14373389893250982  0.17496747285922962  0.6749130395970228  1.0000
  H   H10       1.0  0.9940226923943172  0.32492776795349  0.8248979655571705  1.0000
  H   H11       1.0  0.8562726103924874  0.8250167876219905  0.32508561161132127  1.0000
  H   H12       1.0  0.005982727683672806  0.6750644444161792  0.17510496692467833  1.0000
  H   H13       1.0  0.812891995218742  0.03602315613131421  0.5633789526197931  1.0000
  H   H14       1.0  0.4123495683143543  0.46363855017156663  0.9369238342623237  1.0000
  H   H15       1.0  0.18710721678025496  0.9639882581314013  0.4366188202302725  1.0000
  H   H16       1.0  0.5876542729414423  0.5363687674792816  0.06306898479059703  1.0000
  H   H17       1.0  0.3815222026005215  0.4991684416937901  0.3488085006337799  1.0000
  H   H18       1.0  0.2296457368212685  0.0003955050441817017  0.15109065982912281  1.0000
  H   H19       1.0  0.618485880809061  0.5008339419329744  0.651190062141744  1.0000
  H   H20       1.0  0.7703406773847234  0.9996057013201991  0.8489106025001477  1.0000
  H   H21       1.0  0.691143904761198  0.8642351128496059  0.7132870639075294  1.0000
  H   H22       1.0  0.26856600523390034  0.6358530289839663  0.7870904520141624  1.0000
  H   H23       1.0  0.30886149146026287  0.13576728097861954  0.28671173134482336  1.0000
  H   H24       1.0  0.731426805032974  0.36415206688347723  0.21291094489993162  1.0000
  H   H25       1.0  0.6941313137069328  0.3074746566575115  0.3938335163336931  1.0000
  H   H26       1.0  0.39554463159802106  0.1921509560662145  0.10620917399696593  1.0000
  H   H27       1.0  0.30587234167219857  0.6925253298888024  0.6061695390804972  1.0000
  H   H28       1.0  0.6044512274394401  0.8078440369971177  0.8937982068403941  1.0000
  C   C1        1.0  0.33088927635895266  0.9242486230000749  0.8022903124010767  1.0000
  C   C2        1.0  0.05756126606166126  0.5757163371742492  0.6977767964418718  1.0000
  C   C3        1.0  0.6691182603219089  0.0757419762793248  0.1977051796968965  1.0000
  C   C4        1.0  0.9424337191332199  0.42428618631569753  0.30222500788837453  1.0000
  C   C5        1.0  0.28946764989293405  0.1410192453477777  0.6452911254004264  1.0000
  C   C6        1.0  0.07617025949654263  0.3588011572243133  0.8546085822207916  1.0000
  C   C7        1.0  0.7105362123837721  0.85897667639842  0.35470771020642644  1.0000
  C   C8        1.0  0.9238319372766668  0.6411986846293233  0.14539108540136425  1.0000
  C   C9        1.0  0.41021379274008746  0.010065090097136005  0.7018934145841983  1.0000
  C   C10       1.0  0.12243775962790694  0.4898661153194298  0.7981631846143245  1.0000
  C   C11       1.0  0.5897899675056381  0.989933471272174  0.29810659126410854  1.0000
  C   C12       1.0  0.8775613102002705  0.5101362875028742  0.20183580655552896  1.0000
  C   C13       1.0  0.3597445509157636  0.22914909844368478  0.5558324404223925  1.0000
  C   C14       1.0  0.1450378384058694  0.27060588769818844  0.9440969010245227  1.0000
  C   C15       1.0  0.6402541755152527  0.7708507866305326  0.4441682302257208  1.0000
  C   C16       1.0  0.8549648706274623  0.7293965163314908  0.05590212670465181  1.0000
  C   C17       1.0  0.5486100484217146  0.18945479259429018  0.5252236338648261  1.0000
  C   C18       1.0  0.2635777521359156  0.31019060851476615  0.9747833784677343  1.0000
  C   C19       1.0  0.4513877928242565  0.8105477651221519  0.4747789775738839  1.0000
  C   C20       1.0  0.7364262466403771  0.6898118957796414  0.025217997468182263  1.0000
  C   C21       1.0  0.6698506014363161  0.06123195404993001  0.5831131378292016  1.0000
  C   C22       1.0  0.3143373387119083  0.4385324366133148  0.9170719400250464  1.0000
  C   C23       1.0  0.33014843602848026  0.938776986892641  0.4168873540844301  1.0000
  C   C24       1.0  0.68566475886594  0.5614712593095348  0.0829270185141411  1.0000
  C   C25       1.0  0.4043200651267894  0.39987339513253073  0.41491254979793274  1.0000
  C   C26       1.0  0.21933774220916996  0.0997498387810865  0.0850087675190991  1.0000
  C   C27       1.0  0.5956816918895171  0.600128997488319  0.5850862088950919  1.0000
  C   C28       1.0  0.7806540463730793  0.9002513471803796  0.9149920298565208  1.0000
  C   C29       1.0  0.5988598543416048  0.9700632192569287  0.6697885826762331  1.0000
  C   C30       1.0  0.2388474628701331  0.5298533147094987  0.8304149521851516  1.0000
  C   C31       1.0  0.4011400654726245  0.029941834597316603  0.33021184777123125  1.0000
  C   C32       1.0  0.7611469137048774  0.47015171511971227  0.16958490363067114  1.0000
  N   N1        1.0  0.2735451262224801  0.3627716855565737  0.48516241865085163  1.0000
  N   N2        1.0  0.1217669326876987  0.1369397599495059  0.014695140551680195  1.0000
  N   N3        1.0  0.7264600314684203  0.6372267653465471  0.5148350065138844  1.0000
  N   N4        1.0  0.8782360500751946  0.8630612633311119  0.9853018771969108  1.0000
  N   N5        1.0  0.5710456998245305  0.2999637095335573  0.43568328240225185  1.0000
  N   N6        1.0  0.30690542843386476  0.19962640165716292  0.0643170808351528  1.0000
  N   N7        1.0  0.4289534340000145  0.7000401628937142  0.5643197979187704  1.0000
  N   N8        1.0  0.6930903370794608  0.80037487436757  0.9356858322703803  1.0000
  O   O1        1.0  0.15791384815802428  0.9759907047261721  0.8306882280398541  1.0000
  O   O2        1.0  0.9647510870423444  0.5240209223491449  0.6693623176310696  1.0000
  O   O3        1.0  0.8420948094028303  0.0239999503900137  0.16930857267956873  1.0000
  O   O4        1.0  0.035250940867903834  0.47597887507654246  0.3306363104057938  1.0000
  O   O5        1.0  0.4405071592710002  0.80571183644048  0.8564214554730897  1.0000
  O   O6        1.0  0.1026941320460962  0.6942699988723717  0.6436369345539036  1.0000
  O   O7        1.0  0.5594939841845983  0.19427608778195093  0.14357202271563096  1.0000
  O   O8        1.0  0.8973031997753721  0.3057312111141287  0.3563644374533581  1.0000
  O   O9        1.0  0.7724413118041226  0.22839933281167654  0.9563677667151113  1.0000
  O   O10       1.0  0.9571128796263437  0.27197060198056283  0.5435728932387178  1.0000
  O   O11       1.0  0.22755473311000438  0.7716029913561897  0.043629377760979145  1.0000
  O   O12       1.0  0.04288227726711806  0.7280331803834272  0.4564280713523915  1.0000
