data_image0
_chemical_formula_structural       Nd4H44C44O36
_chemical_formula_sum              "Nd4 H44 C44 O36"
_cell_length_a       7.79781098500233
_cell_length_b       12.331346474059217
_cell_length_c       12.976290635233118
_cell_angle_alpha    91.16734784439892
_cell_angle_beta     90.00007139673602
_cell_angle_gamma    90.0000510708403

_space_group_name_H-M_alt    "P 1"
_space_group_IT_number       1

loop_
  _space_group_symop_operation_xyz
  'x, y, z'

loop_
  _atom_site_type_symbol
  _atom_site_label
  _atom_site_symmetry_multiplicity
  _atom_site_fract_x
  _atom_site_fract_y
  _atom_site_fract_z
  _atom_site_occupancy
  Nd  Nd1       1.0  0.9231212975484127  0.5249250823455115  0.3098229132051814  1.0000
  Nd  Nd2       1.0  0.42312184263588654  0.4750761634814611  0.19017747822633888  1.0000
  Nd  Nd3       1.0  0.07687775423832481  0.4750764419316838  0.6901775565539058  1.0000
  Nd  Nd4       1.0  0.5768797739732109  0.5249253607964733  0.8098229915337216  1.0000
  H   H1        1.0  0.4303356277639594  0.9243246705653908  0.09877052317838064  1.0000
  H   H2        1.0  0.9303359206245575  0.075674957224976  0.401229845954042  1.0000
  H   H3        1.0  0.569663424021016  0.07567442038916285  0.9012299049105722  1.0000
  H   H4        1.0  0.0696644135699955  0.9243241299133517  0.5987690407932719  1.0000
  H   H5        1.0  0.6228677552599606  0.7637779828005906  0.10152054285940441  1.0000
  H   H6        1.0  0.1228683953334482  0.23622227991937456  0.39848037723557905  1.0000
  H   H7        1.0  0.3771312965264073  0.23622192116981475  0.898480669790658  1.0000
  H   H8        1.0  0.8771319388619078  0.7637768091272508  0.6015192801827995  1.0000
  H   H9        1.0  0.058506996201351996  0.9771144383295153  0.13855310395918963  1.0000
  H   H10       1.0  0.5585058496155924  0.022884974096136504  0.36144698267592196  1.0000
  H   H11       1.0  0.9414920555828203  0.022884650716740413  0.8614465534586986  1.0000
  H   H12       1.0  0.4414944845813693  0.9771141187670909  0.638554216084579  1.0000
  H   H13       1.0  0.5500763712019462  0.11208704066740441  0.11784526424965243  1.0000
  H   H14       1.0  0.0500766148094627  0.887913987182401  0.38215407308984356  1.0000
  H   H15       1.0  0.4499239629931965  0.8879128575784705  0.882153636387699  1.0000
  H   H16       1.0  0.9499237193864831  0.11208591297177861  0.6178455982185727  1.0000
  H   H17       1.0  0.1090128292629515  0.15838042059026242  0.06997590230831463  1.0000
  H   H18       1.0  0.6090104156951455  0.8416206471198465  0.4300257918203415  1.0000
  H   H19       1.0  0.8909887873463661  0.8416202944884221  0.930025324232773  1.0000
  H   H20       1.0  0.3909860712680526  0.15837925494151517  0.5699746501576828  1.0000
  H   H21       1.0  0.1050054157704707  0.1322960300182388  0.20481632114431395  1.0000
  H   H22       1.0  0.6050040417123341  0.8677050334627625  0.29518459926903523  1.0000
  H   H23       1.0  0.894993636015677  0.867704683151409  0.7951841347247284  1.0000
  H   H24       1.0  0.39499501007381366  0.1322956797068855  0.704815856600007  1.0000
  H   H25       1.0  0.16947014390942883  0.8283585318177347  0.19675438552417293  1.0000
  H   H26       1.0  0.6694703689584999  0.17164175598605885  0.303245799305742  1.0000
  H   H27       1.0  0.8305301902873127  0.17164137024473555  0.803246056455308  1.0000
  H   H28       1.0  0.3305299652388315  0.8283589571839658  0.6967546565637833  1.0000
  H   H29       1.0  0.1788482670022802  0.818884815188028  0.05869874462372591  1.0000
  H   H30       1.0  0.6788475093987075  0.18111628915487196  0.4413014612208884  1.0000
  H   H31       1.0  0.8211507847838674  0.18111589798161995  0.9413017112453164  1.0000
  H   H32       1.0  0.3211528247986167  0.8188844240151526  0.5586989946486371  1.0000
  H   H33       1.0  0.912112832006443  0.5647426491359866  0.04366969392161481  1.0000
  H   H34       1.0  0.4121125905991221  0.4352585903146248  0.4563306891459221  1.0000
  H   H35       1.0  0.0878862197802945  0.43525887514120865  0.9563307758374723  1.0000
  H   H36       1.0  0.5878864611870257  0.5647421228550301  0.5436697667231203  1.0000
  H   H37       1.0  0.10043683838793531  0.6727589488054523  0.4672956998314391  1.0000
  H   H38       1.0  0.6004354394246151  0.32724130092186243  0.032705203220878304  1.0000
  H   H39       1.0  0.8995647782199896  0.3272409532573947  0.5327047421485319  1.0000
  H   H40       1.0  0.39956489477212653  0.6727586011406076  0.9672952387586026  1.0000
  H   H41       1.0  0.22173744911659551  0.6772068565192559  0.3696634444179453  1.0000
  H   H42       1.0  0.7217362464052782  0.32279265044996214  0.13033676623146564  1.0000
  H   H43       1.0  0.7782641674899438  0.3227922325277391  0.6303362130009165  1.0000
  H   H44       1.0  0.2782640877906672  0.6772072497042103  0.8696629050769504  1.0000
  C   C1        1.0  0.5679511897804091  0.9358576363762625  0.1083814222590789  1.0000
  C   C2        1.0  0.0679515727434534  0.06414340182672622  0.39161792866086403  1.0000
  C   C3        1.0  0.43204786200552553  0.06414388599263532  0.8916182768289433  1.0000
  C   C4        1.0  0.9320474790391131  0.9358556834029274  0.6083801874148949  1.0000
  C   C5        1.0  0.6747349408884133  0.8453646421204015  0.10904814493115113  1.0000
  C   C6        1.0  0.17473416778074843  0.15463483762494695  0.39095203000827183  1.0000
  C   C7        1.0  0.32526539330715565  0.15463363772698102  0.8909522692682474  1.0000
  C   C8        1.0  0.8252661664151971  0.8453650625292257  0.6090476413001442  1.0000
  C   C9        1.0  0.8513704340322904  0.8607849992768241  0.12189680635443523  1.0000
  C   C10       1.0  0.3513683300937914  0.13921457895936842  0.3781019614411464  1.0000
  C   C11       1.0  0.1486311825748317  0.13921490087771823  0.878102864954471  1.0000
  C   C12       1.0  0.6486307216895781  0.8607845081785899  0.6218969253056772  1.0000
  C   C13       1.0  0.9212875743205801  0.9652174848527653  0.13053773329775004  1.0000
  C   C14       1.0  0.4212878698820646  0.034782135788646015  0.36946185828934136  1.0000
  C   C15       1.0  0.07871147746300981  0.03478079308594321  0.8694619102300865  1.0000
  C   C16       1.0  0.5787111819007222  0.9652161402417649  0.6305370145674304  1.0000
  C   C17       1.0  0.8101736959298977  0.05464994047127192  0.12922126202786904  1.0000
  C   C18       1.0  0.3101739970052365  0.9453488047050842  0.37077823125043363  1.0000
  C   C19       1.0  0.18982663826604812  0.9453499596829005  0.8707784092805542  1.0000
  C   C20       1.0  0.689825054778133  0.05465028243287411  0.6292206554963901  1.0000
  C   C21       1.0  0.6327674775951307  0.04084136191485041  0.11906429858446194  1.0000
  C   C22       1.0  0.132765254407893  0.9591589008133357  0.3809343170175482  1.0000
  C   C23       1.0  0.36723285659942206  0.9591577252234773  0.8809345881628448  1.0000
  C   C24       1.0  0.8672337973752633  0.04084099552386531  0.6190638129482553  1.0000
  C   C25       1.0  0.045534849441061495  0.17969406331747004  0.14346135214062633  1.0000
  C   C26       1.0  0.545534818171909  0.8203069657183877  0.3565395230904827  1.0000
  C   C27       1.0  0.9544642023442836  0.8203066479438806  0.8565383330573514  1.0000
  C   C28       1.0  0.4544655160254223  0.1796937474516298  0.6434609327790498  1.0000
  C   C29       1.0  0.0806858506603874  0.29830584915080754  0.1695149068117631  1.0000
  C   C30       1.0  0.5806817507010464  0.7016952021517329  0.3304867657948308  1.0000
  C   C31       1.0  0.9193132011271459  0.7016956770346853  0.8304863336183956  1.0000
  C   C32       1.0  0.419317301085691  0.2983063221254625  0.6695137039642562  1.0000
  C   C33       1.0  0.1294011013010703  0.779881444277848  0.12827757308907206  1.0000
  C   C34       1.0  0.6294015368213692  0.22011800921034563  0.3717225674084333  1.0000
  C   C35       1.0  0.870597950483692  0.22011845587595505  0.871722098218861  1.0000
  C   C36       1.0  0.37059751496419585  0.779881892851755  0.6282778745705644  1.0000
  C   C37       1.0  0.21364134225677134  0.6700001709833221  0.13828994399269592  1.0000
  C   C38       1.0  0.7136406296846474  0.3300001404959971  0.36170950372486743  1.0000
  C   C39       1.0  0.7863602743517363  0.33000054218707237  0.861710511877327  1.0000
  C   C40       1.0  0.28635842209990164  0.6700005688570561  0.6382894108020454  1.0000
  C   C41       1.0  0.7745716767835163  0.552758926273171  0.06034371621569792  1.0000
  C   C42       1.0  0.27457270011084495  0.4472414204976973  0.43965577779433573  1.0000
  C   C43       1.0  0.22543122223837037  0.44724260182173486  0.9396582948869824  1.0000
  C   C44       1.0  0.7254276340864863  0.5527592926723274  0.5603446780751967  1.0000
  O   O1        1.0  0.8655252106495014  0.1601122612518751  0.13777192984599654  1.0000
  O   O2        1.0  0.3655240627261449  0.8398881401072277  0.3622284039362143  1.0000
  O   O3        1.0  0.13447512354563432  0.8398876369940002  0.8622269707913548  1.0000
  O   O4        1.0  0.6344749890578143  0.16011175813827805  0.6377704967006537  1.0000
  O   O5        1.0  0.2384814390412089  0.3197608329926568  0.17624014471383026  1.0000
  O   O6        1.0  0.7384824244937321  0.6802403097070597  0.3237616477798755  1.0000
  O   O7        1.0  0.7615150479233748  0.6802398820845426  0.8237610818253034  1.0000
  O   O8        1.0  0.26151662729300545  0.3197612145701356  0.6762388219792115  1.0000
  O   O9        1.0  0.9568677028745116  0.3645582594184163  0.18280199051542928  1.0000
  O   O10       1.0  0.4568687378054577  0.6354430116796197  0.31720073856830316  1.0000
  O   O11       1.0  0.0431287840878838  0.6354416407346479  0.8171976807915302  1.0000
  O   O12       1.0  0.5431315963926764  0.3645577033986954  0.6828004879722942  1.0000
  O   O13       1.0  0.9484040128250087  0.7680027147107538  0.12402398405913573  1.0000
  O   O14       1.0  0.44840460025285006  0.23199692354496904  0.3759763988008444  1.0000
  O   O15       1.0  0.05159632137253571  0.2319971892600138  0.8759772285914099  1.0000
  O   O16       1.0  0.5515970163552949  0.7680021693186275  0.6240247999601467  1.0000
  O   O17       1.0  0.1365761152905378  0.5919857352796642  0.18229521451029745  1.0000
  O   O18       1.0  0.6365754215462118  0.408014537288139  0.3177064866701684  1.0000
  O   O19       1.0  0.8634242189073761  0.4080157889979008  0.81770525524928  1.0000
  O   O20       1.0  0.363422347831154  0.5919861816060391  0.6822962812115777  1.0000
  O   O21       1.0  0.3659725132712452  0.6599563566553643  0.10539746766414032  1.0000
  O   O22       1.0  0.8659731655204228  0.34004404496334223  0.3946028664585911  1.0000
  O   O23       1.0  0.6340278209282744  0.3400451714387956  0.8946045434375666  1.0000
  O   O24       1.0  0.1340271686731214  0.6599558494659379  0.6053944928366308  1.0000
  O   O25       1.0  0.732208597963357  0.5439057604973244  0.15521719925142466  1.0000
  O   O26       1.0  0.23220815456954114  0.456096187767976  0.3447838316949331  1.0000
  O   O27       1.0  0.267791736234564  0.4560957637802405  0.8447832705081526  1.0000
  O   O28       1.0  0.7677908972171964  0.5439053365092195  0.6552166380641538  1.0000
  O   O29       1.0  0.10057397687103992  0.6721119595394852  0.3910754196628545  1.0000
  O   O30       1.0  0.600574019345956  0.327889910574477  0.10892474060323565  1.0000
  O   O31       1.0  0.899425074914099  0.32788956092111493  0.608923508754103  1.0000
  O   O32       1.0  0.3994263148513754  0.6721108025955476  0.891075715266297  1.0000
  O   O33       1.0  0.6689083659744456  0.5479389153099066  0.9877406163281467  1.0000
  O   O34       1.0  0.1689059446809082  0.45206132232289065  0.512261515240084  1.0000
  O   O35       1.0  0.33108940340110143  0.45206260896691935  0.012259853430457204  1.0000
  O   O36       1.0  0.831091824694056  0.5479393908463878  0.48773894062846795  1.0000
