data_image0
_chemical_formula_structural       Er4Cu4H128C192N16O32
_chemical_formula_sum              "Er4 Cu4 H128 C192 N16 O32"
_cell_length_a       15.930867358675666
_cell_length_b       19.575007673076225
_cell_length_c       19.570893805838775
_cell_angle_alpha    80.45477985662147
_cell_angle_beta     65.9946214731325
_cell_angle_gamma    65.99558075617765

_space_group_name_H-M_alt    "P 1"
_space_group_IT_number       1

loop_
  _space_group_symop_operation_xyz
  'x, y, z'

loop_
  _atom_site_type_symbol
  _atom_site_label
  _atom_site_symmetry_multiplicity
  _atom_site_fract_x
  _atom_site_fract_y
  _atom_site_fract_z
  _atom_site_occupancy
  Er  Er1       1.0  0.2061055318776823  0.3843408591362092  0.20154830525992654  1.0000
  Er  Er2       1.0  0.7918555446730338  0.6157939123252802  0.7981738088580312  1.0000
  Er  Er3       1.0  0.5923080645831861  0.201841505092915  0.6154984411924573  1.0000
  Er  Er4       1.0  0.4094704334462238  0.7983543867601598  0.38448891213064945  1.0000
  Cu  Cu1       1.0  0.3589388616020982  0.6836366713663298  0.09365681783148723  1.0000
  Cu  Cu2       1.0  0.13622816070161994  0.31646837116699794  0.9062362222920015  1.0000
  Cu  Cu3       1.0  0.5472045055801473  0.09408070634560062  0.3163202958254487  1.0000
  Cu  Cu4       1.0  0.9575411020797658  0.9060945583187562  0.6836997648608617  1.0000
  H   H1        1.0  0.024968446450529345  0.4357592564050918  0.45729187670791305  1.0000
  H   H2        1.0  0.9983522521286119  0.4139547614746989  0.5927726973179261  1.0000
  H   H3        1.0  0.33964062116621824  0.3313732477786502  0.39822134092435146  1.0000
  H   H4        1.0  0.31534850376325363  0.3074916529925106  0.5328209412306109  1.0000
  H   H5        1.0  0.2609768470496263  0.2358249460595516  0.635227566773608  1.0000
  H   H6        1.0  0.24768533687996105  0.22457768938402725  0.7662208993115129  1.0000
  H   H7        1.0  0.019326100116423012  0.4515031817038207  0.6920011715763437  1.0000
  H   H8        1.0  0.0167514872641662  0.43268332151254196  0.8198165373841704  1.0000
  H   H9        1.0  0.9951250848513168  0.5671748773908902  0.07362668306315355  1.0000
  H   H10       1.0  0.8381521422903546  0.6226123148661743  0.05011189814516106  1.0000
  H   H11       1.0  0.8844256420433468  0.41518870751661313  0.23300690370059846  1.0000
  H   H12       1.0  0.7275563495503546  0.46842903032297306  0.20880697454298766  1.0000
  H   H13       1.0  0.7353093441517656  0.6021755691274607  0.9975565088916981  1.0000
  H   H14       1.0  0.5722867931273898  0.648742781577873  0.9864701652860575  1.0000
  H   H15       1.0  0.5869043089230173  0.5750200434118541  0.23510388794767317  1.0000
  H   H16       1.0  0.4298501228210938  0.6231035573028194  0.21474287037968762  1.0000
  H   H17       1.0  0.5531847970577958  0.2604086610987011  0.08217536610350613  1.0000
  H   H18       1.0  0.7293351618273007  0.24526045742509686  0.04425239470310065  1.0000
  H   H19       1.0  0.45771646747646594  0.49543034691160426  0.11635205202527742  1.0000
  H   H20       1.0  0.6326719862538753  0.4816109722605688  0.07753529474432237  1.0000
  H   H21       1.0  0.8493833279052367  0.24944284752583462  0.0871821505564371  1.0000
  H   H22       1.0  0.02389341131212316  0.24101897843834058  0.03604953974942051  1.0000
  H   H23       1.0  0.7763722649386936  0.461440980377617  0.9722568341838809  1.0000
  H   H24       1.0  0.9499532139990381  0.4474569062591556  0.931366670337127  1.0000
  H   H25       1.0  0.21304329188954088  0.19708009388344297  0.059366506753271236  1.0000
  H   H26       1.0  0.24422396096484528  0.06523799411321113  0.03698266098332679  1.0000
  H   H27       1.0  0.2514758810553275  0.1314928083783684  0.2681393697468266  1.0000
  H   H28       1.0  0.2898142099013655  0.9978574510071566  0.24464266190830852  1.0000
  H   H29       1.0  0.16666036108055943  0.969596031024267  0.09157942793380877  1.0000
  H   H30       1.0  0.209740972767541  0.8357162697961588  0.06859322184908483  1.0000
  H   H31       1.0  0.4193605960501401  0.8974834117738837  0.15540637598801513  1.0000
  H   H32       1.0  0.45416988086653015  0.7678240131310903  0.12754078901349433  1.0000
  H   H33       1.0  0.9184131341256574  0.5640096240551459  0.5422289681421689  1.0000
  H   H34       1.0  0.0057817674350175525  0.5858973948886971  0.406825880474905  1.0000
  H   H35       1.0  0.06892679002213936  0.6685821753313591  0.6019517762629789  1.0000
  H   H36       1.0  0.1558056882197434  0.6924263561863742  0.4674013301216108  1.0000
  H   H37       1.0  0.13248921349464382  0.7640301414648647  0.3647490731698683  1.0000
  H   H38       1.0  0.2385706118886615  0.775448011419414  0.23368873779816815  1.0000
  H   H39       1.0  0.16343798431577042  0.5482889440739598  0.3079951828746985  1.0000
  H   H40       1.0  0.2695770018078748  0.5672050669908443  0.18012182221398385  1.0000
  H   H41       1.0  0.6360168378114606  0.4329435661113337  0.9262288370266846  1.0000
  H   H42       1.0  0.5109663110141656  0.3774415013754507  0.9498036265822947  1.0000
  H   H43       1.0  0.532652719429258  0.584821301219016  0.7668170197183174  1.0000
  H   H44       1.0  0.4047799919298853  0.531563733944111  0.7910990432362582  1.0000
  H   H45       1.0  0.3348060400416628  0.3982505368402158  0.0024833557822888223  1.0000
  H   H46       1.0  0.20725479300658375  0.35163836474003324  0.013616892406858544  1.0000
  H   H47       1.0  0.39720779127092215  0.424772241803467  0.7648370939339487  1.0000
  H   H48       1.0  0.2678785217392202  0.37664958682593414  0.7852611300369929  1.0000
  H   H49       1.0  0.8954828787558071  0.7396069786154698  0.9177025167875359  1.0000
  H   H50       1.0  0.018482086062903164  0.7549523499910579  0.9555617790050519  1.0000
  H   H51       1.0  0.06921452174656675  0.5045924993575001  0.8838130285591957  1.0000
  H   H52       1.0  0.1914335553882296  0.51856064671329  0.9226183653624175  1.0000
  H   H53       1.0  0.18570862451358747  0.7508902194309571  0.9126836978534244  1.0000
  H   H54       1.0  0.3006417332088132  0.7594128530270653  0.9637929970077509  1.0000
  H   H55       1.0  0.2098094392534904  0.5389408390685304  0.02776089109078584  1.0000
  H   H56       1.0  0.32853344477828716  0.5529996155660444  0.06855236867962587  1.0000
  H   H57       1.0  0.46914328624223595  0.8029020361510961  0.9407022464620952  1.0000
  H   H58       1.0  0.3462082144031981  0.9347743434257509  0.9631607679650642  1.0000
  H   H59       1.0  0.6507142521691305  0.8685477422815779  0.7320048156959303  1.0000
  H   H60       1.0  0.532081775947539  0.0022021943053261  0.7555458665930742  1.0000
  H   H61       1.0  0.2276281566387014  0.0303770797654721  0.9085176486968862  1.0000
  H   H62       1.0  0.11384444328333385  0.16427256597965106  0.931423172314247  1.0000
  H   H63       1.0  0.4719623110649282  0.10259289059536061  0.8447675107157623  1.0000
  H   H64       1.0  0.3492407759552665  0.2322195262212858  0.8726294720927968  1.0000
  H   H65       1.0  0.5176142052068117  0.45775112123909184  0.5640793017360153  1.0000
  H   H66       1.0  0.4085463575209045  0.5931625689064931  0.5859432765719462  1.0000
  H   H67       1.0  0.26242393098625166  0.39817997104511  0.6686310948994105  1.0000
  H   H68       1.0  0.1518751326849426  0.5326979043592318  0.6924761639576573  1.0000
  H   H69       1.0  0.10352065427571923  0.6350255035834993  0.7640271685655904  1.0000
  H   H70       1.0  0.9859362634460496  0.7660100406386334  0.7754386456624545  1.0000
  H   H71       1.0  0.28856043771128975  0.6921822288760069  0.548565762430016  1.0000
  H   H72       1.0  0.16338226221220975  0.8199535846493902  0.5674488072965646  1.0000
  H   H73       1.0  0.9311546125338238  0.07374933754776693  0.4327575118929161  1.0000
  H   H74       1.0  0.11163384909932002  0.0502170767960877  0.377448289765205  1.0000
  H   H75       1.0  0.8823851132319049  0.2331137433553819  0.5847015303610803  1.0000
  H   H76       1.0  0.0634278643027244  0.20889887005401422  0.5316199413234273  1.0000
  H   H77       1.0  0.2670662093134552  0.9976272767365018  0.3982197264712042  1.0000
  H   H78       1.0  0.44113924466746796  0.9866679815701151  0.3516074310634493  1.0000
  H   H79       1.0  0.17788638620197614  0.23519601004048252  0.4249623386483846  1.0000
  H   H80       1.0  0.355215475792498  0.21496502803184814  0.376817490181324  1.0000
  H   H81       1.0  0.3650121592718991  0.08206969816160381  0.7394917347166016  1.0000
  H   H82       1.0  0.2268990386587931  0.043967814748299396  0.7547575013824571  1.0000
  H   H83       1.0  0.4262810155419814  0.11592019913161519  0.5043820281740922  1.0000
  H   H84       1.0  0.29022679935747686  0.07698762364336179  0.5183488064945578  1.0000
  H   H85       1.0  0.0640950147115688  0.0866426595881151  0.7508936826226816  1.0000
  H   H86       1.0  0.9403664320540842  0.03573544202804871  0.7595565934794309  1.0000
  H   H87       1.0  0.2511640607338493  0.9721446209321201  0.5386681155900916  1.0000
  H   H88       1.0  0.11819665155936596  0.931504273565608  0.552845024203073  1.0000
  H   H89       1.0  0.7281058412223731  0.0594287206251778  0.8026103342252072  1.0000
  H   H90       1.0  0.7191078828875208  0.03683856804016019  0.9345405948334645  1.0000
  H   H91       1.0  0.48084881577538874  0.2679905757991961  0.8681563745908321  1.0000
  H   H92       1.0  0.46578531521258526  0.24432712568715695  0.0018591147834925307  1.0000
  H   H93       1.0  0.741929755647824  0.091345154300619  0.03017636491582466  1.0000
  H   H94       1.0  0.72179551394062  0.0687109921638367  0.16412129641455664  1.0000
  H   H95       1.0  0.4253777088480533  0.1553078664719933  0.10237255694576672  1.0000
  H   H96       1.0  0.4184220644495725  0.1278092282063881  0.23210318328503374  1.0000
  H   H97       1.0  0.5397704372181805  0.5423644816285671  0.43590906445326283  1.0000
  H   H98       1.0  0.5880102303806892  0.40695755793822747  0.413943381895976  1.0000
  H   H99       1.0  0.3292719864560851  0.6019520965869065  0.3316030495319141  1.0000
  H   H100      1.0  0.3771451953294688  0.46742628622059373  0.3076381221052317  1.0000
  H   H101      1.0  0.5030017926765497  0.3650190694334371  0.23588273935408924  1.0000
  H   H102      1.0  0.5277150154241639  0.23401136757197352  0.22454535505474382  1.0000
  H   H103      1.0  0.5289141680497949  0.30809974616835234  0.4516492368705157  1.0000
  H   H104      1.0  0.5503419563590414  0.18031768057483796  0.4328239314130614  1.0000
  H   H105      1.0  0.4377883613319466  0.9261657356553387  0.5672588003759885  1.0000
  H   H106      1.0  0.539436662518703  0.9495966905815652  0.6226850647843707  1.0000
  H   H107      1.0  0.7002728402683548  0.7667470013862712  0.4153859308399462  1.0000
  H   H108      1.0  0.8040246274239492  0.79084169770875  0.46860128314415317  1.0000
  H   H109      1.0  0.6630343202946847  0.0022258057251889007  0.6017533885772933  1.0000
  H   H110      1.0  0.7795890014330809  0.013338570118897101  0.6482298905502261  1.0000
  H   H111      1.0  0.8380956504975501  0.7646482947064328  0.5752891572904275  1.0000
  H   H112      1.0  0.94712490086912  0.785029720273748  0.6232762605142171  1.0000
  H   H113      1.0  0.18623250508503716  0.9176827051620225  0.26057007437306373  1.0000
  H   H114      1.0  0.025190918873946172  0.9559063594279921  0.24542372058341747  1.0000
  H   H115      1.0  0.046557490178763414  0.8839632503471151  0.49571646840583133  1.0000
  H   H116      1.0  0.8853849519345404  0.9229973807944204  0.4818968249061087  1.0000
  H   H117      1.0  0.9010231928001321  0.9130193083925704  0.2496181750400269  1.0000
  H   H118      1.0  0.7350858053745313  0.9640850086057783  0.2409132342113197  1.0000
  H   H119      1.0  0.7618142969535668  0.028247601550766898  0.46139930835920506  1.0000
  H   H120      1.0  0.6023762963685043  0.0689978030620821  0.4472362776220181  1.0000
  H   H121      1.0  0.5901578901073851  0.9402699943228254  0.19718190377894024  1.0000
  H   H122      1.0  0.6908553752381791  0.9626744462478456  0.06531146781404115  1.0000
  H   H123      1.0  0.6168516590622843  0.731717343091461  0.13163356494229833  1.0000
  H   H124      1.0  0.7121383622557218  0.7552369740990699  0.997952082602659  1.0000
  H   H125      1.0  0.8639658607456016  0.9079520724921863  0.9696707969042394  1.0000
  H   H126      1.0  0.9547451439373021  0.9309530317735409  0.8357575809918815  1.0000
  H   H127      1.0  0.6830057137742216  0.8445734232767776  0.8975145395577397  1.0000
  H   H128      1.0  0.7778657070069741  0.8724918088106649  0.7678244684658749  1.0000
  C   C1        1.0  0.2003321743883504  0.3956681242714313  0.33908471398093815  1.0000
  C   C2        1.0  0.183859970732911  0.384539311991631  0.4200367994690666  1.0000
  C   C3        1.0  0.08767086713788064  0.4080087731636938  0.4748730800374973  1.0000
  C   C4        1.0  0.07331218533357747  0.395201084153598  0.5501921103126719  1.0000
  C   C5        1.0  0.2654222838431581  0.3482116583145825  0.4414533668572105  1.0000
  C   C6        1.0  0.2514158931588922  0.33461943634263497  0.5164460152612947  1.0000
  C   C7        1.0  0.15499139207859264  0.3579674450231138  0.5717889746405262  1.0000
  C   C8        1.0  0.1421442435797858  0.3454919105094022  0.6510949959117198  1.0000
  C   C9        1.0  0.20511487344598564  0.28071516941074753  0.6744353312692511  1.0000
  C   C10       1.0  0.19754718779140762  0.2740110541894225  0.7481752973484106  1.0000
  C   C11       1.0  0.07097954407779389  0.3997123077412184  0.7058777079489644  1.0000
  C   C12       1.0  0.06905683513928547  0.3889447468095498  0.7783748675942732  1.0000
  C   C13       1.0  0.039512763835453844  0.4558996661381229  0.17320509394149752  1.0000
  C   C14       1.0  0.9485039279376508  0.48826332100487946  0.15508477992253938  1.0000
  C   C15       1.0  0.9361061376950132  0.5458766463404315  0.10273503227431759  1.0000
  C   C16       1.0  0.8484964440971651  0.5762752865486149  0.08929559790830417  1.0000
  C   C17       1.0  0.8729765424104557  0.4604353149542675  0.19294332393094757  1.0000
  C   C18       1.0  0.7856911345882337  0.49075117498974663  0.17968774752237238  1.0000
  C   C19       1.0  0.7717903198629158  0.5496410045449948  0.1282156095838616  1.0000
  C   C20       1.0  0.6769075317261865  0.5819508150345599  0.11749119515171469  1.0000
  C   C21       1.0  0.6697429849285396  0.6055401572968437  0.047549801730241446  1.0000
  C   C22       1.0  0.5782063209486026  0.6313327199767613  0.040735132162069546  1.0000
  C   C23       1.0  0.5878839618232308  0.5890205843442758  0.17862638930392893  1.0000
  C   C24       1.0  0.4994149793130303  0.6160946683734354  0.1676381174598021  1.0000
  C   C25       1.0  0.3909828194027369  0.3847588926128509  0.12386878818313113  1.0000
  C   C26       1.0  0.4950996763600414  0.37848376156662067  0.1009485506645333  1.0000
  C   C27       1.0  0.572124027847117  0.30818480308564494  0.08108615458004217  1.0000
  C   C28       1.0  0.6699739015749058  0.3000969908871057  0.0606301340569146  1.0000
  C   C29       1.0  0.5174333208656846  0.44087623569019035  0.10003990757760313  1.0000
  C   C30       1.0  0.6154644967014634  0.4330268630894737  0.07842654035672339  1.0000
  C   C31       1.0  0.6931836904538855  0.3627341376366644  0.05830658363180433  1.0000
  C   C32       1.0  0.796745980954789  0.35593087376211946  0.03316557939897543  1.0000
  C   C33       1.0  0.8692136651197089  0.2935905337395752  0.050753150183702175  1.0000
  C   C34       1.0  0.9667069349414774  0.288703933426646  0.022678899113977018  1.0000
  C   C35       1.0  0.8276518634923276  0.41219848456520947  0.9896665280759149  1.0000
  C   C36       1.0  0.9263385491113072  0.4034583071791361  0.9646138019127335  1.0000
  C   C37       1.0  0.2159330709397267  0.24917599614709474  0.1776152055389204  1.0000
  C   C38       1.0  0.23062338533222265  0.1713450819840006  0.16510928576362013  1.0000
  C   C39       1.0  0.22771450442670024  0.15319361425071076  0.10007424916452123  1.0000
  C   C40       1.0  0.24498555979123884  0.07979134488225982  0.0880513064249655  1.0000
  C   C41       1.0  0.251515623257113  0.11552793184954882  0.2174219697299336  1.0000
  C   C42       1.0  0.2723680834349977  0.04160259596854131  0.20431969024599542  1.0000
  C   C43       1.0  0.2685547685253765  0.023310129944320603  0.13941235935237017  1.0000
  C   C44       1.0  0.2904729186204732  0.9454069147249629  0.1246961118381904  1.0000
  C   C45       1.0  0.2318070158827652  0.9263715895250187  0.09950444314331723  1.0000
  C   C46       1.0  0.25572223916606157  0.8518732024781812  0.08641484249842082  1.0000
  C   C47       1.0  0.3712351274299123  0.8865566603597871  0.13563825587862513  1.0000
  C   C48       1.0  0.391172558320065  0.813838011304874  0.11977600357749917  1.0000
  C   C49       1.0  0.9348916593406641  0.6042806371505878  0.6607085541276873  1.0000
  C   C50       1.0  0.988442858395494  0.615351070528128  0.5797965584116724  1.0000
  C   C51       1.0  0.9708512023936607  0.5918200539779831  0.5248195990714067  1.0000
  C   C52       1.0  0.019151150623002825  0.6046705955382166  0.44955735503787514  1.0000
  C   C53       1.0  0.05497883268193965  0.6517568687400015  0.5585767448681693  1.0000
  C   C54       1.0  0.10261819858749283  0.665322398453938  0.48363336757356024  1.0000
  C   C55       1.0  0.08512012038706733  0.641936872830165  0.42815531114333544  1.0000
  C   C56       1.0  0.13925576667541853  0.6543453140169008  0.3488691539031947  1.0000
  C   C57       1.0  0.16074934599654972  0.719142886661814  0.32552765263996264  1.0000
  C   C58       1.0  0.21997820715316144  0.7259471371080795  0.2517493445788972  1.0000
  C   C59       1.0  0.17709779391945793  0.6001074362606361  0.29409718471701757  1.0000
  C   C60       1.0  0.2367537357730144  0.6109346379978646  0.22157290679392364  1.0000
  C   C61       1.0  0.6685154465901347  0.5442427306734956  0.8266716486716917  1.0000
  C   C62       1.0  0.591858093477171  0.5117942426705896  0.8447576633742458  1.0000
  C   C63       1.0  0.5848028274523854  0.454177615868467  0.8971191319874735  1.0000
  C   C64       1.0  0.5141906173669925  0.4237401342026034  0.9105615362344609  1.0000
  C   C65       1.0  0.5263764982483891  0.539582673290937  0.8068810855872712  1.0000
  C   C66       1.0  0.4561641177474346  0.5092598806954952  0.8201815291626104  1.0000
  C   C67       1.0  0.449707293103131  0.45039074408647645  0.8716849423661233  1.0000
  C   C68       1.0  0.3763525122120014  0.41812373999543695  0.8824874658072801  1.0000
  C   C69       1.0  0.3226927669847369  0.39471617286359634  0.9524851966627568  1.0000
  C   C70       1.0  0.25012579376448235  0.3689286210116051  0.9593386524814705  1.0000
  C   C71       1.0  0.35562284135213645  0.4109064902375223  0.8213466414180104  1.0000
  C   C72       1.0  0.28322749648392437  0.38383256093574414  0.8323732025792978  1.0000
  C   C73       1.0  0.8994822480869826  0.615191073582551  0.87595173580732  1.0000
  C   C74       1.0  0.97423647925288  0.6215458511756538  0.8990378425503281  1.0000
  C   C75       1.0  0.9611070139826126  0.6918751566596627  0.9188191065003082  1.0000
  C   C76       1.0  0.03040468822613501  0.7000556130929427  0.9392494196588997  1.0000
  C   C77       1.0  0.058031985208685764  0.5592057582359972  0.9000429373554228  1.0000
  C   C78       1.0  0.12656180360117725  0.5671330137988235  0.9216606198078878  1.0000
  C   C79       1.0  0.11394980755485305  0.6374852439308896  0.9416330122158173  1.0000
  C   C80       1.0  0.18558268322946983  0.6443858831355912  0.9667383161179829  1.0000
  C   C81       1.0  0.2132865759898836  0.7067602215608133  0.9491156744060234  1.0000
  C   C82       1.0  0.2778306849801311  0.7116981798918475  0.9771574845177613  1.0000
  C   C83       1.0  0.2292840828072116  0.5881676425281553  0.010255140101357096  1.0000
  C   C84       1.0  0.29419355330940505  0.5969575877852551  0.035261108477989495  1.0000
  C   C85       1.0  0.6424062650413449  0.7508772734992704  0.8224412886770337  1.0000
  C   C86       1.0  0.5667269242256623  0.8286903105336094  0.8349811126998857  1.0000
  C   C87       1.0  0.4806756910249206  0.8468111928605995  0.9000249366603157  1.0000
  C   C88       1.0  0.41258455036603436  0.9202179467805963  0.9121051170781272  1.0000
  C   C89       1.0  0.5841061231959871  0.8845218466017428  0.7827138635541006  1.0000
  C   C90       1.0  0.5180137115408601  0.9584486188941738  0.7958586929367543  1.0000
  C   C91       1.0  0.43106118364200835  0.97672997150066  0.8607903336796241  1.0000
  C   C92       1.0  0.36031855461261153  0.0546131957265104  0.8754346291679764  1.0000
  C   C93       1.0  0.2574602108316027  0.07362460947377512  0.900563963209173  1.0000
  C   C94       1.0  0.19378377435927527  0.14813592936395986  0.9136222609510725  1.0000
  C   C95       1.0  0.39316515755382403  0.11348419722234128  0.8644831305247037  1.0000
  C   C96       1.0  0.3245273285131774  0.18619403640723683  0.8803348073121313  1.0000
  C   C97       1.0  0.460669666021943  0.3393757002268174  0.6042149126017905  1.0000
  C   C98       1.0  0.39616292263647784  0.42027711698307274  0.6153886138620734  1.0000
  C   C99       1.0  0.43737168232537704  0.4752069693296337  0.5918665599912458  1.0000
  C   C100      1.0  0.376327669622583  0.5504706437647046  0.6046932425731341  1.0000
  C   C101      1.0  0.29324394941103543  0.441523003555588  0.6518091057381099  1.0000
  C   C102      1.0  0.23215299476115797  0.51644429878494  0.6653735358150641  1.0000
  C   C103      1.0  0.2731096509152024  0.571864004167324  0.6419902637112571  1.0000
  C   C104      1.0  0.20657603122850793  0.6510980116897187  0.6544534132285591  1.0000
  C   C105      1.0  0.12019371634597299  0.6743124427423413  0.7191980890801233  1.0000
  C   C106      1.0  0.054101749904326486  0.7480395214671846  0.7259939782634107  1.0000
  C   C107      1.0  0.22299000544480665  0.7059489134661164  0.6003063762676176  1.0000
  C   C108      1.0  0.15245742226299105  0.7784218259244186  0.6111127640256485  1.0000
  C   C109      1.0  0.7871836346000052  0.1733465713405238  0.5439881085743538  1.0000
  C   C110      1.0  0.8962914415032441  0.15521751455289493  0.5116339740824856  1.0000
  C   C111      1.0  0.9610411718160846  0.10287011745009521  0.4540611895026531  1.0000
  C   C112      1.0  0.0620920333797343  0.08942014309315033  0.42374228294599453  1.0000
  C   C113      1.0  0.9339368271780162  0.19307119283640622  0.5394832762365522  1.0000
  C   C114      1.0  0.03446564252355003  0.179777759307413  0.5092625594783726  1.0000
  C   C115      1.0  0.0998792278159827  0.12831197037275643  0.45040527798978763  1.0000
  C   C116      1.0  0.20548583508583823  0.11757859123478909  0.41816771935222613  1.0000
  C   C117      1.0  0.2826157901586654  0.047652693101838416  0.3947291659134323  1.0000
  C   C118      1.0  0.38094374332383296  0.040910216018332314  0.3689009019314895  1.0000
  C   C119      1.0  0.23335983784868836  0.17873259741696054  0.4110140200642435  1.0000
  C   C120      1.0  0.3327912717368308  0.1678196186009444  0.3839073749603727  1.0000
  C   C121      1.0  0.48527368595939185  0.1239672260775677  0.6150961688578036  1.0000
  C   C122      1.0  0.40432396887491245  0.10072048094567523  0.6213644575215156  1.0000
  C   C123      1.0  0.3472000052282169  0.08087890912695171  0.6917164336934434  1.0000
  C   C124      1.0  0.26983910725546434  0.06033426886184401  0.699860861921259  1.0000
  C   C125      1.0  0.3829485707123652  0.0995968330747417  0.5589922322810139  1.0000
  C   C126      1.0  0.30654768556166806  0.07792821830280872  0.5669218245412254  1.0000
  C   C127      1.0  0.24889539731936602  0.057903188481212495  0.6372733504239889  1.0000
  C   C128      1.0  0.17032066896970116  0.03285068387046411  0.6442405283964945  1.0000
  C   C129      1.0  0.08038058750378242  0.05040136834870881  0.7067096393816855  1.0000
  C   C130      1.0  0.010764939934148421  0.022458993181480504  0.7117339190467504  1.0000
  C   C131      1.0  0.1825853594942545  0.9895365147490124  0.5879834143451816  1.0000
  C   C132      1.0  0.10879109628575652  0.964605861583685  0.5968636498235044  1.0000
  C   C133      1.0  0.6068851673443305  0.17764711713748943  0.7504930916268293  1.0000
  C   C134      1.0  0.6047177791727588  0.16506727712574337  0.8283336440410949  1.0000
  C   C135      1.0  0.6726211857072854  0.10004001994565931  0.8465184993098449  1.0000
  C   C136      1.0  0.6672884414423662  0.08790757925986982  0.9199576610785982  1.0000
  C   C137      1.0  0.5314882422185788  0.2172842054655959  0.8841516565139145  1.0000
  C   C138      1.0  0.5236087095559441  0.20407724727159152  0.9581069274587364  1.0000
  C   C139      1.0  0.592250320343652  0.13916744263764264  0.9764529796278013  1.0000
  C   C140      1.0  0.5850007813887004  0.12451249052187312  0.05439811216223232  1.0000
  C   C141      1.0  0.6688417412365979  0.0993991518331399  0.07343562109580393  1.0000
  C   C142      1.0  0.6579816313164244  0.08651237269308612  0.14798345422981649  1.0000
  C   C143      1.0  0.493276905741432  0.13554859205942194  0.11327047428471815  1.0000
  C   C144      1.0  0.4891826564672784  0.11988867564536325  0.18603607773302855  1.0000
  C   C145      1.0  0.4043730377027827  0.6607310419807604  0.39596566401949923  1.0000
  C   C146      1.0  0.4319936103876288  0.5798281756929241  0.384756463495492  1.0000
  C   C147      1.0  0.5047275907466044  0.5249040087296635  0.40815443721169237  1.0000
  C   C148      1.0  0.5318154265559656  0.4496452046775231  0.3952431810192395  1.0000
  C   C149      1.0  0.38665284735748157  0.5586071777359791  0.348384395385672  1.0000
  C   C150      1.0  0.41411320958273  0.4836879784876018  0.3347117507298379  1.0000
  C   C151      1.0  0.48717430233038783  0.42824934742682785  0.35802306318196037  1.0000
  C   C152      1.0  0.5123028894838554  0.3490086072592575  0.34554318913224336  1.0000
  C   C153      1.0  0.5140148733026138  0.3257604787030175  0.2807539771348715  1.0000
  C   C154      1.0  0.5283574617552349  0.2520367152171019  0.2740158162127955  1.0000
  C   C155      1.0  0.5291425580120546  0.29422940480108656  0.3998173245414591  1.0000
  C   C156      1.0  0.5418080427643092  0.22176395025006462  0.3890512452335031  1.0000
  C   C157      1.0  0.504625541479477  0.826668882171177  0.4559310064737049  1.0000
  C   C158      1.0  0.5632657723329615  0.8447125778512544  0.4883614873621767  1.0000
  C   C159      1.0  0.5180815156066815  0.8969989579147042  0.5459970123620864  1.0000
  C   C160      1.0  0.5753622217511701  0.9103850517915151  0.5763878911716134  1.0000
  C   C161      1.0  0.6665864187669612  0.8068028327797805  0.46059308297238755  1.0000
  C   C162      1.0  0.7236102798667262  0.8200301097858897  0.4908653804558441  1.0000
  C   C163      1.0  0.6786902404357631  0.8715076460179249  0.5497081765297195  1.0000
  C   C164      1.0  0.7413298369681484  0.8822580452251361  0.5819398558933245  1.0000
  C   C165      1.0  0.7250998758295996  0.9522253103054297  0.6053042674754892  1.0000
  C   C166      1.0  0.7908946036701465  0.9590662467551637  0.6310309664964749  1.0000
  C   C167      1.0  0.8232108552285736  0.8211447014078246  0.5891241405140734  1.0000
  C   C168      1.0  0.8846534616484618  0.8321475702300916  0.6161492663393987  1.0000
  C   C169      1.0  0.22413357847116802  0.8759576785451344  0.3849282423129026  1.0000
  C   C170      1.0  0.12619805276452925  0.8991219452036316  0.37870124575370306  1.0000
  C   C171      1.0  0.1194747697723242  0.9189510765826799  0.3083804866301065  1.0000
  C   C172      1.0  0.029670890026544227  0.9395777302405011  0.3003028127228192  1.0000
  C   C173      1.0  0.04138783483742941  0.900291232696397  0.4411331165767933  1.0000
  C   C174      1.0  0.9511726259621582  0.9220182178337597  0.4332765834965288  1.0000
  C   C175      1.0  0.9437650792120917  0.9420497571067586  0.36294372244727674  1.0000
  C   C176      1.0  0.8470526776576929  0.9671760043439834  0.35603038082620503  1.0000
  C   C177      1.0  0.8370002557170936  0.9494319307413688  0.29370535279372234  1.0000
  C   C178      1.0  0.7444689588731066  0.9774627588161238  0.288665819559242  1.0000
  C   C179      1.0  0.7598508430600289  0.010706436499099  0.4121843306876158  1.0000
  C   C180      1.0  0.6699856759256732  0.035670088800003386  0.4033294181789843  1.0000
  C   C181      1.0  0.5347763800100509  0.8222533432202042  0.24929553522401443  1.0000
  C   C182      1.0  0.5980509696121673  0.8346514156639842  0.17144537914605001  1.0000
  C   C183      1.0  0.6192614874064047  0.8996214618179081  0.1532805876984327  1.0000
  C   C184      1.0  0.6753830681481289  0.9116588068990622  0.0798624091115344  1.0000
  C   C185      1.0  0.632874867210809  0.782384852434433  0.11563993855185838  1.0000
  C   C186      1.0  0.6859203102695445  0.7955092703394655  0.0417054686646808  1.0000
  C   C187      1.0  0.7081157237844665  0.8603742624502146  0.023372337359411695  1.0000
  C   C188      1.0  0.7641509520889893  0.8750771735715049  0.9454496459461622  1.0000
  C   C189      1.0  0.8419331940716148  0.9001601881266482  0.9264457723053142  1.0000
  C   C190      1.0  0.8925021408874017  0.9132560481944695  0.8519282590646001  1.0000
  C   C191      1.0  0.7421251688396211  0.864256874393419  0.8865831074279669  1.0000
  C   C192      1.0  0.7949017790065228  0.8801470516935126  0.8138590523561363  1.0000
  N   N1        1.0  0.13155944605837538  0.3273222953846471  0.8003682821377041  1.0000
  N   N2        1.0  0.4932776888838789  0.6360307967493596  0.09973517249749626  1.0000
  N   N3        1.0  0.9973809580751053  0.3414189416594412  0.977801079406838  1.0000
  N   N4        1.0  0.33510103634244354  0.795464868116774  0.09514372989441715  1.0000
  N   N5        1.0  0.259402235379646  0.6726562572406466  0.1995440203708796  1.0000
  N   N6        1.0  0.229042349146468  0.3640256711435228  0.9003077748695886  1.0000
  N   N7        1.0  0.31637606282654224  0.6590076419496994  0.022048661069114035  1.0000
  N   N8        1.0  0.22546745508275723  0.20456262943165635  0.904915998376609  1.0000
  N   N9        1.0  0.06799572918749422  0.8003126156992977  0.6727578831566774  1.0000
  N   N10       1.0  0.40684735979093034  0.0999638020536224  0.3640185238777889  1.0000
  N   N11       1.0  0.024686790834621764  0.9777389600357582  0.659006288133348  1.0000
  N   N12       1.0  0.5698618516586861  0.0953535222111199  0.20443084352093885  1.0000
  N   N13       1.0  0.541060373651689  0.19981315266674227  0.3273426197657869  1.0000
  N   N14       1.0  0.8709908560036724  0.9000536835479951  0.6359063898315113  1.0000
  N   N15       1.0  0.6610748009508568  0.022402712303289704  0.3412701472823017  1.0000
  N   N16       1.0  0.8694485673248663  0.9046571229827337  0.7955035078017473  1.0000
  O   O1        1.0  0.28442092098774213  0.3586953694479078  0.2902407340856428  1.0000
  O   O2        1.0  0.12844717390112234  0.4402341304303832  0.31928647994568854  1.0000
  O   O3        1.0  0.04019454302017778  0.4104067132863706  0.2280160271218605  1.0000
  O   O4        1.0  0.1159057501297056  0.472955907374832  0.1342758512767332  1.0000
  O   O5        1.0  0.3186868514100851  0.44760244892721346  0.14665064501693342  1.0000
  O   O6        1.0  0.37481316408677406  0.3263903684666047  0.12197230481083922  1.0000
  O   O7        1.0  0.2075747983933312  0.2983169127239194  0.12652482607406063  1.0000
  O   O8        1.0  0.21547318886954522  0.26434547229007416  0.23912630193639475  1.0000
  O   O9        1.0  0.9328891474905563  0.6414519274813557  0.709569246856141  1.0000
  O   O10       1.0  0.8879334777295043  0.5596236979532422  0.6804899173068081  1.0000
  O   O11       1.0  0.6784251709540641  0.5897625442515706  0.7718717187130508  1.0000
  O   O12       1.0  0.7229946514912415  0.5272473196781959  0.8656289277025025  1.0000
  O   O13       1.0  0.9130504986719218  0.5524075495139653  0.8528949939892527  1.0000
  O   O14       1.0  0.8229589256050504  0.6735192837009478  0.8779619984409734  1.0000
  O   O15       1.0  0.6321775447649002  0.7017045903628444  0.873492400743821  1.0000
  O   O16       1.0  0.7186017065658561  0.735798616899622  0.7609225074446258  1.0000
  O   O17       1.0  0.42549009493712464  0.290486996005349  0.6412368339732879  1.0000
  O   O18       1.0  0.5522666732755253  0.3196505917455639  0.559534271347964  1.0000
  O   O19       1.0  0.7317834845382266  0.2282035879431135  0.5893811208390787  1.0000
  O   O20       1.0  0.7496761903373539  0.1343871301535131  0.5270351860357964  1.0000
  O   O21       1.0  0.5345907622083884  0.1469309939407708  0.5522464639488618  1.0000
  O   O22       1.0  0.5032618321833907  0.12219843722081687  0.6734812603484316  1.0000
  O   O23       1.0  0.6661809891721048  0.12660549283755534  0.7013411331782464  1.0000
  O   O24       1.0  0.5458497706580515  0.23920026190761937  0.7353706944302233  1.0000
  O   O25       1.0  0.3569404484853109  0.709598421782303  0.35915102051014003  1.0000
  O   O26       1.0  0.43185133637059187  0.680497363886481  0.4404282698684909  1.0000
  O   O27       1.0  0.5494912845305678  0.7719886035655393  0.41032615770114234  1.0000
  O   O28       1.0  0.41115794064408095  0.8655249529388201  0.47304937802409336  1.0000
  O   O29       1.0  0.23365151918072494  0.8531816728002611  0.4477732260701828  1.0000
  O   O30       1.0  0.29867944410386116  0.8776593936323637  0.32646438667080707  1.0000
  O   O31       1.0  0.4937656475673296  0.8734592841555511  0.298322287497058  1.0000
  O   O32       1.0  0.5201593670498711  0.7607178503637897  0.2645722582559528  1.0000
