data_image0
_chemical_formula_structural       Cd2H10C22N2O8
_chemical_formula_sum              "Cd2 H10 C22 N2 O8"
_cell_length_a       5.267046103848595
_cell_length_b       7.9605751919148116
_cell_length_c       11.520631344586741
_cell_angle_alpha    103.80011573094814
_cell_angle_beta     90.0018924691603
_cell_angle_gamma    89.99945832859491

_space_group_name_H-M_alt    "P 1"
_space_group_IT_number       1

loop_
  _space_group_symop_operation_xyz
  'x, y, z'

loop_
  _atom_site_type_symbol
  _atom_site_label
  _atom_site_symmetry_multiplicity
  _atom_site_fract_x
  _atom_site_fract_y
  _atom_site_fract_z
  _atom_site_occupancy
  Cd  Cd1       1.0  0.2905524341232208  0.1762031711656533  0.9251701559336281  1.0000
  Cd  Cd2       1.0  0.7905677597667308  0.8237942802105633  0.07482820444524656  1.0000
  H   H1        1.0  0.7855183405180383  0.7180517755409783  0.6806036869853429  1.0000
  H   H2        1.0  0.28555637452809174  0.2819508469239551  0.319396197611006  1.0000
  H   H3        1.0  0.0738485884042106  0.503014536407491  0.5521612305455861  1.0000
  H   H4        1.0  0.5739053588652681  0.4969844019191783  0.44783823501023773  1.0000
  H   H5        1.0  0.2517212988804403  0.20463453090550124  0.5015776971909887  1.0000
  H   H6        1.0  0.7517785377516971  0.7953626598016046  0.4984188252481799  1.0000
  H   H7        1.0  0.07773976000041222  0.9804828989486724  0.5954943983555053  1.0000
  H   H8        1.0  0.5777851463499033  0.019515949519494296  0.4045016740115057  1.0000
  H   H9        1.0  0.7013125349477249  0.044038315897054814  0.7303599861066772  1.0000
  H   H10       1.0  0.20133570673178977  0.9559598943715385  0.2696363485322023  1.0000
  C   C1        1.0  0.14501675528573799  0.5361943168515779  0.9041949324723572  1.0000
  C   C2        1.0  0.6450104859614355  0.46382809915319  0.09580281822560718  1.0000
  C   C3        1.0  0.38112740158871367  0.5057991437925438  0.8268210482078613  1.0000
  C   C4        1.0  0.8811303751669969  0.49420264471185504  0.17317753038753378  1.0000
  C   C5        1.0  0.49208686633257764  0.6470177075429576  0.7895406758925316  1.0000
  C   C6        1.0  0.9921036555986689  0.35298483025037797  0.21046328059041028  1.0000
  C   C7        1.0  0.41461517661566216  0.8314729845441063  0.84028847649315  1.0000
  C   C8        1.0  0.9146308120062231  0.16852906107875754  0.15971268025631247  1.0000
  C   C9        1.0  0.6911217045241999  0.6130967750451931  0.7096417967881762  1.0000
  C   C10       1.0  0.1911507900784954  0.38689907058891754  0.2903626206737967  1.0000
  C   C11       1.0  0.7844713659994441  0.4428125770703629  0.6696346651710882  1.0000
  C   C12       1.0  0.2844997032127666  0.5571915302842284  0.3303714946688883  1.0000
  C   C13       1.0  0.9911006696996906  0.4012952397827832  0.5890701944848118  1.0000
  C   C14       1.0  0.4911437898505041  0.5987058575584498  0.4109291813061516  1.0000
  C   C15       1.0  0.0897012393394903  0.23625305108381411  0.5614610231948091  1.0000
  C   C16       1.0  0.589749791332885  0.7637523916826154  0.43853806258251626  1.0000
  C   C17       1.0  0.987677399721811  0.10726280708244931  0.6135867541845029  1.0000
  C   C18       1.0  0.487713123332071  0.8927292454746124  0.38641204958064174  1.0000
  C   C19       1.0  0.7823448464345616  0.1425558825966249  0.6900407381472389  1.0000
  C   C20       1.0  0.2823695673510827  0.8574414631002013  0.30995567324517737  1.0000
  C   C21       1.0  0.6744517920990417  0.3103929748429408  0.7191505458605645  1.0000
  C   C22       1.0  0.17447753494285934  0.6896117103859539  0.28085132625140824  1.0000
  N   N1        1.0  0.4724246863439562  0.3461166179960955  0.7952299019237186  1.0000
  N   N2        1.0  0.9724325934670971  0.6538793924955257  0.20477433935565864  1.0000
  O   O1        1.0  0.2759683084954077  0.9089375461555065  0.7795748910814593  1.0000
  O   O2        1.0  0.7759970238677739  0.0910586095560646  0.2204255298650182  1.0000
  O   O3        1.0  0.5161812203073665  0.912478672925289  0.9391795755182241  1.0000
  O   O4        1.0  0.016183571756819497  0.0875251776629753  0.06082184886563618  1.0000
  O   O5        1.0  0.0647616752530737  0.6904849793272377  0.9292455348287589  1.0000
  O   O6        1.0  0.5647619399244305  0.3095048518743866  0.07075234473450108  1.0000
  O   O7        1.0  0.039190813982372695  0.4092409952005482  0.9333653967297477  1.0000
  O   O8        1.0  0.5391959789158136  0.5907616999525515  0.06663640592051927  1.0000
