data_image0
_chemical_formula_structural       Tb4Cd4H28C20S4N8O44
_chemical_formula_sum              "Tb4 Cd4 H28 C20 S4 N8 O44"
_cell_length_a       8.569897067463897
_cell_length_b       10.530365258005775
_cell_length_c       13.813984874324706
_cell_angle_alpha    90.00009533833352
_cell_angle_beta     101.87425810776253
_cell_angle_gamma    90.00005211438328

_space_group_name_H-M_alt    "P 1"
_space_group_IT_number       1

loop_
  _space_group_symop_operation_xyz
  'x, y, z'

loop_
  _atom_site_type_symbol
  _atom_site_label
  _atom_site_symmetry_multiplicity
  _atom_site_fract_x
  _atom_site_fract_y
  _atom_site_fract_z
  _atom_site_occupancy
  Tb  Tb1       1.0  0.9324429378944643  0.8955316066754475  0.10891251040551707  1.0000
  Tb  Tb2       1.0  0.06755641727305318  0.3955318411162878  0.3910876971618649  1.0000
  Tb  Tb3       1.0  0.0675570039930022  0.1044693583484175  0.8910921949376557  1.0000
  Tb  Tb4       1.0  0.932442265060672  0.6044681742627843  0.6089081640416508  1.0000
  Cd  Cd1       1.0  0.623502128727466  0.4834090617967418  0.13384808369152515  1.0000
  Cd  Cd2       1.0  0.3764997402465298  0.9834089732912047  0.366151101703899  1.0000
  Cd  Cd3       1.0  0.37649897194650345  0.5165881046842742  0.8661524227953379  1.0000
  Cd  Cd4       1.0  0.6235001456612465  0.01659199172473789  0.6338463575323486  1.0000
  H   H1        1.0  0.6289707502568829  0.2590799359125029  0.33798519345022976  1.0000
  H   H2        1.0  0.37102838713929026  0.7590784483231657  0.1620148131460439  1.0000
  H   H3        1.0  0.3710291636407347  0.7409210291074044  0.6620158888394769  1.0000
  H   H4        1.0  0.6289667348562915  0.24092156705646758  0.8379827754576112  1.0000
  H   H5        1.0  0.9951887446989504  0.8985032831294929  0.33453368192367344  1.0000
  H   H6        1.0  0.0048118187848302995  0.39850392810156887  0.16546812805281516  1.0000
  H   H7        1.0  0.004809971223352199  0.1014976818890148  0.665466526944705  1.0000
  H   H8        1.0  0.9951892874893816  0.6014960872842676  0.8345331030468445  1.0000
  H   H9        1.0  0.8070035992120735  0.9138701653767354  0.3017202704438161  1.0000
  H   H10       1.0  0.19299579641702277  0.4138681736039587  0.1982814133528592  1.0000
  H   H11       1.0  0.1929939355295716  0.0861317492774205  0.698281238835996  1.0000
  H   H12       1.0  0.8070041118811132  0.586130892145803  0.8017189443247617  1.0000
  H   H13       1.0  0.012521784523258401  0.6343779927225626  0.1676466668724998  1.0000
  H   H14       1.0  0.9874747746977446  0.13437593728374247  0.33235358304824547  1.0000
  H   H15       1.0  0.9874769369962523  0.36562202266205895  0.8323542666058684  1.0000
  H   H16       1.0  0.012522743246961498  0.8656221788293333  0.6676457523966874  1.0000
  H   H17       1.0  0.05116238271180149  0.6890286494508329  0.27428589460959774  1.0000
  H   H18       1.0  0.94883784086376  0.18903013103498975  0.22571488223670846  1.0000
  H   H19       1.0  0.9488363332097405  0.31097136593299257  0.7257143142580773  1.0000
  H   H20       1.0  0.051162067434376  0.8109689347147649  0.7742854754409123  1.0000
  H   H21       1.0  0.558670915408676  0.8861575812357502  0.07045403696317006  1.0000
  H   H22       1.0  0.4413284303973909  0.3861591284177379  0.4295468814095429  1.0000
  H   H23       1.0  0.4413290040861567  0.11384243415027127  0.9295477699365335  1.0000
  H   H24       1.0  0.558669081952381  0.613842786233249  0.5704517294274964  1.0000
  H   H25       1.0  0.6246440818971947  0.026711647115362787  0.0821835441258401  1.0000
  H   H26       1.0  0.3753570750048282  0.5267116704742206  0.4178171424650188  1.0000
  H   H27       1.0  0.3753582223523395  0.9732883682718805  0.9178185603951546  1.0000
  H   H28       1.0  0.6246416297207772  0.4732883449080206  0.5821816171812699  1.0000
  C   C1        1.0  0.5328370065944907  0.24194842142399858  0.274705603746149  1.0000
  C   C2        1.0  0.4671633014368979  0.7419480933374273  0.2252952510405493  1.0000
  C   C3        1.0  0.467165280860371  0.7580506443261895  0.7252943269420767  1.0000
  C   C4        1.0  0.5328318261566524  0.25805192204299476  0.7747030621737991  1.0000
  C   C5        1.0  0.33326884357237674  0.152491703049435  0.1759535681144655  1.0000
  C   C6        1.0  0.6667325140682578  0.652491739483622  0.32404730372878277  1.0000
  C   C7        1.0  0.6667370098170835  0.8475054634316376  0.8240453597829074  1.0000
  C   C8        1.0  0.33326143234160804  0.34750542699374876  0.6759523098942067  1.0000
  C   C9        1.0  0.3771760018857364  0.26163508151517323  0.129644654345185  1.0000
  C   C10       1.0  0.6228243375656746  0.7616361358175179  0.3703562294375898  1.0000
  C   C11       1.0  0.6228274723477581  0.7383630346001553  0.8703547005422861  1.0000
  C   C12       1.0  0.37717079562660416  0.23836482919837462  0.6296428083881479  1.0000
  C   C13       1.0  0.21277125980987682  0.05491666177279339  0.1454155290911459  1.0000
  C   C14       1.0  0.7872275629493258  0.5549168548405062  0.35458562603037075  1.0000
  C   C15       1.0  0.7872310332422003  0.9450814543435085  0.8545851262070698  1.0000
  C   C16       1.0  0.21276757024295986  0.4450841101753865  0.645413411795367  1.0000
  C   C17       1.0  0.31693388373282966  0.32320071914914195  0.03288829144329239  1.0000
  C   C18       1.0  0.6830701255077541  0.8232010799102483  0.46711240483581656  1.0000
  C   C19       1.0  0.6830683981248242  0.6767992962349252  0.9671109146349365  1.0000
  C   C20       1.0  0.31693215635141303  0.17680083474316888  0.5328868012438122  1.0000
  S   S1        1.0  0.7977314935147889  0.21948750886840424  0.043568806664076504  1.0000
  S   S2        1.0  0.20227235580166084  0.719486537546359  0.4564324614730211  1.0000
  S   S3        1.0  0.2022732010881683  0.7805134561555177  0.9564343200896062  1.0000
  S   S4        1.0  0.7977263377295217  0.2805153771036544  0.5435648489532809  1.0000
  N   N1        1.0  0.5032109661864012  0.315883079350236  0.19371907778610617  1.0000
  N   N2        1.0  0.496790652218479  0.8158829500821266  0.3062820347044095  1.0000
  N   N3        1.0  0.49679013448984216  0.6841169360348118  0.8062814287028601  1.0000
  N   N4        1.0  0.5032068601297793  0.1841170652995103  0.6937165761312301  1.0000
  N   N5        1.0  0.43112274524882827  0.14352728874409584  0.2680734742056501  1.0000
  N   N6        1.0  0.5688785980848435  0.6435270511059626  0.23192738443436406  1.0000
  N   N7        1.0  0.5688819157648054  0.8564717770057227  0.7319253048824804  1.0000
  N   N8        1.0  0.4311153427285744  0.35647201463996936  0.768071504579332  1.0000
  O   O1        1.0  0.17944002968081205  0.9785931327475833  0.21076563698957776  1.0000
  O   O2        1.0  0.8205594580482156  0.4785927578220067  0.2892346929127001  1.0000
  O   O3        1.0  0.820559873020869  0.021407832270739394  0.7892339960787494  1.0000
  O   O4        1.0  0.1794380598987644  0.5214082071951012  0.710764642534336  1.0000
  O   O5        1.0  0.13819479750434027  0.042665299289019694  0.05587491162653179  1.0000
  O   O6        1.0  0.8618028133259157  0.5426666930480265  0.44412607664106923  1.0000
  O   O7        1.0  0.861803929611625  0.9573328168270476  0.9441267464611228  1.0000
  O   O8        1.0  0.13819351784092498  0.45733332233458407  0.5558738346053076  1.0000
  O   O9        1.0  0.20977953912334601  0.2736412146932494  0.9676416648469086  1.0000
  O   O10       1.0  0.7902271373938204  0.7736445055376033  0.5323576623285433  1.0000
  O   O11       1.0  0.7902263142699082  0.7263606999611979  0.03235726305396723  1.0000
  O   O12       1.0  0.20977632564827783  0.2263593083841896  0.4676402433417408  1.0000
  O   O13       1.0  0.3798682017304529  0.43083896971010194  0.019535662257077  1.0000
  O   O14       1.0  0.6201324077612327  0.9308393125908836  0.4804654707333995  1.0000
  O   O15       1.0  0.6201304973971771  0.5691610456713504  0.9804623727785183  1.0000
  O   O16       1.0  0.3798698740979347  0.0691626020625407  0.5195337353462293  1.0000
  O   O17       1.0  0.6267934434486192  0.18683137509538733  0.0136006142004277  1.0000
  O   O18       1.0  0.37321155172576675  0.6868305968437483  0.48640147926128907  1.0000
  O   O19       1.0  0.37321125115358444  0.8131686402938525  0.9864025125525514  1.0000
  O   O20       1.0  0.6267871306102322  0.3131722674393557  0.5135943819443298  1.0000
  O   O21       1.0  0.8214933098059233  0.34613939938688526  0.09356624334292715  1.0000
  O   O22       1.0  0.17851193961499942  0.846137351603225  0.4064360847511637  1.0000
  O   O23       1.0  0.17851378634413353  0.6538596663712822  0.9064393548627265  1.0000
  O   O24       1.0  0.8214843747571762  0.15386171414233019  0.5935616526624372  1.0000
  O   O25       1.0  0.8765516301953509  0.12251662461478216  0.11838542113461159  1.0000
  O   O26       1.0  0.12344967960711271  0.6225173304566666  0.3816154065610036  1.0000
  O   O27       1.0  0.12345186643077709  0.8774824411383902  0.8816168321963358  1.0000
  O   O28       1.0  0.8765478327434123  0.3774855338290023  0.6183832042767392  1.0000
  O   O29       1.0  0.8753482837642467  0.22148656581010323  0.9571668525808477  1.0000
  O   O30       1.0  0.12465593595381107  0.7214846341658399  0.5428335493760201  1.0000
  O   O31       1.0  0.12465639964277392  0.7785143992122342  0.04283482495144849  1.0000
  O   O32       1.0  0.8753439499532049  0.2785153812154277  0.45716390985952415  1.0000
  O   O33       1.0  0.9079155966825496  0.9389813747364211  0.2851572631001885  1.0000
  O   O34       1.0  0.0920850314023554  0.4389821926241879  0.214844606493692  1.0000
  O   O35       1.0  0.09208193245960668  0.06101864064758898  0.7148435215675305  1.0000
  O   O36       1.0  0.9079148768980545  0.5610197220295987  0.785155751186025  1.0000
  O   O37       1.0  0.999119731535934  0.7109721362377852  0.20486693999281158  1.0000
  O   O38       1.0  0.0008793402782175002  0.21097021226115933  0.2951344449700173  1.0000
  O   O39       1.0  0.0008789843856078988  0.28902787914604017  0.7951332688748634  1.0000
  O   O40       1.0  0.9991193756425646  0.7890288534879913  0.7048657638969545  1.0000
  O   O41       1.0  0.6486742739085685  0.9384008537684281  0.1042364973770304  1.0000
  O   O42       1.0  0.35132515527424596  0.4384013103820336  0.39576449794023455  1.0000
  O   O43       1.0  0.3513244644048541  0.0615991616185738  0.8957666099334105  1.0000
  O   O44       1.0  0.6486723570747656  0.5615996546342783  0.6042341128961083  1.0000
