data_image0
_chemical_formula_structural       Zn4H48C56S8N8O16
_chemical_formula_sum              "Zn4 H48 C56 S8 N8 O16"
_cell_length_a       8.903060766477449
_cell_length_b       13.197879833835534
_cell_length_c       16.09049070588733
_cell_angle_alpha    90.00036659829968
_cell_angle_beta     90.00098947015664
_cell_angle_gamma    106.06746980082956

_space_group_name_H-M_alt    "P 1"
_space_group_IT_number       1

loop_
  _space_group_symop_operation_xyz
  'x, y, z'

loop_
  _atom_site_type_symbol
  _atom_site_label
  _atom_site_symmetry_multiplicity
  _atom_site_fract_x
  _atom_site_fract_y
  _atom_site_fract_z
  _atom_site_occupancy
  Zn  Zn1       1.0  0.6386483866390336  0.7277710678546612  0.4898308705073332  1.0000
  Zn  Zn2       1.0  0.1386464500300021  0.7277725752211665  0.010171905029885396  1.0000
  Zn  Zn3       1.0  0.361358216284188  0.2722230708045075  0.5101677173703434  1.0000
  Zn  Zn4       1.0  0.8613559936848885  0.2722351099495768  0.9898241969228675  1.0000
  H   H1        1.0  0.5003854346866277  0.14064704322935742  0.6117137261272986  1.0000
  H   H2        1.0  0.00037264677250449095  0.1406585152953426  0.888273462905296  1.0000
  H   H3        1.0  0.49961019632738857  0.8593528068963039  0.3882854831982811  1.0000
  H   H4        1.0  0.9996018874778511  0.8593495721451205  0.11171455961012097  1.0000
  H   H5        1.0  0.4543695508539258  0.9518053237826081  0.6473341651187636  1.0000
  H   H6        1.0  0.9543572841910472  0.9518169751914415  0.852655319434106  1.0000
  H   H7        1.0  0.545626080230157  0.04819452637084249  0.3526687731173367  1.0000
  H   H8        1.0  0.04561982916850129  0.0481918683974101  0.14733270309550045  1.0000
  H   H9        1.0  0.10190311731103913  0.880427080724246  0.45311511288664247  1.0000
  H   H10       1.0  0.6019096155839845  0.8804416707058919  0.046873190670780183  1.0000
  H   H11       1.0  0.8981102609987629  0.11956458022722671  0.5468766386807713  1.0000
  H   H12       1.0  0.3980855144825241  0.1195621532708202  0.9531247756925578  1.0000
  H   H13       1.0  0.15954682968906292  0.07273867266393098  0.428715029740644  1.0000
  H   H14       1.0  0.6595456602861275  0.0727545434602632  0.07127087347637226  1.0000
  H   H15       1.0  0.840471360381528  0.9272537122124761  0.571271749970762  1.0000
  H   H16       1.0  0.34044792971700116  0.9272508893538784  0.9287246069435038  1.0000
  H   H17       1.0  0.07253047918025857  0.6125278539122688  0.538059481917706  1.0000
  H   H18       1.0  0.5725255912110541  0.6125434672582202  0.9619395394512791  1.0000
  H   H19       1.0  0.9274858248364736  0.3874653516150275  0.4619446993692974  1.0000
  H   H20       1.0  0.4274813953205764  0.38746177246071045  0.0380590484570007  1.0000
  H   H21       1.0  0.12377576475605419  0.7011163929244262  0.4539494059522651  1.0000
  H   H22       1.0  0.6237958974962226  0.7011339468883264  0.046053090509701584  1.0000
  H   H23       1.0  0.8762338410022678  0.29887690915278853  0.5460535323330757  1.0000
  H   H24       1.0  0.37621289820632586  0.2988728534347729  0.9539492263217253  1.0000
  H   H25       1.0  0.11437408534373354  0.4600879896281852  0.016599115988881894  1.0000
  H   H26       1.0  0.6143883295616417  0.4600893788410191  0.4834020410426304  1.0000
  H   H27       1.0  0.8856181965994735  0.5399119087955953  0.9834025792612946  1.0000
  H   H28       1.0  0.385626394426012  0.5399181293740368  0.5166033832441526  1.0000
  H   H29       1.0  0.27435458439701677  0.557717359585503  0.1296308628937055  1.0000
  H   H30       1.0  0.7743565742523867  0.5577116258318567  0.3703661018885426  1.0000
  H   H31       1.0  0.7256313457220213  0.44228342375078  0.8703733182690169  1.0000
  H   H32       1.0  0.22565607143344113  0.4422911523281742  0.629633107525258  1.0000
  H   H33       1.0  0.009587616844065375  0.315634754011093  0.29858032245356  1.0000
  H   H34       1.0  0.5095869528871048  0.31562724165694783  0.20141847055439394  1.0000
  H   H35       1.0  0.9903950041581666  0.6843533837683466  0.7014219942054181  1.0000
  H   H36       1.0  0.4904314293497051  0.6843706938929514  0.7985875752099856  1.0000
  H   H37       1.0  0.8471834155396607  0.2364089178534101  0.17753122118966047  1.0000
  H   H38       1.0  0.3471954881302253  0.23640235484639047  0.32246165978853  1.0000
  H   H39       1.0  0.15280513350243996  0.7635799277207126  0.8224611517378688  1.0000
  H   H40       1.0  0.652826935859032  0.7635971090564196  0.6775394141182713  1.0000
  H   H41       1.0  0.4649140858560869  0.5886025496276304  0.21710276446945181  1.0000
  H   H42       1.0  0.9649087839502639  0.5886042962493646  0.2829017599494107  1.0000
  H   H43       1.0  0.535061144311207  0.41138410809238474  0.7829063884866085  1.0000
  H   H44       1.0  0.03510409094749174  0.41141434523038356  0.7171061502978231  1.0000
  H   H45       1.0  0.3424282460000397  0.6731021978559325  0.23771457754290268  1.0000
  H   H46       1.0  0.8424249802840574  0.6730972499997135  0.262282387952915  1.0000
  H   H47       1.0  0.6575522568981709  0.3268939037836701  0.7622939539775542  1.0000
  H   H48       1.0  0.15758227543685874  0.32691115919324426  0.7377217933306424  1.0000
  C   C1        1.0  0.4127352800790688  0.0801211868369691  0.578641446416668  1.0000
  C   C2        1.0  0.9127286749606823  0.08013064457493609  0.9213456079297513  1.0000
  C   C3        1.0  0.5872670491232838  0.9198785667109703  0.4213552770000532  1.0000
  C   C4        1.0  0.08725298118056901  0.9198757535482115  0.07864303610012507  1.0000
  C   C5        1.0  0.3865573689311928  0.9748147978023808  0.5980041462232746  1.0000
  C   C6        1.0  0.8865573498463133  0.9748278281020717  0.9019841935516264  1.0000
  C   C7        1.0  0.6134424584536332  0.02518181850425799  0.4019931986585447  1.0000
  C   C8        1.0  0.11343023456836926  0.025179277908392795  0.09800693644852027  1.0000
  C   C9        1.0  0.27108132909319926  0.8984196275595406  0.5545075241426785  1.0000
  C   C10       1.0  0.7710892192744364  0.8984348025103512  0.9454818108858445  1.0000
  C   C11       1.0  0.7289237337783232  0.1015761199416971  0.44548919927661484  1.0000
  C   C12       1.0  0.2289072962020597  0.10157217478696622  0.05451366955189478  1.0000
  C   C13       1.0  0.19081312566532907  0.9342494357166656  0.490569472523063  1.0000
  C   C14       1.0  0.6908174463818213  0.9342642717761721  0.009420574363872398  1.0000
  C   C15       1.0  0.80920344723706  0.06574693916421381  0.5094241435269706  1.0000
  C   C16       1.0  0.30917829912137756  0.0657435099630277  0.9905767705275603  1.0000
  C   C17       1.0  0.22337083878106506  0.04172090817426981  0.4756734218782055  1.0000
  C   C18       1.0  0.7233742565499596  0.041735194050886486  0.024315411311974292  1.0000
  C   C19       1.0  0.7766435786679718  0.9582731178000825  0.524320815640614  1.0000
  C   C20       1.0  0.2766267244048919  0.958271718869007  0.9756794476616759  1.0000
  C   C21       1.0  0.08755570501339342  0.6950329924012663  0.5194388309568294  1.0000
  C   C22       1.0  0.5875654514920184  0.6950550290958474  0.9805613823565335  1.0000
  C   C23       1.0  0.9124540552698688  0.30495554746695314  0.4805622428616373  1.0000
  C   C24       1.0  0.41244041871381387  0.3049502267348174  0.019439691486851998  1.0000
  C   C25       1.0  0.9304138633251353  0.7204016067250691  0.5298894337720765  1.0000
  C   C26       1.0  0.4304227426627774  0.7204259306205925  0.9701116747253021  1.0000
  C   C27       1.0  0.06959073872806698  0.279585420841741  0.4701110185329325  1.0000
  C   C28       1.0  0.5695811637187304  0.2795825267639387  0.029880698325868593  1.0000
  C   C29       1.0  0.0924440093549421  0.4323541328422352  0.08046026163444248  1.0000
  C   C30       1.0  0.5924580089341375  0.43235691888636296  0.41953432884038466  1.0000
  C   C31       1.0  0.9075421524639179  0.5676395071458131  0.9195364616898158  1.0000
  C   C32       1.0  0.4075585239558562  0.5676521498263156  0.5804605302125552  1.0000
  C   C33       1.0  0.18469762267741874  0.48558030505105165  0.1446956708966169  1.0000
  C   C34       1.0  0.6846968908907554  0.4855719977935776  0.3553000699311609  1.0000
  C   C35       1.0  0.8152971611417  0.5144227306372002  0.8553085103139039  1.0000
  C   C36       1.0  0.31530516933251806  0.5144245863637239  0.644702246841845  1.0000
  C   C37       1.0  0.15545106640269774  0.4467931077810547  0.22633060517772915  1.0000
  C   C38       1.0  0.6554630877785993  0.44678890878270744  0.27366962921412596  1.0000
  C   C39       1.0  0.8445232391028625  0.5531991165249862  0.7736735759077076  1.0000
  C   C40       1.0  0.34455798804489746  0.5532177145244788  0.7263339306452037  1.0000
  C   C41       1.0  0.034119813742279216  0.3529065896574294  0.23770234228960865  1.0000
  C   C42       1.0  0.5341232466584102  0.3529015453995328  0.2622912832240444  1.0000
  C   C43       1.0  0.9658602280106194  0.6470807919180362  0.7622925165341525  1.0000
  C   C44       1.0  0.4658950580414967  0.6470987711459985  0.7377010898742495  1.0000
  C   C45       1.0  0.9455858045206039  0.3064604407749486  0.17008709934619046  1.0000
  C   C46       1.0  0.44558818681050366  0.30645175248987033  0.3299064560995574  1.0000
  C   C47       1.0  0.05441102011086944  0.6935370121460666  0.829910245523571  1.0000
  C   C48       1.0  0.5544165297202  0.6935432066858384  0.6700915102862266  1.0000
  C   C49       1.0  0.40138820129708097  0.618111811585578  0.2656840291368781  1.0000
  C   C50       1.0  0.9013859627149825  0.6181111768041558  0.23431693885041935  1.0000
  C   C51       1.0  0.5985895306877395  0.38187798337574447  0.7343245023540914  1.0000
  C   C52       1.0  0.0986244103886094  0.38190432744355013  0.7656928358320909  1.0000
  C   C53       1.0  0.5192413265328354  0.6768602018532803  0.32969708237374107  1.0000
  C   C54       1.0  0.019240942548940126  0.6768641608753184  0.17031051223221985  1.0000
  C   C55       1.0  0.48073463645695097  0.3231153387369333  0.6703151779823884  1.0000
  C   C56       1.0  0.9807703150288061  0.32315847054867664  0.8296961550475357  1.0000
  S   S1        1.0  0.24233311417791725  0.7688165828328053  0.5853066096653803  1.0000
  S   S2        1.0  0.7423366524564868  0.7688265847692219  0.9146892384089751  1.0000
  S   S3        1.0  0.7576655969978957  0.23118004963188096  0.4146994360023938  1.0000
  S   S4        1.0  0.25767033407514356  0.23117865494970857  0.08530934949931178  1.0000
  S   S5        1.0  0.2563602684651157  0.5090306411264718  0.31301474162179926  1.0000
  S   S6        1.0  0.7563541729501819  0.5090245707377007  0.18698615042489306  1.0000
  S   S7        1.0  0.7436167707329628  0.4909575771421189  0.6869906824363666  1.0000
  S   S8        1.0  0.2436557391832678  0.4909822135153589  0.8130192738372128  1.0000
  N   N1        1.0  0.3313062702297529  0.1145080393742504  0.5190867198654487  1.0000
  N   N2        1.0  0.8313029423325701  0.11452074994370778  0.9808997411095814  1.0000
  N   N3        1.0  0.6687010252816847  0.8854876758988935  0.48090441019856894  1.0000
  N   N4        1.0  0.16868456481380176  0.8854887371689486  0.01909201038146339  1.0000
  N   N5        1.0  0.9731889933316747  0.34478266540563846  0.09196727571796968  1.0000
  N   N6        1.0  0.4732037805709694  0.3447813518213678  0.40802425426570466  1.0000
  N   N7        1.0  0.026802673104775517  0.6552132752278652  0.9080313120935981  1.0000
  N   N8        1.0  0.5268109432532028  0.6552261563288369  0.5919724692298727  1.0000
  O   O1        1.0  0.9033050408147145  0.7701862565492092  0.5913773043831794  1.0000
  O   O2        1.0  0.4033174604144491  0.7702127528022373  0.9086293988122518  1.0000
  O   O3        1.0  0.09667846751159455  0.22978600188217504  0.408625012238822  1.0000
  O   O4        1.0  0.5966919133754515  0.2297876925166733  0.09136670315456998  1.0000
  O   O5        1.0  0.8342594526142193  0.6855877160622511  0.4694929671546077  1.0000
  O   O6        1.0  0.33427502313207197  0.6856122917751789  0.030510200700369694  1.0000
  O   O7        1.0  0.16575746661730753  0.3144094471395107  0.5304987844438571  1.0000
  O   O8        1.0  0.6657333088555291  0.31440879511932013  0.9694902517106525  1.0000
  O   O9        1.0  0.4748827770289876  0.6620692340002704  0.4068610435681491  1.0000
  O   O10       1.0  0.9748862021163163  0.6620837897198298  0.09314768540046707  1.0000
  O   O11       1.0  0.5251063906617401  0.3379005629555961  0.5931530812909214  1.0000
  O   O12       1.0  0.025138028450868412  0.3379402414134134  0.9068676827355941  1.0000
  O   O13       1.0  0.6461449023720147  0.7355861269894459  0.3052647713937587  1.0000
  O   O14       1.0  0.14614308949531102  0.735582550874568  0.19475240987610218  1.0000
  O   O15       1.0  0.3538251695301823  0.26439901841526847  0.6947418955935942  1.0000
  O   O16       1.0  0.8538693991660079  0.2644479961577843  0.8052642011913915  1.0000
