data_image0
_chemical_formula_structural       Zn2H28C40N6O8F2
_chemical_formula_sum              "Zn2 H28 C40 N6 O8 F2"
_cell_length_a       10.98638404484774
_cell_length_b       15.868103675042764
_cell_length_c       17.157809089497505
_cell_angle_alpha    87.17805622171666
_cell_angle_beta     87.97742004564593
_cell_angle_gamma    86.16690975029123

_space_group_name_H-M_alt    "P 1"
_space_group_IT_number       1

loop_
  _space_group_symop_operation_xyz
  'x, y, z'

loop_
  _atom_site_type_symbol
  _atom_site_label
  _atom_site_symmetry_multiplicity
  _atom_site_fract_x
  _atom_site_fract_y
  _atom_site_fract_z
  _atom_site_occupancy
  Zn  Zn1       1.0  0.4935419495152118  0.5885305940072811  0.5010185141012824  1.0000
  Zn  Zn2       1.0  0.5115388294969562  0.41282558602828356  0.49709402562126553  1.0000
  H   H1        1.0  0.9006104399100465  0.4446100989978846  0.3945239129356819  1.0000
  H   H2        1.0  0.4923163788204619  0.6597429561340533  0.2488744689395331  1.0000
  H   H3        1.0  0.6211245529681192  0.3616673875496659  0.7388124707626812  1.0000
  H   H4        1.0  0.6206399347735995  0.39847745189514694  0.10910440121440244  1.0000
  H   H5        1.0  0.6629975004999976  0.3590044547818393  0.8826404668358802  1.0000
  H   H6        1.0  0.5990465158945  0.3946241262993552  0.2560317401410827  1.0000
  H   H7        1.0  0.6216573666948975  0.7264042828264224  0.4254190334400645  1.0000
  H   H8        1.0  0.6237515328015704  0.8854997041273479  0.4307377572377076  1.0000
  H   H9        1.0  0.349958966565417  0.7152345711508021  0.5980910565815376  1.0000
  H   H10       1.0  0.7605138254296903  0.5486747332258586  0.6403010280535353  1.0000
  H   H11       1.0  0.36759415727342304  0.1164183417206246  0.5660538749312422  1.0000
  H   H12       1.0  0.3424705957147652  0.8738925260107139  0.6123189994606546  1.0000
  H   H13       1.0  0.37137899883262543  0.2764369335489505  0.5697503486965798  1.0000
  H   H14       1.0  0.08672046642796971  0.5917996963738262  0.7597313476246936  1.0000
  H   H15       1.0  0.21300209968548237  0.5528983892849908  0.6444976135051588  1.0000
  H   H16       1.0  0.12855454658003396  0.4420187242862213  0.396754797204231  1.0000
  H   H17       1.0  0.45847755890179087  0.5991263560454386  0.8996782284787269  1.0000
  H   H18       1.0  0.5129909092487495  0.6640504826729766  0.10147263502024367  1.0000
  H   H19       1.0  0.7175502500796398  0.1960467946039302  0.2840767020842562  1.0000
  H   H20       1.0  0.8370594650672913  0.19329354207128804  0.3510505816019671  1.0000
  H   H21       1.0  0.8281530183278889  0.10941327012503882  0.2873399102867537  1.0000
  H   H22       1.0  0.757342465741658  0.06424458492822542  0.42102338335742195  1.0000
  H   H23       1.0  0.6447889045770125  0.059590162780089904  0.35283357822746086  1.0000
  H   H24       1.0  0.81048752850063  0.7309120372712813  0.752599228056418  1.0000
  H   H25       1.0  0.6913427652185361  0.6711815730337422  0.7214686156894172  1.0000
  H   H26       1.0  0.7019349622220687  0.6906471541776112  0.8220517891912349  1.0000
  H   H27       1.0  0.7794405883022718  0.542767242332083  0.7970592368333909  1.0000
  H   H28       1.0  0.8979909945597625  0.6010037950144991  0.8287948058264616  1.0000
  C   C1        1.0  0.5216401539780336  0.5213938566907929  0.3472439964088208  1.0000
  C   C2        1.0  0.9299855493553932  0.5256071730455006  0.5739759482567591  1.0000
  C   C3        1.0  0.8745879687335927  0.4976549293408539  0.5067573505123448  1.0000
  C   C4        1.0  0.9449398970386794  0.46745016727050626  0.4445875615627413  1.0000
  C   C5        1.0  0.07310177112326952  0.4661410879838784  0.44576662768302794  1.0000
  C   C6        1.0  0.1304203711222485  0.4964235535054087  0.5082602801556103  1.0000
  C   C7        1.0  0.5424594880764175  0.5265860480666475  0.2603213602601214  1.0000
  C   C8        1.0  0.5811653756563898  0.4531362387941371  0.22114625476257282  1.0000
  C   C9        1.0  0.5933688143329049  0.45512142150084867  0.14041885739453613  1.0000
  C   C10       1.0  0.5660359076631494  0.5315443715575939  0.09738418666984215  1.0000
  C   C11       1.0  0.532432179538766  0.6057698832230758  0.13650432025769274  1.0000
  C   C12       1.0  0.7383009526589959  0.4992855512404192  0.5034854299911654  1.0000
  C   C13       1.0  0.5208602264606838  0.6033134659607671  0.2175493418218152  1.0000
  C   C14       1.0  0.49569615791435234  0.547636779467652  0.8645322273134607  1.0000
  C   C15       1.0  0.4739049393562027  0.5471220572253658  0.7858895712601491  1.0000
  C   C16       1.0  0.565556042470959  0.47929017896722576  0.8992676311686478  1.0000
  C   C17       1.0  0.5188102707341145  0.48126020720737733  0.7387882351237206  1.0000
  C   C18       1.0  0.5866523352168969  0.41315269796895393  0.7750084377795541  1.0000
  C   C19       1.0  0.6101754674055472  0.411682399159524  0.854261607867144  1.0000
  C   C20       1.0  0.4352429242808924  0.2384469484652811  0.5337449617208704  1.0000
  C   C21       1.0  0.43361824299873325  0.15164357638014533  0.5314025939038982  1.0000
  C   C22       1.0  0.5191639149921912  0.1087095883223341  0.4822339420247912  1.0000
  C   C23       1.0  0.5029512511066798  0.4847348387121144  0.6522289531194899  1.0000
  C   C24       1.0  0.6052467619937901  0.1523536150399991  0.4353172381658935  1.0000
  C   C25       1.0  0.5978717405931135  0.2398024170756372  0.4447468855940996  1.0000
  C   C26       1.0  0.5615874235010736  0.8495333549103138  0.4678599704264242  1.0000
  C   C27       1.0  0.560700613649928  0.7625181532017109  0.46481988144270736  1.0000
  C   C28       1.0  0.4809559371667191  0.8906452892553247  0.5211124139494243  1.0000
  C   C29       1.0  0.408073875607485  0.7558645688613409  0.5622730632733874  1.0000
  C   C30       1.0  0.4040798225228953  0.8429580071825459  0.5698457199148661  1.0000
  C   C31       1.0  0.2665797704231068  0.4972046133590524  0.5040594571120066  1.0000
  C   C32       1.0  0.859762020709894  0.5495166964985146  0.6412844524248624  1.0000
  C   C33       1.0  0.9137212103656933  0.5724234857782874  0.708084559920756  1.0000
  C   C34       1.0  0.04281248793240172  0.5736703566819089  0.7074815478807535  1.0000
  C   C35       1.0  0.11413222380233624  0.5515895813126621  0.6429694205299226  1.0000
  C   C36       1.0  0.06061212001211659  0.5259662336891607  0.5745022661306505  1.0000
  C   C37       1.0  0.6965472191773329  0.10462420952664789  0.38294402796992677  1.0000
  C   C38       1.0  0.7738462123004908  0.15435064869171103  0.323313150241482  1.0000
  C   C39       1.0  0.837327132687136  0.5951247125380021  0.7799199397860617  1.0000
  C   C40       1.0  0.7555702583214126  0.6767949355859102  0.7683524711899634  1.0000
  N   N1        1.0  0.5604851126225084  0.5394696904911243  0.0153732715612946  1.0000
  N   N2        1.0  0.5876029125096522  0.4720945348252458  0.979959936747377  1.0000
  N   N3        1.0  0.517753659677659  0.2817024912450138  0.4906573068851683  1.0000
  N   N4        1.0  0.522136006103139  0.0203672885104851  0.47407797029349275  1.0000
  N   N5        1.0  0.4754698433181445  0.9790964132765012  0.5310826129024875  1.0000
  N   N6        1.0  0.48484139267129217  0.7169349045736269  0.5107871650874998  1.0000
  O   O1        1.0  0.4903458131958869  0.5897683411656659  0.38084221269824764  1.0000
  O   O2        1.0  0.5364361448872756  0.44820873808173184  0.38068339300330917  1.0000
  O   O3        1.0  0.6816813188078328  0.5706874342082745  0.4896574199208741  1.0000
  O   O4        1.0  0.6908329875589914  0.4285406167327963  0.5145757628776408  1.0000
  O   O5        1.0  0.5129001340037362  0.5572437445761552  0.6183921427477086  1.0000
  O   O6        1.0  0.48615340420390407  0.41630051061145684  0.6199589282986718  1.0000
  O   O7        1.0  0.3126118110515677  0.5671431491078494  0.514865534001572  1.0000
  O   O8        1.0  0.32623833426204374  0.4279746600970925  0.48863832730071954  1.0000
  F   F1        1.0  0.6765730432938284  0.288510032753628  0.4050678255215556  1.0000
  F   F2        1.0  0.4022989350458772  0.6127642834872518  0.7542610778128347  1.0000
