data_image0
_chemical_formula_structural       Cd2H56C56N20O12
_chemical_formula_sum              "Cd2 H56 C56 N20 O12"
_cell_length_a       8.42232623539335
_cell_length_b       10.37001473765036
_cell_length_c       17.48494782800004
_cell_angle_alpha    90.00000526210229
_cell_angle_beta     89.9999934995098
_cell_angle_gamma    94.75339182404095

_space_group_name_H-M_alt    "P 1"
_space_group_IT_number       1

loop_
  _space_group_symop_operation_xyz
  'x, y, z'

loop_
  _atom_site_type_symbol
  _atom_site_label
  _atom_site_symmetry_multiplicity
  _atom_site_fract_x
  _atom_site_fract_y
  _atom_site_fract_z
  _atom_site_occupancy
  Cd  Cd1       1.0  6.293074509999999e-08  9.978184678999998e-07  0.5000003480708415  1.0000
  Cd  Cd2       1.0  0.5000003179413355  0.49999959917415976  1.2582006999999995e-09  1.0000
  H   H1        1.0  0.714726826340062  0.12705462941701026  0.5783271312282778  1.0000
  H   H2        1.0  0.2147222673675699  0.6270561098788077  0.9216704784351463  1.0000
  H   H3        1.0  0.2852740524987496  0.8729475320992746  0.4216741393503298  1.0000
  H   H4        1.0  0.7852802802035299  0.3729402164973407  0.0783279325407662  1.0000
  H   H5        1.0  0.6547830796096933  0.3218328570248302  0.653915010965747  1.0000
  H   H6        1.0  0.1547824452481876  0.8218371859911712  0.8460820420633155  1.0000
  H   H7        1.0  0.34521649648439023  0.6781683519374155  0.34608568769237985  1.0000
  H   H8        1.0  0.8452178481173008  0.17816013787002294  0.1539175127536865  1.0000
  H   H9        1.0  0.8801084245862612  0.4750989535597582  0.6983091938365434  1.0000
  H   H10       1.0  0.380111239698401  0.9751022646859013  0.8016895716782031  1.0000
  H   H11       1.0  0.11989150279205057  0.5249051579954126  0.3016903609806718  1.0000
  H   H12       1.0  0.6198882193009752  0.024897976745343386  0.19831112697989536  1.0000
  H   H13       1.0  0.20144645080800672  0.23652762750100453  0.5842465261047635  1.0000
  H   H14       1.0  0.7014418731427271  0.736526339133178  0.9157545225266546  1.0000
  H   H15       1.0  0.7985544280307408  0.763474534015323  0.415755316394339  1.0000
  H   H16       1.0  0.2985600742516609  0.26347483987502324  0.0842450322904114  1.0000
  H   H17       1.0  0.29786208643285755  0.5635706280145383  0.76013782174266  1.0000
  H   H18       1.0  0.7978621019972324  0.06357116209243689  0.7398614951280678  1.0000
  H   H19       1.0  0.702140812422094  0.4364286009547482  0.23986287691531064  1.0000
  H   H20       1.0  0.2021352198917299  0.9364310443545704  0.26013577200718874  1.0000
  H   H21       1.0  0.08635313333135741  0.5268608432073592  0.7684930130562577  1.0000
  H   H22       1.0  0.586354336355967  0.026861361296077694  0.731506885367345  1.0000
  H   H23       1.0  0.9136472771286464  0.4731374481849356  0.23150825752225052  1.0000
  H   H24       1.0  0.41364275134347395  0.9731389100890054  0.2684915256088445  1.0000
  H   H25       1.0  0.16780818289525  0.6511355774497715  0.7059414982181025  1.0000
  H   H26       1.0  0.6678079525282146  0.15113418303157997  0.7940584032358089  1.0000
  H   H27       1.0  0.8321938815935895  0.3488665690895658  0.2940603442809646  1.0000
  H   H28       1.0  0.3321892522659837  0.8488670558844617  0.20593943581991428  1.0000
  H   H29       1.0  0.3211905348443551  0.5877821976967184  0.519381026817605  1.0000
  H   H30       1.0  0.8211928695474668  0.0877827309883514  0.9806194340654955  1.0000
  H   H31       1.0  0.6788077385050499  0.41221805871143846  0.480618527999539  1.0000
  H   H32       1.0  0.17880907784680025  0.9122184480199204  0.0193812645925604  1.0000
  H   H33       1.0  0.4973999788164036  0.6749358953046922  0.4834415406908406  1.0000
  H   H34       1.0  0.9974013455054163  0.17493735488349668  0.0165593633287102  1.0000
  H   H35       1.0  0.5025971088828527  0.32506437608049044  0.5165585860468269  1.0000
  H   H36       1.0  0.002600836078379089  0.8250657591866994  0.9834401914884126  1.0000
  H   H37       1.0  0.3640480754607012  0.7548737651923998  0.5414686002064428  1.0000
  H   H38       1.0  0.8640492292991196  0.25487431078511946  0.9585318684949513  1.0000
  H   H39       1.0  0.6359500807939398  0.24512552368479845  0.4585315265311677  1.0000
  H   H40       1.0  0.1359503467949637  0.7451268981771264  0.0414688301631756  1.0000
  H   H41       1.0  0.673158463985402  0.8197165118292844  0.5226575565408993  1.0000
  H   H42       1.0  0.1731591653443729  0.31971595768965944  0.977342926849417  1.0000
  H   H43       1.0  0.32684087791933786  0.18028276207093086  0.4773425701966829  1.0000
  H   H44       1.0  0.8268404107498315  0.6802852512725152  0.0226566279677201  1.0000
  H   H45       1.0  0.6671543163690217  0.6148244397690872  0.7377070911645802  1.0000
  H   H46       1.0  0.1671587383647406  0.11482478217626375  0.7622928081039005  1.0000
  H   H47       1.0  0.3328446742517955  0.385171931538025  0.26229131981143883  1.0000
  H   H48       1.0  0.8328428577454189  0.8851734942390121  0.237707890554077  1.0000
  H   H49       1.0  0.9220548786629691  0.7425527212169241  0.7709265178904801  1.0000
  H   H50       1.0  0.4220583563949916  0.2425550096386572  0.7290750906400874  1.0000
  H   H51       1.0  0.07794731762395912  0.2574407025662708  0.22907246500584932  1.0000
  H   H52       1.0  0.5779445424599032  0.7574442193306651  0.2709261799383782  1.0000
  H   H53       1.0  0.05041632422491918  0.8958273990159068  0.6726677465790658  1.0000
  H   H54       1.0  0.5504189263278079  0.39582984879891797  0.8273333202829461  1.0000
  H   H55       1.0  0.9495846864118533  0.10416603974430669  0.32733180823779406  1.0000
  H   H56       1.0  0.44958171832172406  0.6041703776553075  0.1726668064546288  1.0000
  C   C1        1.0  0.809796042382068  0.19704011863214524  0.5977901570325841  1.0000
  C   C2        1.0  0.3097924390870403  0.6970396466970212  0.9022074515742204  1.0000
  C   C3        1.0  0.19020483645674344  0.8029620428841464  0.4022111135460307  1.0000
  C   C4        1.0  0.6902078542785687  0.30295767716410876  0.0977909594017845  1.0000
  C   C5        1.0  0.7774856725893146  0.305111100603348  0.6402243742221927  1.0000
  C   C6        1.0  0.2774838496112508  0.8051154462054695  0.8597755304947794  1.0000
  C   C7        1.0  0.2225141376941693  0.6948920434208928  0.359776324435984  1.0000
  C   C8        1.0  0.7225156093880614  0.19488479522581062  0.1402257400838138  1.0000
  C   C9        1.0  0.9032790239733615  0.39141131406891816  0.6639436319795351  1.0000
  C   C10       1.0  0.4032805288950882  0.8914136768044963  0.836056270953577  1.0000
  C   C11       1.0  0.09672066921548612  0.6085908624242862  0.3360564947581182  1.0000
  C   C12       1.0  0.5967188130096516  0.10858559709571129  0.16394385578399806  1.0000
  C   C13       1.0  0.059740529147099194  0.36872121127322527  0.643952746024361  1.0000
  C   C14       1.0  0.5597397555573167  0.8687218058029699  0.8560471748142503  1.0000
  C   C15       1.0  0.9402591640416844  0.6312809652200143  0.35604795263379424  1.0000
  C   C16       1.0  0.44025958634754403  0.13127746809717414  0.1439518080823419  1.0000
  C   C17       1.0  0.08151454405173551  0.257863695683305  0.6005474080464878  1.0000
  C   C18       1.0  0.5815124583130215  0.757863342917652  0.899453648626256  1.0000
  C   C19       1.0  0.9184851491369842  0.7421384808099699  0.3994538625321553  1.0000
  C   C20       1.0  0.4184893719866666  0.24213686855954822  0.1005459061907885  1.0000
  C   C21       1.0  0.19700661677014614  0.45845118077514957  0.6657411999766083  1.0000
  C   C22       1.0  0.6970070335509817  0.9584517576882728  0.8342592905643116  1.0000
  C   C23       1.0  0.8029930764187013  0.5415509957180615  0.334258926761045  1.0000
  C   C24       1.0  0.30299017124309563  0.0415494812278396  0.16573969233240146  1.0000
  C   C25       1.0  0.1842565950416528  0.5543397823620494  0.7289384178597018  1.0000
  C   C26       1.0  0.6842576724018272  0.054339337711802195  0.7710614767469508  1.0000
  C   C27       1.0  0.8157451181632069  0.4456594615842276  0.2710622807982972  1.0000
  C   C28       1.0  0.31574048385287773  0.9456599511653675  0.228938078070172  1.0000
  C   C29       1.0  0.4169157071901425  0.6623340973887863  0.5327856989498797  1.0000
  C   C30       1.0  0.9169156734972077  0.1623346590104475  0.967215333039853  1.0000
  C   C31       1.0  0.5830836347145905  0.33766517651142886  0.46721442778770245  1.0000
  C   C32       1.0  0.08308401969157589  0.8376675174827921  0.0327853656183024  1.0000
  C   C33       1.0  0.5043704272924218  0.6256812478520712  0.6029637715138421  1.0000
  C   C34       1.0  0.004372448794924798  0.1256816365374149  0.8970372814024472  1.0000
  C   C35       1.0  0.49562772896228324  0.3743180410250915  0.3970357833032807  1.0000
  C   C36       1.0  0.9956261758385877  0.874321522463745  0.10296227341477497  1.0000
  C   C37       1.0  0.726563017198558  0.7958903254115982  0.5771747315652859  1.0000
  C   C38       1.0  0.22656491601901516  0.29588974969028203  0.9228263192880988  1.0000
  C   C39       1.0  0.2734363247061181  0.20410894848865263  0.4228259670927911  1.0000
  C   C40       1.0  0.7734346600751892  0.7041114592718926  0.0771732355290382  1.0000
  C   C41       1.0  0.6522380437081806  0.7019679461656806  0.6260218882538168  1.0000
  C   C42       1.0  0.1522387674615544  0.20196737950352875  0.8739791610262557  1.0000
  C   C43       1.0  0.3477611811019159  0.2980303602034978  0.3739776665632419  1.0000
  C   C44       1.0  0.8477596229825508  0.7980338444356362  0.1260203937909097  1.0000
  C   C45       1.0  0.723792511621653  0.6844862579347148  0.697454755414789  1.0000
  C   C46       1.0  0.22379573924625623  0.18448662019550705  0.8025462887767603  1.0000
  C   C47       1.0  0.276207547554435  0.31550913086448407  0.3025447994021561  1.0000
  C   C48       1.0  0.7762059739586674  0.8155126237507345  0.1974538379607509  1.0000
  C   C49       1.0  0.8658233703868561  0.7554812761109487  0.7156555514008929  1.0000
  C   C50       1.0  0.3658268361441158  0.25548357122875126  0.7843460610789492  1.0000
  C   C51       1.0  0.13417657169452474  0.24451314515724926  0.2843440034160237  1.0000
  C   C52       1.0  0.6341748770607508  0.7445156727175257  0.2156546375790569  1.0000
  C   C53       1.0  0.9355757072610655  0.8421550797169738  0.6619098955875558  1.0000
  C   C54       1.0  0.4355778586292232  0.3421564287920375  0.838091718278875  1.0000
  C   C55       1.0  0.0644254204704069  0.1578393265742406  0.3380896592293325  1.0000
  C   C56       1.0  0.5644227860203088  0.6578437976621885  0.1619084084587001  1.0000
  N   N1        1.0  0.960146467458557  0.17441281379277737  0.5782859475100608  1.0000
  N   N2        1.0  0.4601419084768922  0.6744142942597049  0.9217139389500487  1.0000
  N   N3        1.0  0.03985547993564608  0.825588365215523  0.4217153230684899  1.0000
  N   N4        1.0  0.5398599218228597  0.32558591721745955  0.07828504394650079  1.0000
  N   N5        1.0  0.32670441880408424  0.45211896667887413  0.6263347302606446  1.0000
  N   N6        1.0  0.82670482704723  0.9521195483661198  0.873666324529104  1.0000
  N   N7        1.0  0.6732950401953558  0.547881274752335  0.3736653964769587  1.0000
  N   N8        1.0  0.1732937975863464  0.0478836106350045  0.1263326583676232  1.0000
  N   N9        1.0  0.4562667075512721  0.5290777950914817  0.6466796567115054  1.0000
  N   N10       1.0  0.9562666985341721  0.02907834291487889  0.8533207929929887  1.0000
  N   N11       1.0  0.5437325172588245  0.470920511277697  0.35331989810554626  1.0000
  N   N12       1.0  0.043730740449312626  0.970924831063229  0.14667818990377404  1.0000
  N   N13       1.0  0.8661348386042461  0.8624618662304752  0.5940955694194442  1.0000
  N   N14       1.0  0.3661367410907062  0.36246128845920106  0.9059054776691012  1.0000
  N   N15       1.0  0.1338645033004866  0.13753740766973263  0.4059045573181379  1.0000
  N   N16       1.0  0.6338639035588259  0.6375389379950248  0.0940946490684667  1.0000
  N   N17       1.0  0.6622979352329921  0.9872230595402697  0.3911707527101242  1.0000
  N   N18       1.0  0.162298833527089  0.48722342828637  0.10883018924017308  1.0000
  N   N19       1.0  0.33770519781155167  0.012778104490912797  0.6088282301864112  1.0000
  N   N20       1.0  0.8377029967724783  0.512776783190901  0.8911705094178543  1.0000
  O   O1        1.0  0.7385321573217568  0.03200022988928449  0.45085863178137936  1.0000
  O   O2        1.0  0.2385319532816581  0.5319977351871614  0.049141134188779696  1.0000
  O   O3        1.0  0.26146990716727464  0.968001916649946  0.5491414949562099  1.0000
  O   O4        1.0  0.7614685742732378  0.468001523736035  0.9508584206282649  1.0000
  O   O5        1.0  0.5768540330563496  0.8818149471633131  0.3959880382055231  1.0000
  O   O6        1.0  0.07685042398304628  0.3818173102958155  0.1040140459341998  1.0000
  O   O7        1.0  0.42315360839928934  0.11818422189785589  0.6040098008498375  1.0000
  O   O8        1.0  0.9231490350164576  0.6181829311353578  0.8959855088829087  1.0000
  O   O9        1.0  0.6742305426539518  0.05056958334795779  0.3297556133838953  1.0000
  O   O10       1.0  0.17423208349967473  0.5505719259955129  0.1702453011750578  1.0000
  O   O11       1.0  0.3257703361849806  0.949432578168263  0.6702445133537296  1.0000
  O   O12       1.0  0.8257720010053121  0.44942728799682635  0.8297559694033723  1.0000
