data_image0
_chemical_formula_structural       Cu4H20C12S4N16
_chemical_formula_sum              "Cu4 H20 C12 S4 N16"
_cell_length_a       6.471372045000271
_cell_length_b       8.72938689090783
_cell_length_c       10.75709794903015
_cell_angle_alpha    106.00083351576151
_cell_angle_beta     90.00003330166957
_cell_angle_gamma    89.99999464183902

_space_group_name_H-M_alt    "P 1"
_space_group_IT_number       1

loop_
  _space_group_symop_operation_xyz
  'x, y, z'

loop_
  _atom_site_type_symbol
  _atom_site_label
  _atom_site_symmetry_multiplicity
  _atom_site_fract_x
  _atom_site_fract_y
  _atom_site_fract_z
  _atom_site_occupancy
  Cu  Cu1       1.0  0.08914806725159961  0.49074895517366457  0.15257164855412234  1.0000
  Cu  Cu2       1.0  0.5891456852913066  0.5092525989349709  0.347429881777515  1.0000
  Cu  Cu3       1.0  0.9108520501891063  0.509251899772387  0.8474292395312445  1.0000
  Cu  Cu4       1.0  0.4108528868825587  0.4907494512270389  0.652572200555163  1.0000
  H   H1        1.0  0.7121521469591697  0.22411740582863618  0.499083773843644  1.0000
  H   H2        1.0  0.21215280520602417  0.775879379491883  0.0009148840689050899  1.0000
  H   H3        1.0  0.2878479704808257  0.7758786787386427  0.5009151284411004  1.0000
  H   H4        1.0  0.7878473122340351  0.2241178967963222  0.9990842820668604  1.0000
  H   H5        1.0  0.5174283197541883  0.13952496363035047  0.38449199127271083  1.0000
  H   H6        1.0  0.0174290805666288  0.8604741970810751  0.11550712503902358  1.0000
  H   H7        1.0  0.4825717976858712  0.8604723126578622  0.6155071748630476  1.0000
  H   H8        1.0  0.9825710368731038  0.1395254591539157  0.8844916384021887  1.0000
  H   H9        1.0  0.7288564213012733  0.9222230269306594  0.4410280358794338  1.0000
  H   H10       1.0  0.2288556659337715  0.07777494381126362  0.0589690310358364  1.0000
  H   H11       1.0  0.2711483319390595  0.0777742353773689  0.5589674086708598  1.0000
  H   H12       1.0  0.7711459967728087  0.9222235172077617  0.9410285381580651  1.0000
  H   H13       1.0  0.9549351868304329  0.9980242854211095  0.38698184090864624  1.0000
  H   H14       1.0  0.4549344922810334  0.0019748898841527  0.11301650071640523  1.0000
  H   H15       1.0  0.04506802114357101  0.0019753673188774  0.6130159921365461  1.0000
  H   H16       1.0  0.5450656251586352  0.9980235746299115  0.8869819988737931  1.0000
  H   H17       1.0  0.7537382360534224  0.9143539423769698  0.2753691369790375  1.0000
  H   H18       1.0  0.2537376412652534  0.08564522111463188  0.22462820264279063  1.0000
  H   H19       1.0  0.246266517187621  0.0856480903098245  0.724628293371879  1.0000
  H   H20       1.0  0.7462640214417818  0.9143532433994609  0.7753702969476849  1.0000
  C   C1        1.0  0.011444406718794698  0.32552246792077705  0.3574352762010733  1.0000
  C   C2        1.0  0.5114479884300352  0.6744767065235705  0.1425675595677589  1.0000
  C   C3        1.0  0.9885510749211261  0.6744772057894577  0.6425681392221776  1.0000
  C   C4        1.0  0.4885536742788048  0.3255217719707987  0.8574346616090053  1.0000
  C   C5        1.0  0.6849708499914584  0.1492388632988977  0.40032024986233244  1.0000
  C   C6        1.0  0.18497468696006786  0.8507603078347827  0.09967985647546837  1.0000
  C   C7        1.0  0.315029267448793  0.8507619881520797  0.5996797078264677  1.0000
  C   C8        1.0  0.8150285210147814  0.14923816017441283  0.9003195735118581  1.0000
  C   C9        1.0  0.7870001601107646  0.9870718007269662  0.37394618083130393  1.0000
  C   C10       1.0  0.28700256762072485  0.012928559355927401  0.1260523648766707  1.0000
  C   C11       1.0  0.21300150259548897  0.0129290402388449  0.6260509856680443  1.0000
  C   C12       1.0  0.7129990950863742  0.9870710968790916  0.8739463985648115  1.0000
  S   S1        1.0  0.770573966079624  0.26190026484021445  0.2898299270727094  1.0000
  S   S2        1.0  0.2705748322978465  0.7381036802114735  0.21017219553161226  1.0000
  S   S3        1.0  0.22942460609436915  0.7381041687636484  0.7101726829619964  1.0000
  S   S4        1.0  0.729423739875564  0.26189836645546904  0.7898289564044918  1.0000
  N   N1        1.0  0.1445027106086414  0.4025720384115132  0.2987486708295606  1.0000
  N   N2        1.0  0.6445001767255223  0.597428343740198  0.2012572673348032  1.0000
  N   N3        1.0  0.8554989521016907  0.5974288340099106  0.7012568692389465  1.0000
  N   N4        1.0  0.3554937596480059  0.40257252868106963  0.7987482727323254  1.0000
  N   N5        1.0  0.30690416675521703  0.4401116857517877  0.3800801108495976  1.0000
  N   N6        1.0  0.8069031029216305  0.5598898773600991  0.11992149698239264  1.0000
  N   N7        1.0  0.693095950685553  0.5598903609151833  0.6199210410867835  1.0000
  N   N8        1.0  0.19309392398442068  0.44011216930680774  0.8800796549534341  1.0000
  N   N9        1.0  0.2689957209459735  0.38787142786262047  0.4832647092327917  1.0000
  N   N10       1.0  0.7689976414794942  0.6121301231967848  0.016734093918273584  1.0000
  N   N11       1.0  0.7310013059591752  0.6121306118141588  0.5167345819098941  1.0000
  N   N12       1.0  0.23100247595985482  0.38787072126405764  0.9832640029773784  1.0000
  N   N13       1.0  0.08439498964780512  0.3143836260651511  0.4713448658025285  1.0000
  N   N14       1.0  0.5844000044284386  0.685616732631125  0.028655468591203638  1.0000
  N   N15       1.0  0.9155989467234633  0.6856172288807727  0.5286560222817372  1.0000
  N   N16       1.0  0.41560320354692243  0.3143829305940642  0.9713451556437036  1.0000
