data_image0
_chemical_formula_structural       Nd4H32C48N8O28
_chemical_formula_sum              "Nd4 H32 C48 N8 O28"
_cell_length_a       8.977127428
_cell_length_b       11.923228030575642
_cell_length_c       13.8933
_cell_angle_alpha    90.0
_cell_angle_beta     90.0
_cell_angle_gamma    90.7721598231507

_space_group_name_H-M_alt    "P 1"
_space_group_IT_number       1

loop_
  _space_group_symop_operation_xyz
  'x, y, z'

loop_
  _atom_site_type_symbol
  _atom_site_label
  _atom_site_symmetry_multiplicity
  _atom_site_fract_x
  _atom_site_fract_y
  _atom_site_fract_z
  _atom_site_occupancy
  Nd  Nd1       1.0  0.7312266298654819  0.9371635500917321  0.862457443515936  1.0000
  Nd  Nd2       1.0  0.268786216402546  0.562841656395733  0.3624581632873429  1.0000
  Nd  Nd3       1.0  0.2687491189739148  0.0628267800881801  0.1375267215132467  1.0000
  Nd  Nd4       1.0  0.7312657308945064  0.4371738370406888  0.6375310401416527  1.0000
  H   H1        1.0  0.6316017225597219  0.6628597296111565  0.0268604291277086  1.0000
  H   H2        1.0  0.3684085204939719  0.8371245074958864  0.5268597093563088  1.0000
  H   H3        1.0  0.3683952812584365  0.3371356332200577  0.9731359720152853  1.0000
  H   H4        1.0  0.6315882581260863  0.162858273707073  0.47313885110089166  1.0000
  H   H5        1.0  0.6469376591377196  0.5028700671466453  0.3275528492150883  1.0000
  H   H6        1.0  0.3530637774717817  0.9971200413869141  0.8275514096722887  1.0000
  H   H7        1.0  0.3530830827678812  0.4971445875145619  0.6724536287275171  1.0000
  H   H8        1.0  0.646900441603428  0.002848480637347  0.1724493100991111  1.0000
  H   H9        1.0  0.8015468018063385  0.3335658058959794  0.3445495310689353  1.0000
  H   H10       1.0  0.1984567434960027  0.1664255847054932  0.8445488112975283  1.0000
  H   H11       1.0  0.19847401516529564  0.666453042641308  0.6554540677880709  1.0000
  H   H12       1.0  0.8015275865894794  0.8335462924196335  0.1554648643590824  1.0000
  H   H13       1.0  0.8859397591730056  0.229610521811388  0.1985439024565778  1.0000
  H   H14       1.0  0.11405705743723618  0.2703783524644408  0.6985446222279776  1.0000
  H   H15       1.0  0.11405740979043338  0.7703940675472154  0.8014661743430267  1.0000
  H   H16       1.0  0.8859454860649123  0.7296153328163371  0.3014798499996374  1.0000
  H   H17       1.0  0.8140493437791889  0.2963300576822334  0.0359907293443626  1.0000
  H   H18       1.0  0.185949790794453  0.20366384924489717  0.5359885700301561  1.0000
  H   H19       1.0  0.18594665118934017  0.7036711765754972  0.9640179079124493  1.0000
  H   H20       1.0  0.8140384516191329  0.7963399013384844  0.4640301440262604  1.0000
  H   H21       1.0  0.6583857181411686  0.4653466190334186  0.0181439974664031  1.0000
  H   H22       1.0  0.3416133563796392  0.0346439327928394  0.5181425579236034  1.0000
  H   H23       1.0  0.3416136036403897  0.5346537764490904  0.9818617607048026  1.0000
  H   H24       1.0  0.6583591557259609  0.9653522688135894  0.4818646397904018  1.0000
  H   H25       1.0  0.9376567987674489  0.8752392921371808  0.6800515356322805  1.0000
  H   H26       1.0  0.062342755261653296  0.6247701082263717  0.1800565740320863  1.0000
  H   H27       1.0  0.0623493567986628  0.1247694910975099  0.3199455852821131  1.0000
  H   H28       1.0  0.9376522909100728  0.3752403525587482  0.8199484643677195  1.0000
  H   H29       1.0  0.9715695424132916  0.0004579712685526  0.7087373050319243  1.0000
  H   H30       1.0  0.02843105140618719  0.4995552274885711  0.2087502609171352  1.0000
  H   H31       1.0  0.028435559263563392  0.9995541670670035  0.2912562170254703  1.0000
  H   H32       1.0  0.9715684205074451  0.5004535557461125  0.7912562170254702  1.0000
  C   C1        1.0  0.6814856828490503  0.45657974046405053  0.263732878437807  1.0000
  C   C2        1.0  0.31851891634254065  0.0434082950365564  0.7637314388950074  1.0000
  C   C3        1.0  0.3185349990037238  0.5434315590962839  0.7362757588189979  1.0000
  C   C4        1.0  0.6814531904064721  0.9565652596390066  0.2362771983617975  1.0000
  C   C5        1.0  0.7688345043588497  0.3613695267931831  0.2729761827643529  1.0000
  C   C6        1.0  0.23117119376161097  0.1386176699322093  0.772975462992953  1.0000
  C   C7        1.0  0.23118506355184107  0.6386417727671585  0.7270288556354528  1.0000
  C   C8        1.0  0.7688087255951713  0.8613567235185755  0.22703677312085802  1.0000
  C   C9        1.0  0.817308634793541  0.3038547101550435  0.1912418215974583  1.0000
  C   C10       1.0  0.1826960094376702  0.1961358416712145  0.6912425413688581  1.0000
  C   C11       1.0  0.18269300495142457  0.6961507179787745  0.8087617772595408  1.0000
  C   C12       1.0  0.8173031171721943  0.803853649733476  0.308773293601952  1.0000
  C   C13       1.0  0.7779123248691275  0.3420315641624043  0.0996595481275122  1.0000
  C   C14       1.0  0.22208568074922397  0.1579615039895046  0.5996595481275122  1.0000
  C   C15       1.0  0.22208600307600784  0.6579755415218429  0.9003447705008867  1.0000
  C   C16       1.0  0.7778956528137755  0.8420296649656224  0.4003541275290985  1.0000
  C   C17       1.0  0.6909603610744312  0.4373826920697539  0.0898634593653043  1.0000
  C   C18       1.0  0.3090331587491875  0.0626086985317258  0.5898613000511048  1.0000
  C   C19       1.0  0.3090379068178706  0.5626210585136349  0.910143738348701  1.0000
  C   C20       1.0  0.6909448029611626  0.9373807928729647  0.41014877674850686  1.0000
  C   C21       1.0  0.641529841123912  0.49542258199380745  0.1718900477208436  1.0000
  C   C22       1.0  0.3584681644944395  0.0045704861581015  0.6718886081780439  1.0000
  C   C23       1.0  0.35847413159765296  0.5045887175665271  0.828115710450362  1.0000
  C   C24       1.0  0.64150857818138  0.9954131338200654  0.328120029078768  1.0000
  C   C25       1.0  0.5535448243905633  0.5969110281648469  0.1621810512981057  1.0000
  C   C26       1.0  0.4464499886192783  0.9030824354695852  0.6621824908409053  1.0000
  C   C27       1.0  0.4464480089102024  0.4031002713954948  0.8378167893876877  1.0000
  C   C28       1.0  0.5535290119671146  0.09690286205902511  0.3378218277874936  1.0000
  C   C29       1.0  0.4658345217782481  0.8460591411086824  0.0247011149258967  1.0000
  C   C30       1.0  0.5341859719522688  0.6539376776266153  0.5247090324113088  1.0000
  C   C31       1.0  0.5341636410216067  0.1539387380481827  0.9752873687316921  1.0000
  C   C32       1.0  0.46583788658146813  0.3460643954063372  0.47528880827449177  1.0000
  C   C33       1.0  0.47407960983644404  0.7589749817412965  0.1005750973490791  1.0000
  C   C34       1.0  0.5259274715494939  0.741019320668343  0.6005822950630915  1.0000
  C   C35       1.0  0.525911854297732  0.24102205864034693  0.89941194676571  1.0000
  C   C36       1.0  0.474076275973971  0.2589793972637366  0.3994141060799095  1.0000
  C   C37       1.0  0.4084610230816494  0.7392687967902063  0.1899779030180042  1.0000
  C   C38       1.0  0.5915462234495621  0.7607347321468224  0.6899829414178029  1.0000
  C   C39       1.0  0.5915384788583891  0.2607416639949136  0.8100127399537911  1.0000
  C   C40       1.0  0.40844858251085  0.2392623082348209  0.3100177783535969  1.0000
  C   C41       1.0  0.3081402787930543  0.8078386707900265  0.2512282898951312  1.0000
  C   C42       1.0  0.6918646948143774  0.6921623418213514  0.7512318887521304  1.0000
  C   C43       1.0  0.6918490625494087  0.1921642410181406  0.7487580344482582  1.0000
  C   C44       1.0  0.3081457363615668  0.3078363761107283  0.2487594739910577  1.0000
  C   C45       1.0  0.9881324562150198  0.9431775683985038  0.0273261212239007  1.0000
  C   C46       1.0  0.0118703946006988  0.5568293156393977  0.5273189235098954  1.0000
  C   C47       1.0  0.011837812993221097  0.05681779443271039  0.9726717194618999  1.0000
  C   C48       1.0  0.9881726561729138  0.4431870165722458  0.4726789171759052  1.0000
  N   N1        1.0  0.45610301819755233  0.6380638566425603  0.22591968790712263  1.0000
  N   N2        1.0  0.5438952867706064  0.8619379947440393  0.725921847221322  1.0000
  N   N3        1.0  0.5438965738217333  0.3619516367938616  0.7740803120928774  1.0000
  N   N4        1.0  0.45608606180559963  0.1380540129863022  0.2740831911784838  1.0000
  N   N5        1.0  0.5640451949657077  0.6680030992425543  0.0855714625035091  1.0000
  N   N6        1.0  0.4359573856122906  0.8319886868414414  0.5855750613605153  1.0000
  N   N7        1.0  0.43594185843976857  0.3319964574647472  0.9144191804682862  1.0000
  N   N8        1.0  0.5640384442109576  0.1680033208889071  0.4144242188680849  1.0000
  O   O1        1.0  0.5524959664379381  0.8305678016236299  0.9534408671805821  1.0000
  O   O2        1.0  0.44752001147142545  0.669425662010795  0.4534480648945873  1.0000
  O   O3        1.0  0.44750443925928346  0.16943091630844984  0.0465490560198063  1.0000
  O   O4        1.0  0.5525050210572147  0.330579766123023  0.5465432978486007  1.0000
  O   O5        1.0  0.3758684525624999  0.9260506172400653  0.0328388503811183  1.0000
  O   O6        1.0  0.6241498433102703  0.5739478790456616  0.532844608552324  1.0000
  O   O7        1.0  0.6241252094294225  0.0739447455911488  0.9671467541908711  1.0000
  O   O8        1.0  0.37587189243175345  0.4260600654138074  0.4671532321334766  1.0000
  O   O9        1.0  0.31232265522059066  0.9136115807701303  0.2431150266675317  1.0000
  O   O10       1.0  0.6876890470789475  0.5863919481669058  0.7431114278105255  1.0000
  O   O11       1.0  0.6876667611879056  0.0863955249141242  0.7568835337896687  1.0000
  O   O12       1.0  0.31232802270986326  0.41360425343953017  0.256877775618463  1.0000
  O   O13       1.0  0.2279882770541235  0.7555318094750092  0.3121396644425758  1.0000
  O   O14       1.0  0.7720166665268946  0.7444675255859393  0.8121461423851812  1.0000
  O   O15       1.0  0.7720067240779755  0.24447613498445966  0.6878480994436202  1.0000
  O   O16       1.0  0.22799361451698266  0.2555228045939728  0.1878445005866141  1.0000
  O   O17       1.0  0.9427944031805424  0.9269623659010762  0.7341085271317809  1.0000
  O   O18       1.0  0.0571985272489002  0.5730503895633419  0.2341186039313925  1.0000
  O   O19       1.0  0.057200658004383294  0.0730489336592584  0.2658849949256137  1.0000
  O   O20       1.0  0.9428053403802181  0.4269550385704762  0.7658871542398131  1.0000
  O   O21       1.0  0.8888161623115349  0.8767415385510445  0.9943440363340629  1.0000
  O   O22       1.0  0.11120007082234908  0.6232661842620715  0.4943454758768624  1.0000
  O   O23       1.0  0.1111541969759458  0.1232588569314714  0.0056494857233318  1.0000
  O   O24       1.0  0.888874170329501  0.37675014794956496  0.5056538043517378  1.0000
  O   O25       1.0  0.0685376514933296  0.9258778295453425  0.1001734649075487  1.0000
  O   O26       1.0  0.9314762036243279  0.5741215055156061  0.6001648276507366  1.0000
  O   O27       1.0  0.9314335514985074  0.0741074679832678  0.8998229362354523  1.0000
  O   O28       1.0  0.06857453965139368  0.4258889552695138  0.3998164582928467  1.0000
