data_image0
_chemical_formula_structural       Mn2H20C28O12
_chemical_formula_sum              "Mn2 H20 C28 O12"
_cell_length_a       6.032862359501267
_cell_length_b       7.59265644903224
_cell_length_c       14.453863420963293
_cell_angle_alpha    102.15462797936262
_cell_angle_beta     89.99526470464666
_cell_angle_gamma    90.00518595014567

_space_group_name_H-M_alt    "P 1"
_space_group_IT_number       1

loop_
  _space_group_symop_operation_xyz
  'x, y, z'

loop_
  _atom_site_type_symbol
  _atom_site_label
  _atom_site_symmetry_multiplicity
  _atom_site_fract_x
  _atom_site_fract_y
  _atom_site_fract_z
  _atom_site_occupancy
  Mn  Mn1       1.0  0.6955018066490268  0.7500112208064706  0.4999895545850847  1.0000
  Mn  Mn2       1.0  0.3044931820871142  0.2500039471054407  0.5000113528987811  1.0000
  H   H1        1.0  0.021380102053633693  0.3262398298908167  0.31689290942727405  1.0000
  H   H2        1.0  0.021395761708483004  0.17373727540054057  0.6831289466397761  1.0000
  H   H3        1.0  0.9786264884063556  0.673755116242731  0.6831078029779718  1.0000
  H   H4        1.0  0.9785776768406861  0.8262549754407474  0.3168714635735483  1.0000
  H   H5        1.0  0.8677034870149072  0.2132769809517683  0.15451638806626988  1.0000
  H   H6        1.0  0.8677431864463473  0.28672222767483657  0.8455105843315706  1.0000
  H   H7        1.0  0.132324652798637  0.7867260624296789  0.8454831576358686  1.0000
  H   H8        1.0  0.1322517999418196  0.7132632653866793  0.1544925261340921  1.0000
  H   H9        1.0  0.4528819473613412  0.4021103898371408  0.0343037284830032  1.0000
  H   H10       1.0  0.452859076128  0.09788976360744069  0.9656975987930776  1.0000
  H   H11       1.0  0.5471014359587087  0.5978804787763039  0.9657020612844462  1.0000
  H   H12       1.0  0.5471176781267104  0.9020998280034789  0.0342969779156377  1.0000
  H   H13       1.0  0.6020862637974603  0.5181071148567684  0.19626058590832676  1.0000
  H   H14       1.0  0.602040876611831  0.981871680075926  0.8037451396783694  1.0000
  H   H15       1.0  0.3979236423586913  0.4818865149024062  0.8037351356287701  1.0000
  H   H16       1.0  0.397940849668622  0.01811384347830371  0.1962531313638536  1.0000
  H   H17       1.0  0.13428060728136873  0.8577686444775239  0.521280416136335  1.0000
  H   H18       1.0  0.13426577258810113  0.6422156076326077  0.4786600524833062  1.0000
  H   H19       1.0  0.8657342730774645  0.14223849316957174  0.4787112871226852  1.0000
  H   H20       1.0  0.8657540802705626  0.3578049498900242  0.5213414598203272  1.0000
  C   C1        1.0  0.3215180358733249  0.4295787204852459  0.2666499511847817  1.0000
  C   C2        1.0  0.32152181469418656  0.07040306842231561  0.7333631486795582  1.0000
  C   C3        1.0  0.6785001582046347  0.5704296852852268  0.7333543479001107  1.0000
  C   C4        1.0  0.6784681994409496  0.9295824509260556  0.26663581364161354  1.0000
  C   C5        1.0  0.11463649318467618  0.342672177265726  0.2547119644506353  1.0000
  C   C6        1.0  0.1146677451375524  0.15729995527255614  0.745295117283163  1.0000
  C   C7        1.0  0.885385015633375  0.6573254593309911  0.7452897417044679  1.0000
  C   C8        1.0  0.8853239273994546  0.8426909795449264  0.254700301905082  1.0000
  C   C9        1.0  0.0288513113367159  0.27931804634389584  0.16479092284316718  1.0000
  C   C10       1.0  0.028862735872060303  0.2206795968260877  0.8352365019647934  1.0000
  C   C11       1.0  0.9711668820124687  0.7206849483970291  0.8352162279910829  1.0000
  C   C12       1.0  0.9711289365704304  0.7793126764467643  0.16476045122605137  1.0000
  C   C13       1.0  0.15015829290546634  0.3021640262544381  0.08553232043336578  1.0000
  C   C14       1.0  0.1501686178025494  0.19783131374983037  0.914479199955309  1.0000
  C   C15       1.0  0.8498366947418319  0.6978363086328941  0.9144689971752624  1.0000
  C   C16       1.0  0.8498114515811964  0.8021649922189623  0.08551958990086207  1.0000
  C   C17       1.0  0.358447071885749  0.3856945853693716  0.09599947680215587  1.0000
  C   C18       1.0  0.3584283773793048  0.1143037364215047  0.9040179671404829  1.0000
  C   C19       1.0  0.6415528875693753  0.6142962968354412  0.9040042386925221  1.0000
  C   C20       1.0  0.6415533493463599  0.8856912135283892  0.0959820541601886  1.0000
  C   C21       1.0  0.4422348328556113  0.4497740014842293  0.18655754367656385  1.0000
  C   C22       1.0  0.44221447125144664  0.050204055914655  0.813447809551242  1.0000
  C   C23       1.0  0.5577701003476035  0.5502223050688356  0.8134412459180422  1.0000
  C   C24       1.0  0.5577722274523255  0.9497814501539565  0.1865532269032073  1.0000
  C   C25       1.0  0.4066021253043814  0.5051405631307304  0.36298811570945577  1.0000
  C   C26       1.0  0.4066127306247509  0.9948263776395835  0.6370172714074016  1.0000
  C   C27       1.0  0.5934193855867207  0.49487733072196255  0.6370082544731301  1.0000
  C   C28       1.0  0.5933955170068613  0.005167203673828199  0.3629860551746162  1.0000
  O   O1        1.0  0.5822970794249472  0.6002672728997355  0.3720463195776346  1.0000
  O   O2        1.0  0.5822949323736566  0.8997147227786187  0.6279464483938283  1.0000
  O   O3        1.0  0.41770785553024586  0.3997586776993955  0.6279551065981152  1.0000
  O   O4        1.0  0.4177083434595161  0.100286968361317  0.37205363766567245  1.0000
  O   O5        1.0  0.03748912138675561  0.7500123432957365  0.4999326121216539  1.0000
  O   O6        1.0  0.9625207863979669  0.2500042074282974  0.500062915546529  1.0000
  O   O7        1.0  0.2949180142364796  0.4775259792462591  0.43486106317612166  1.0000
  O   O8        1.0  0.29492983705577563  0.0224491090667485  0.5651616702949551  1.0000
  O   O9        1.0  0.7050819473104398  0.5224824745025458  0.5651356310731045  1.0000
  O   O10       1.0  0.7050634928433936  0.9775619642289544  0.4348470797889731  1.0000
  O   O11       1.0  0.041985972203342194  0.25000530173113594  9.642089054302402e-06  1.0000
  O   O12       1.0  0.9580007721288623  0.7499965453598278  0.9999908974317718  1.0000
