data_image0
_chemical_formula_structural       Ag2H20C28N10O6
_chemical_formula_sum              "Ag2 H20 C28 N10 O6"
_cell_length_a       7.950701283973117
_cell_length_b       8.848474320018184
_cell_length_c       11.504351061056903
_cell_angle_alpha    90.78149969663299
_cell_angle_beta     91.36993563709964
_cell_angle_gamma    76.0751358700315

_space_group_name_H-M_alt    "P 1"
_space_group_IT_number       1

loop_
  _space_group_symop_operation_xyz
  'x, y, z'

loop_
  _atom_site_type_symbol
  _atom_site_label
  _atom_site_symmetry_multiplicity
  _atom_site_fract_x
  _atom_site_fract_y
  _atom_site_fract_z
  _atom_site_occupancy
  Ag  Ag1       1.0  0.10047202716666702  0.2841423982588721  0.9597003679890576  1.0000
  Ag  Ag2       1.0  0.8995266002533241  0.7158530741275015  0.040298461833053495  1.0000
  H   H1        1.0  0.9662570176216436  0.8778884760877971  0.8147737570072237  1.0000
  H   H2        1.0  0.033767737985087413  0.12209882767673716  0.18521853952316286  1.0000
  H   H3        1.0  0.1527842115777532  0.8293766704798741  0.6427761731914998  1.0000
  H   H4        1.0  0.8472229685749753  0.17060151686217745  0.35721125342854515  1.0000
  H   H5        1.0  0.30113756971113054  0.3493302105457089  0.7579091164392082  1.0000
  H   H6        1.0  0.69885691594029  0.6506552545741114  0.24208878599205258  1.0000
  H   H7        1.0  0.53869323475422  0.3397899327286921  0.6783992002241845  1.0000
  H   H8        1.0  0.46131101886744125  0.6601998404113871  0.3215980558532294  1.0000
  H   H9        1.0  0.2503093802267317  0.7292244879332725  0.47524852644479404  1.0000
  H   H10       1.0  0.7496955004467766  0.2707626778843418  0.5247462567155239  1.0000
  H   H11       1.0  0.6365051865526326  0.019209812714230168  0.7137092904909892  1.0000
  H   H12       1.0  0.3634954022210408  0.9807869044106494  0.2862885091802454  1.0000
  H   H13       1.0  0.6820308896413607  0.7466751249217295  0.7838064675937276  1.0000
  H   H14       1.0  0.3179672521915294  0.25332664123214227  0.21620683163919813  1.0000
  H   H15       1.0  0.23452093543993158  0.9245654730349173  0.9968361183220935  1.0000
  H   H16       1.0  0.7654738373353711  0.07545284111736088  0.0031665709289895975  1.0000
  H   H17       1.0  0.6731153593244771  0.5261334996001137  0.828274165714717  1.0000
  H   H18       1.0  0.32687237448365647  0.47388108527250233  0.17173253084879286  1.0000
  H   H19       1.0  0.2966185820841076  0.727062653332659  0.088048668688991  1.0000
  H   H20       1.0  0.7033677475570386  0.27294798137693727  0.911955719328617  1.0000
  C   C1        1.0  0.04367766328991971  0.7608255181143729  0.7960244544703912  1.0000
  C   C2        1.0  0.9563501706456137  0.23916285490101064  0.20397553191704532  1.0000
  C   C3        1.0  0.15060508211683307  0.732781157981108  0.6999964069425388  1.0000
  C   C4        1.0  0.8494120066036501  0.26720327870576444  0.2999972373502047  1.0000
  C   C5        1.0  0.25363713743028177  0.582990989189561  0.6833018064855879  1.0000
  C   C6        1.0  0.7463684013620125  0.41699175173537373  0.31669587393788845  1.0000
  C   C7        1.0  0.23181920339138884  0.47156056542698366  0.7646935344260015  1.0000
  C   C8        1.0  0.7681754909882416  0.5284234488785272  0.2353018328771768  1.0000
  C   C9        1.0  0.3787124356087475  0.5402674434381466  0.5896048431544969  1.0000
  C   C10       1.0  0.621286520471017  0.45971058225077127  0.4103872699246906  1.0000
  C   C11       1.0  0.519693932668325  0.40948640254750046  0.5997077512975437  1.0000
  C   C12       1.0  0.480312173643661  0.5905026015567786  0.40029211324984704  1.0000
  C   C13       1.0  0.3608042980064781  0.6302664555392211  0.4882801091480715  1.0000
  C   C14       1.0  0.639197914930591  0.36971475127690917  0.511716920946995  1.0000
  C   C15       1.0  0.5497965708794441  0.9887921724585805  0.7769265535304228  1.0000
  C   C16       1.0  0.45021039014410047  0.011207220475704086  0.22306908367885817  1.0000
  C   C17       1.0  0.574668675083501  0.8365986537024526  0.8166099514680737  1.0000
  C   C18       1.0  0.42532734319699034  0.16340896744195982  0.18339253406246306  1.0000
  C   C19       1.0  0.4630081928600093  0.8048494707337993  0.89978397679279  1.0000
  C   C20       1.0  0.536975726904103  0.1951646384361183  0.10022114145162671  1.0000
  C   C21       1.0  0.3314364358488931  0.9345586405613486  0.9339109260116629  1.0000
  C   C22       1.0  0.6685587250503532  0.0654620797734466  0.0660915877373256  1.0000
  C   C23       1.0  0.48183774206244595  0.6496669112335381  0.9507518617135702  1.0000
  C   C24       1.0  0.5181491947638364  0.35035364744811653  0.049255338494568  1.0000
  C   C25       1.0  0.5961747932540079  0.5175449108245542  0.9038572768530954  1.0000
  C   C26       1.0  0.40382228073496407  0.48246791509308895  0.0961483207920466  1.0000
  C   C27       1.0  0.3866653370092835  0.6287847452773718  0.04829362494759689  1.0000
  C   C28       1.0  0.61331987739122  0.371229555160795  0.9517123079964165  1.0000
  N   N1        1.0  0.12766904802067103  0.504129025441017  0.8551660357541023  1.0000
  N   N2        1.0  0.8723409413332489  0.4958588073475454  0.1448311404249125  1.0000
  N   N3        1.0  0.03469326989714722  0.6504656164581062  0.8728447771865289  1.0000
  N   N4        1.0  0.965325402386057  0.3495266273886201  0.1271535352781186  1.0000
  N   N5        1.0  0.31620515197761273  0.07867903292716245  0.8942145229979133  1.0000
  N   N6        1.0  0.6837957437866607  0.9213380019356517  0.1057827783855245  1.0000
  N   N7        1.0  0.4252251121398701  0.10784931453842718  0.8153083844692902  1.0000
  N   N8        1.0  0.5747780839708484  0.8921604869692812  0.18468669284103356  1.0000
  N   N9        1.0  0.9133628451988755  0.16918318974328625  0.7387761323813322  1.0000
  N   N10       1.0  0.08662949876789143  0.8308241519025257  0.26122650638949096  1.0000
  O   O1        1.0  0.925120315835791  0.11722181453807674  0.844208600013033  1.0000
  O   O2        1.0  0.0748812587812183  0.8827800092579846  0.1557914459931098  1.0000
  O   O3        1.0  0.8844857804174636  0.08190324216101164  0.656602832464273  1.0000
  O   O4        1.0  0.11550852490299235  0.9181053442233064  0.3433987761556665  1.0000
  O   O5        1.0  0.9301096922744208  0.30455572325960373  0.7211706640207183  1.0000
  O   O6        1.0  0.06987418782424738  0.6954547251175923  0.27883382615709  1.0000
