data_image0
_chemical_formula_structural       Al4H20C44Br6O20F2
_chemical_formula_sum              "Al4 H20 C44 Br6 O20 F2"
_cell_length_a       6.677972694144233
_cell_length_b       16.42047597268071
_cell_length_c       17.075795723690884
_cell_angle_alpha    79.0961138468556
_cell_angle_beta     89.9986369327453
_cell_angle_gamma    89.9997512097014

_space_group_name_H-M_alt    "P 1"
_space_group_IT_number       1

loop_
  _space_group_symop_operation_xyz
  'x, y, z'

loop_
  _atom_site_type_symbol
  _atom_site_label
  _atom_site_symmetry_multiplicity
  _atom_site_fract_x
  _atom_site_fract_y
  _atom_site_fract_z
  _atom_site_occupancy
  Al  Al1       1.0  0.08758224563063521  0.502398721693453  0.49894178469799744  1.0000
  Al  Al2       1.0  0.587579796985132  0.49760095178803726  0.5010643214616977  1.0000
  Al  Al3       1.0  0.6337237155767426  4.325179897080002e-05  0.0008100097302090998  1.0000
  Al  Al4       1.0  0.1337178298023076  0.9999598345969715  0.9991954221717165  1.0000
  H   H1        1.0  0.5711617311740441  0.25859563579700756  0.6546346675035791  1.0000
  H   H2        1.0  0.0712059278673252  0.7413843663110385  0.3453751594667834  1.0000
  H   H3        1.0  0.591849870390547  0.1401271659894263  0.7696228016591178  1.0000
  H   H4        1.0  0.09185218963340702  0.8598535149782052  0.23038401733698777  1.0000
  H   H5        1.0  0.35759368748141185  0.21112843653520488  0.8043335314200062  1.0000
  H   H6        1.0  0.8576035089379488  0.78887376172311  0.1956442317070781  1.0000
  H   H7        1.0  0.33504629813420916  0.341937337840072  0.6989618136770018  1.0000
  H   H8        1.0  0.8350578720322871  0.6580684231773616  0.3010094020159926  1.0000
  H   H9        1.0  0.2134124909972641  0.3924355194580612  0.7697960898510201  1.0000
  H   H10       1.0  0.7134741523474659  0.607562776283757  0.23018544918804906  1.0000
  H   H11       1.0  0.5597700872278821  0.42119428412000554  0.29103987096769385  1.0000
  H   H12       1.0  0.05972086777236291  0.578823644007457  0.7089655560248856  1.0000
  H   H13       1.0  0.21116390294508136  0.17409677040775046  0.30622677762396217  1.0000
  H   H14       1.0  0.7111120588481512  0.825912618159073  0.6937636274625091  1.0000
  H   H15       1.0  0.1745430402129244  0.0899409905751583  0.2011387966655676  1.0000
  H   H16       1.0  0.6745430444948042  0.9100651935193865  0.7988546522174431  1.0000
  H   H17       1.0  0.3306153021900046  0.40357776052449873  0.47216273948702536  1.0000
  H   H18       1.0  0.830608925293511  0.5964209949581515  0.5278484352457936  1.0000
  H   H19       1.0  0.3818041183502601  0.1102156349216301  0.9821339730265564  1.0000
  H   H20       1.0  0.8818059735693425  0.8897830260561361  0.017859865706128596  1.0000
  C   C1        1.0  0.3395141218862321  0.5832604502866231  0.6028077493157155  1.0000
  C   C2        1.0  0.839544859815959  0.4167465338976015  0.39719561800590947  1.0000
  C   C3        1.0  0.34269604568555684  0.6178560122405939  0.39072575607527676  1.0000
  C   C4        1.0  0.8426268137216583  0.38213459561536206  0.6092741390770511  1.0000
  C   C5        1.0  0.0203947694170665  0.2994651857769099  0.7284261243683973  1.0000
  C   C6        1.0  0.5204300978047199  0.7005125215878395  0.2715623363485308  1.0000
  C   C7        1.0  0.8553140709379433  0.31127694372765546  0.6775192318725657  1.0000
  C   C8        1.0  0.355330845010549  0.688706869093778  0.3224783089539329  1.0000
  C   C9        1.0  0.701395193108766  0.25177091240423277  0.6938549627138002  1.0000
  C   C10       1.0  0.20141228519836565  0.7482132563641385  0.3061493167946026  1.0000
  C   C11       1.0  0.7127393431881688  0.18543137358904002  0.7581962402533903  1.0000
  C   C12       1.0  0.2127501689998894  0.8145457231153441  0.24180390138965885  1.0000
  C   C13       1.0  0.8788797788173569  0.17420476672148766  0.8098707068756212  1.0000
  C   C14       1.0  0.3788872232860498  0.8257895503774291  0.190110654828807  1.0000
  C   C15       1.0  0.03218374546021611  0.23213379849173074  0.7918654315462631  1.0000
  C   C16       1.0  0.5322006673697786  0.7678584340426012  0.20811100812217376  1.0000
  C   C17       1.0  0.24060138128302103  0.25481721019826864  0.8136651497337937  1.0000
  C   C18       1.0  0.7406011477732549  0.7451827493476199  0.18631158007358548  1.0000
  C   C19       1.0  0.22182665067141735  0.33467131838704495  0.7464127924333396  1.0000
  C   C20       1.0  0.7218824632518448  0.6653152976254544  0.253575959353462  1.0000
  C   C21       1.0  0.832453457836742  0.3608225071069313  0.337320585475858  1.0000
  C   C22       1.0  0.3324081012221427  0.6391887067755916  0.6626827632903557  1.0000
  C   C23       1.0  0.8962632740303675  0.1461996774471714  0.1563742973756845  1.0000
  C   C24       1.0  0.3962657729407368  0.8537850438689815  0.8436452263481442  1.0000
  C   C25       1.0  0.083107731967246  0.18340414895853738  0.2661905220798602  1.0000
  C   C26       1.0  0.58309350806433  0.8165967732715769  0.7338024772654207  1.0000
  C   C27       1.0  0.0625313363090996  0.1360999587597362  0.2085692620974697  1.0000
  C   C28       1.0  0.562530172416686  0.8638976627673285  0.791430931541136  1.0000
  C   C29       1.0  0.7563430395073711  0.20662434450886016  0.16354008423133587  1.0000
  C   C30       1.0  0.2563480846320658  0.7933683689872452  0.836494450849976  1.0000
  C   C31       1.0  0.773237092157494  0.26016335005509456  0.21988339930656758  1.0000
  C   C32       1.0  0.2732277559736858  0.7398395183297523  0.7801302019073545  1.0000
  C   C33       1.0  0.943449060992741  0.24662323065231812  0.2736057240457654  1.0000
  C   C34       1.0  0.4434274818968689  0.753379143727713  0.7264023106897711  1.0000
  C   C35       1.0  0.9684608079932034  0.29846258940484915  0.33134308547001007  1.0000
  C   C36       1.0  0.46843540664601596  0.7015483277637384  0.6686559287890644  1.0000
  C   C37       1.0  0.666498740471134  0.3727652295316091  0.2847778126149692  1.0000
  C   C38       1.0  0.16644921237588053  0.6272455353428014  0.7152233600676041  1.0000
  C   C39       1.0  0.637541047816093  0.3255504010002568  0.2272983416794148  1.0000
  C   C40       1.0  0.1375031038967762  0.6744547351325636  0.7727124331803238  1.0000
  C   C41       1.0  0.3830167041622019  0.8936400706247979  0.11889656852153509  1.0000
  C   C42       1.0  0.8830192733374888  0.10635007682171958  0.8811068539741383  1.0000
  C   C43       1.0  0.38444868298214624  0.9069225184602626  0.9057272401864864  1.0000
  C   C44       1.0  0.8844159966579214  0.0930707019082107  0.0942856911379621  1.0000
  Br  Br1       1.0  0.40884756787541937  0.35534081389222644  0.1612682561459735  1.0000
  Br  Br2       1.0  0.9088028752346773  0.6446778789722528  0.8387426941081345  1.0000
  Br  Br3       1.0  0.29008393403191235  0.27227508739039047  0.9230672845509602  1.0000
  Br  Br4       1.0  0.7900962383822261  0.7277269704647223  0.0769093710119222  1.0000
  Br  Br5       1.0  0.18852576380024294  0.2754390841082354  0.4037470886199941  1.0000
  Br  Br6       1.0  0.6884924503223291  0.7245732034196732  0.596249877674289  1.0000
  O   O1        1.0  0.5099555939841025  0.5872996347382509  0.4174146745442471  1.0000
  O   O2        1.0  0.0099078232202388  0.41267611022109907  0.5825517726954105  1.0000
  O   O3        1.0  0.16939862312238324  0.5642097582747566  0.5778479070677776  1.0000
  O   O4        1.0  0.6694553127932468  0.43575919867783586  0.4221874834399983  1.0000
  O   O5        1.0  0.1692667020019485  0.5943439482454805  0.4171091771077471  1.0000
  O   O6        1.0  0.6692158624242524  0.4056763404770933  0.5829252870913775  1.0000
  O   O7        1.0  0.0076812255502716  0.4417878686549769  0.4177477831029108  1.0000
  O   O8        1.0  0.507635899790408  0.5582582557052121  0.5822200001999533  1.0000
  O   O9        1.0  0.33552410765392443  0.4504906354269166  0.4993256745773492  1.0000
  O   O10       1.0  0.8355234605675292  0.549510769130272  0.5006813075152365  1.0000
  O   O11       1.0  0.2133859016973361  0.9270912529561527  0.928291535184364  1.0000
  O   O12       1.0  0.7133779479461141  0.07290629870972512  0.0717227693813243  1.0000
  O   O13       1.0  0.5542837625201217  0.9179173730857356  0.0913830364499617  1.0000
  O   O14       1.0  0.054305681132426294  0.0820778078957361  0.9086201612668602  1.0000
  O   O15       1.0  0.5532494019274878  0.9279789919221741  0.9299641410932296  1.0000
  O   O16       1.0  0.05323760696078492  0.07201916207388591  0.07004261263870862  1.0000
  O   O17       1.0  0.7136974369567923  0.0799738651371342  0.9091956108887728  1.0000
  O   O18       1.0  0.21371032103861864  0.9200222689633363  0.09081334158518928  1.0000
  O   O19       1.0  0.38372329944095174  0.04984826516759711  0.9930970522736047  1.0000
  O   O20       1.0  0.8837262802414044  0.9501508491070322  0.006910481091971102  1.0000
  F   F1        1.0  0.5991004750403023  0.21709465753524873  0.11284615914242117  1.0000
  F   F2        1.0  0.09915989365339331  0.7828837165972614  0.8871922351511756  1.0000
