data_image0
_chemical_formula_structural       Cd2H12C12N16O8
_chemical_formula_sum              "Cd2 H12 C12 N16 O8"
_cell_length_a       4.954945836676033
_cell_length_b       7.9954149935464
_cell_length_c       13.82530757700274
_cell_angle_alpha    89.99994434467396
_cell_angle_beta     89.99996955033659
_cell_angle_gamma    104.51147493330768

_space_group_name_H-M_alt    "P 1"
_space_group_IT_number       1

loop_
  _space_group_symop_operation_xyz
  'x, y, z'

loop_
  _atom_site_type_symbol
  _atom_site_label
  _atom_site_symmetry_multiplicity
  _atom_site_fract_x
  _atom_site_fract_y
  _atom_site_fract_z
  _atom_site_occupancy
  Cd  Cd1       1.0  2.112086242803117e-06  0.49999938903336255  0.5000003088900229  1.0000
  Cd  Cd2       1.0  0.49999883319822663  0.999999146729891  3.949282714e-07  1.0000
  H   H1        1.0  0.27403755427442184  0.3173399383230588  0.3056162319659421  1.0000
  H   H2        1.0  0.22596388507933804  0.18265946433744767  0.8056167236435812  1.0000
  H   H3        1.0  0.7259612071906575  0.6826614096360116  0.6943828440037194  1.0000
  H   H4        1.0  0.7740378618926088  0.8173392966440288  0.19438307563773796  1.0000
  H   H5        1.0  0.4607278397292163  0.37609433142073795  0.12166224326771409  1.0000
  H   H6        1.0  0.0392740241592122  0.12390544624178546  0.6216620801704736  1.0000
  H   H7        1.0  0.5392703969342066  0.6239057246057982  0.8783375560135764  1.0000
  H   H8        1.0  0.9607282476135528  0.8760946066714865  0.3783377191104335  1.0000
  H   H9        1.0  0.32296571245279904  0.527948155971643  0.0558951416580413  1.0000
  H   H10       1.0  0.17703510383496024  0.9720502658456167  0.5558962034456485  1.0000
  H   H11       1.0  0.6770325242114553  0.47205190005563213  0.9441039343120393  1.0000
  H   H12       1.0  0.8229646255814772  0.027948496691756492  0.44410431914707255  1.0000
  C   C1        1.0  0.14236007990279387  0.3966514618456571  0.2787553370070768  1.0000
  C   C2        1.0  0.3576317768192467  0.10334412600279562  0.7787565714694152  1.0000
  C   C3        1.0  0.8576330720513142  0.6033460134320234  0.7212430156529948  1.0000
  C   C4        1.0  0.642366459844176  0.8966559300237404  0.22124322781187533  1.0000
  C   C5        1.0  0.2689284546128904  0.4110139455752986  0.1009032198932616  1.0000
  C   C6        1.0  0.23107293238128795  0.0889845824725057  0.6009044865150556  1.0000
  C   C7        1.0  0.7310697820513641  0.5889861104519766  0.8990958560768121  1.0000
  C   C8        1.0  0.7689288145898205  0.9110141785082391  0.3990960360774806  1.0000
  C   C9        1.0  0.0811164376937512  0.2642667528857102  0.04111220413734879  1.0000
  C   C10       1.0  0.41887955942633687  0.2357331936529903  0.5411119059719026  1.0000
  C   C11       1.0  0.9188792566141757  0.7357320127656664  0.9588875951445457  1.0000
  C   C12       1.0  0.5811166596832466  0.7642668639309135  0.45888716999836987  1.0000
  N   N1        1.0  0.1322180012099565  0.45232419887139486  0.18740762588088697  1.0000
  N   N2        1.0  0.36778371094954576  0.047675444765204085  0.6874074430525423  1.0000
  N   N3        1.0  0.8677802354534663  0.5476758571551414  0.8125921734004036  1.0000
  N   N4        1.0  0.6322185608232191  0.9523246081480677  0.3125923562283645  1.0000
  N   N5        1.0  0.9463052003158552  0.5507136446627001  0.18338518710497445  1.0000
  N   N6        1.0  0.5536953869009481  0.9492857905474139  0.6833862851577591  1.0000
  N   N7        1.0  0.05369356114839264  0.4492877032956315  0.816614612175904  1.0000
  N   N8        1.0  0.44630636007016733  0.05071297043332378  0.3166142374347771  1.0000
  N   N9        1.0  0.8477731735277629  0.554295687221085  0.2703409462493624  1.0000
  N   N10       1.0  0.6522277378110602  0.9457048626562639  0.7703420275553157  1.0000
  N   N11       1.0  0.15222760549114875  0.4457056591806179  0.729658853031324  1.0000
  N   N12       1.0  0.3477725164053638  0.05429519181216588  0.22965921834821046  1.0000
  N   N13       1.0  0.9653908822070961  0.45916255994917765  0.3310571516463624  1.0000
  N   N14       1.0  0.5346105635873004  0.04083806413744639  0.8310577593972255  1.0000
  N   N15       1.0  0.034609372011829  0.5408374945214688  0.6689419243235193  1.0000
  N   N16       1.0  0.46539021543078024  0.9591632822635178  0.16894276319467139  1.0000
  O   O1        1.0  0.20163465017332532  0.185849448917331  0.9828055497141931  1.0000
  O   O2        1.0  0.2983683978131851  0.3141495909756529  0.48280577850745476  1.0000
  O   O3        1.0  0.7983615689345952  0.8141506086651017  0.017194972878506597  1.0000
  O   O4        1.0  0.7016353667134255  0.685849168449195  0.5171940207736725  1.0000
  O   O5        1.0  0.82059475754717  0.24033075275394108  0.05335345944566679  1.0000
  O   O6        1.0  0.6794073291410428  0.2596704374501115  0.5533524701169341  1.0000
  O   O7        1.0  0.1794019863615688  0.7596705967602871  0.9466470631466207  1.0000
  O   O8        1.0  0.32059748498721774  0.7403309058383271  0.4466473291633689  1.0000
