data_image0
_chemical_formula_structural       Cu8H32C24I8N8
_chemical_formula_sum              "Cu8 H32 C24 I8 N8"
_cell_length_a       4.206520046370525
_cell_length_b       13.966731878909362
_cell_length_c       16.87413275150562
_cell_angle_alpha    90.00039450281011
_cell_angle_beta     89.99918205522737
_cell_angle_gamma    93.03746603142903

_space_group_name_H-M_alt    "P 1"
_space_group_IT_number       1

loop_
  _space_group_symop_operation_xyz
  'x, y, z'

loop_
  _atom_site_type_symbol
  _atom_site_label
  _atom_site_symmetry_multiplicity
  _atom_site_fract_x
  _atom_site_fract_y
  _atom_site_fract_z
  _atom_site_occupancy
  Cu  Cu1       1.0  0.573754144135286  0.24944948215415516  0.7077391845467107  1.0000
  Cu  Cu2       1.0  0.07375676882659123  0.7494493400458638  0.7922566819469595  1.0000
  Cu  Cu3       1.0  0.4262450947419508  0.7505506218886637  0.2922593983154514  1.0000
  Cu  Cu4       1.0  0.9262429169678726  0.2505536319306572  0.20774427141491006  1.0000
  Cu  Cu5       1.0  0.916275636841462  0.16461824479789303  0.6041768583138777  1.0000
  Cu  Cu6       1.0  0.4162585359912613  0.6646209821993165  0.89582559334923  1.0000
  Cu  Cu7       1.0  0.08373311391536478  0.8353818766210211  0.39582350240053904  1.0000
  Cu  Cu8       1.0  0.5837408146649993  0.3353798388204511  0.10417180426870942  1.0000
  H   H1        1.0  0.8502383840936999  0.19661277793151302  0.0004814505820647  1.0000
  H   H2        1.0  0.3502308685345667  0.6966234667552483  0.49951802899521897  1.0000
  H   H3        1.0  0.14975327380329156  0.8033844451654915  0.9995189101544004  1.0000
  H   H4        1.0  0.6497610128376151  0.303375190306447  0.5004829243680433  1.0000
  H   H5        1.0  0.3072612327127402  0.431256694939421  0.9573524215262523  1.0000
  H   H6        1.0  0.8072566935387329  0.9312608863514668  0.5426442593989834  1.0000
  H   H7        1.0  0.6927282707765557  0.5687419577669177  0.04264497610294881  1.0000
  H   H8        1.0  0.192752057184947  0.0687392350717602  0.457357286561532  1.0000
  H   H9        1.0  0.2965936113424306  0.39111005823708916  0.8125466600543945  1.0000
  H   H10       1.0  0.796608837989524  0.8911110549648669  0.6874450852025691  1.0000
  H   H11       1.0  0.7033980466871483  0.6088871648426419  0.18744895969767586  1.0000
  H   H12       1.0  0.2034073819519335  0.10889123042506552  0.3125552755048134  1.0000
  H   H13       1.0  0.046738990817445404  0.15360119573723102  0.7997564262472994  1.0000
  H   H14       1.0  0.5467152306224676  0.6536007822471819  0.7002431294702163  1.0000
  H   H15       1.0  0.9532553802829539  0.8463981826481375  0.20024452711361826  1.0000
  H   H16       1.0  0.4532770977166721  0.3464007427417498  0.2997584165236092  1.0000
  H   H17       1.0  0.6924035312443024  0.085530292507876  0.8140734446130864  1.0000
  H   H18       1.0  0.19237246022659346  0.5855343206509572  0.6859216421009722  1.0000
  H   H19       1.0  0.30759990483502975  0.9144662353177325  0.18592632347733234  1.0000
  H   H20       1.0  0.8076221343987129  0.4144664916926287  0.3140781260176055  1.0000
  H   H21       1.0  0.14663351225391347  0.0086501393353018  0.8792076153007501  1.0000
  H   H22       1.0  0.6466213299647663  0.5086491599723786  0.620795485621173  1.0000
  H   H23       1.0  0.853377839977007  0.991351420388547  0.12079274541319762  1.0000
  H   H24       1.0  0.3533826647776834  0.49135095276820095  0.3792066529708365  1.0000
  H   H25       1.0  0.85851992551396  0.037658826079713506  0.9503383834614495  1.0000
  H   H26       1.0  0.3585124516924126  0.5376575898655247  0.5496605750902219  1.0000
  H   H27       1.0  0.14148644724396317  0.9623412909989497  0.04966256988024041  1.0000
  H   H28       1.0  0.6414891651008503  0.462342518528331  0.45034037825991663  1.0000
  H   H29       1.0  0.21793354012684318  0.1094540807291722  0.9419724875003868  1.0000
  H   H30       1.0  0.7179342688294953  0.6094519444129959  0.5580273878186048  1.0000
  H   H31       1.0  0.7820685236831011  0.8905488955854326  0.05802728061115661  1.0000
  H   H32       1.0  0.2820722156411577  0.3905488896512566  0.4419747507710597  1.0000
  C   C1        1.0  0.721544860828196  0.21569959136965616  0.8774660647854304  1.0000
  C   C2        1.0  0.22153896055813496  0.715704630707229  0.6225438953292584  1.0000
  C   C3        1.0  0.2784425997838298  0.7843012079553516  0.12253607383802033  1.0000
  C   C4        1.0  0.7784625444395203  0.2842947607118377  0.3774588358881418  1.0000
  C   C5        1.0  0.7281824030830037  0.23998280132548905  0.957626094796723  1.0000
  C   C6        1.0  0.2282133849813661  0.7399815814406026  0.5423596847600081  1.0000
  C   C7        1.0  0.2718046107112286  0.7600151300528639  0.042370117588717414  1.0000
  C   C8        1.0  0.7717903863521798  0.2600170973266458  0.45763949071299964  1.0000
  C   C9        1.0  0.42879042342471513  0.36983641107227067  0.9347055299394642  1.0000
  C   C10       1.0  0.9288148612242608  0.8698365220075671  0.5652761391839861  1.0000
  C   C11       1.0  0.5712011228755641  0.6301600950240313  0.06528949718767763  1.0000
  C   C12       1.0  0.0711872026354072  0.1301664543005572  0.43472185105841293  1.0000
  C   C13       1.0  0.42254093080526905  0.34735660447211103  0.8545620979075041  1.0000
  C   C14       1.0  0.922517491353659  0.8473686886557061  0.6454461313701644  1.0000
  C   C15       1.0  0.577450950550336  0.6526420525917516  0.14543944807881104  1.0000
  C   C16       1.0  0.0774867268805579  0.15263285804741142  0.35455600722560393  1.0000
  C   C17       1.0  0.8759578123454049  0.1295273646513238  0.8462597882230372  1.0000
  C   C18       1.0  0.3759519862331189  0.6295290507528436  0.653735492208476  1.0000
  C   C19       1.0  0.12403871327870063  0.8704705841096044  0.15373997988380955  1.0000
  C   C20       1.0  0.6240518968297408  0.3704703449978339  0.3462642758894533  1.0000
  C   C21       1.0  0.0337685138128734  0.0685545146870439  0.9080266561201997  1.0000
  C   C22       1.0  0.5337632582401355  0.5685569189223472  0.5919748234469895  1.0000
  C   C23       1.0  0.9662333264555795  0.9314470276715029  0.09197488985674343  1.0000
  C   C24       1.0  0.46624096001065146  0.4314446277786034  0.4080267225257259  1.0000
  I   I1        1.0  0.4068055481462877  0.0714352850980688  0.6551614492007332  1.0000
  I   I2        1.0  0.906797368072688  0.5714352516425762  0.8448422740748002  1.0000
  I   I3        1.0  0.5931962921055957  0.9285662572626378  0.34484068939925555  1.0000
  I   I4        1.0  0.093199604551522  0.42856556504126087  0.15515690141650407  1.0000
  I   I5        1.0  0.0763685242146082  0.3446128040841216  0.651502789228772  1.0000
  I   I6        1.0  0.5763671618684326  0.8446120933106942  0.8484948046441546  1.0000
  I   I7        1.0  0.9236310498505489  0.6553894509089702  0.3484975715081689  1.0000
  I   I8        1.0  0.42363512541670195  0.15539231696860162  0.1515055560942002  1.0000
  N   N1        1.0  0.5651138753453253  0.2707876478048519  0.825137295140742  1.0000
  N   N2        1.0  0.065136664098624  0.7707823744480891  0.674856947856384  1.0000
  N   N3        1.0  0.43488469307318667  0.7292081543481997  0.17486069508709795  1.0000
  N   N4        1.0  0.9348719748957421  0.229217029991716  0.32514400547920996  1.0000
  N   N5        1.0  0.5811704060060164  0.3158003539492569  0.9870574221456894  1.0000
  N   N6        1.0  0.0811441114906586  0.8158174482903674  0.5129459139913025  1.0000
  N   N7        1.0  0.4188193209418998  0.6841997327239329  0.012941160733355203  1.0000
  N   N8        1.0  0.9188599950142375  0.184183381429321  0.48705563197953705  1.0000
