data_image0
_chemical_formula_structural       Cd4H24C24N16
_chemical_formula_sum              "Cd4 H24 C24 N16"
_cell_length_a       8.271512565954595
_cell_length_b       8.619072441294186
_cell_length_c       13.824836671020508
_cell_angle_alpha    88.95269499546757
_cell_angle_beta     77.8140016179259
_cell_angle_gamma    63.562881892321954

_space_group_name_H-M_alt    "P 1"
_space_group_IT_number       1

loop_
  _space_group_symop_operation_xyz
  'x, y, z'

loop_
  _atom_site_type_symbol
  _atom_site_label
  _atom_site_symmetry_multiplicity
  _atom_site_fract_x
  _atom_site_fract_y
  _atom_site_fract_z
  _atom_site_occupancy
  Cd  Cd1       1.0  0.25652340037657945  0.1194206061908218  0.3006305770923988  1.0000
  Cd  Cd2       1.0  0.7434800268893582  0.8805722377272646  0.6993649650560558  1.0000
  Cd  Cd3       1.0  0.4999997896145985  0.4999990086396123  0.5000005155616594  1.0000
  Cd  Cd4       1.0  0.9999990370510544  1.3819099535981538e-06  0.9999996100699705  1.0000
  H   H1        1.0  0.9175681555898834  0.05217495921264259  0.265593945599683  1.0000
  H   H2        1.0  0.08243330762935132  0.9478243912231363  0.7344032317173089  1.0000
  H   H3        1.0  0.8158963297692665  0.7282925241571759  0.08796531723685778  1.0000
  H   H4        1.0  0.18410013421984667  0.27170939105887726  0.9120346136554148  1.0000
  H   H5        1.0  0.7580338183140041  0.6479146305245892  0.2861625885961703  1.0000
  H   H6        1.0  0.2419675905242186  0.3520847059486769  0.7138382122423296  1.0000
  H   H7        1.0  0.8485943845529108  0.9619351573154445  0.43454332892284964  1.0000
  H   H8        1.0  0.15140825161209648  0.038066807286199406  0.5654551343851112  1.0000
  H   H9        1.0  0.9174306031714181  0.733253143193103  0.43315755479574153  1.0000
  H   H10       1.0  0.08257450838966916  0.26674884283828254  0.5668398866559059  1.0000
  H   H11       1.0  0.6778216182330679  0.8846637947632205  0.4508906668370047  1.0000
  H   H12       1.0  0.3221847305211084  0.11533558177701761  0.5491088149931826  1.0000
  H   H13       1.0  0.5317190866083336  0.21773612812354057  0.059217366141602716  1.0000
  H   H14       1.0  0.46827725875245096  0.7822709967870055  0.9407854338846138  1.0000
  H   H15       1.0  0.8953048123139027  0.4232884129975503  0.09268876418570218  1.0000
  H   H16       1.0  0.10469278111618512  0.5767161052143521  0.907315351514747  1.0000
  H   H17       1.0  0.5324889110429538  0.6603455148658951  0.18552832373910638  1.0000
  H   H18       1.0  0.4675111735925697  0.3396564087584934  0.8144762343552687  1.0000
  H   H19       1.0  0.2272758198804468  0.4459488587753313  0.14982653492644002  1.0000
  H   H20       1.0  0.7727243300122809  0.5540530816040743  0.850173674942127  1.0000
  H   H21       1.0  0.20749424532564106  0.6595069715882858  0.13746930320232312  1.0000
  H   H22       1.0  0.7925040373962986  0.34049626002931893  0.8625311221094311  1.0000
  H   H23       1.0  0.24373694256862405  0.5595502844506298  0.25129282997254176  1.0000
  H   H24       1.0  0.7562539090319259  0.4404555016875164  0.7487084719536059  1.0000
  C   C1        1.0  0.4128763645503213  0.24282458868646728  0.3478671294473373  1.0000
  C   C2        1.0  0.5871207501589948  0.75717340995552  0.6521341988279802  1.0000
  C   C3        1.0  0.3374008788053543  0.8647295336687649  0.36454054926094415  1.0000
  C   C4        1.0  0.6625931957874016  0.13526714204555654  0.6354597084665912  1.0000
  C   C5        1.0  0.9616075230418417  0.30167004232893646  0.3718797351497544  1.0000
  C   C6        1.0  0.03839220845416243  0.6983280140453232  0.6281111501133338  1.0000
  C   C7        1.0  0.25075302939531247  0.08631842986518017  0.14348859961152985  1.0000
  C   C8        1.0  0.7492696392321391  0.9136601843590809  0.8565090694636555  1.0000
  C   C9        1.0  0.8859475765273074  0.9515663987882517  0.24184998026743193  1.0000
  C   C10       1.0  0.11405319246691185  0.0484368570515912  0.7581486984837157  1.0000
  C   C11       1.0  0.8307604949439734  0.7815877283973192  0.15409312592756663  1.0000
  C   C12       1.0  0.16923720130508  0.21841419613735266  0.8459066563887064  1.0000
  C   C13       1.0  0.799893732762733  0.7417332564612948  0.2510028570398078  1.0000
  C   C14       1.0  0.20010580397154587  0.25826999005993667  0.7489959702873463  1.0000
  C   C15       1.0  0.8190806091344175  0.8576694134194014  0.412472157619341  1.0000
  C   C16       1.0  0.18091891672366248  0.14233383030932595  0.5875273944121135  1.0000
  C   C17       1.0  0.5840604943174412  0.3049939725554509  0.07920110395996018  1.0000
  C   C18       1.0  0.41593524281806526  0.6950118396871544  0.9208025024793828  1.0000
  C   C19       1.0  0.7655989341751448  0.41736716383305617  0.09780668616553369  1.0000
  C   C20       1.0  0.2343980243440952  0.5826386549356712  0.90219749640211  1.0000
  C   C21       1.0  0.5883208172513575  0.5350665720347649  0.14429552136162735  1.0000
  C   C22       1.0  0.41167864334951787  0.46493665493893843  0.855708378895635  1.0000
  C   C23       1.0  0.27606245329292994  0.5370790073341992  0.17018824720174316  1.0000
  C   C24       1.0  0.72393581855281  0.4629242214909013  0.829812902814311  1.0000
  N   N1        1.0  0.4663368090057102  0.3212217741524769  0.38917260620657873  1.0000
  N   N2        1.0  0.5336584444758613  0.6787801373299728  0.6108260238530934  1.0000
  N   N3        1.0  0.3900556909955241  0.7335372839460703  0.4016446586119501  1.0000
  N   N4        1.0  0.6099365648644051  0.2664580753667067  0.5983551046961042  1.0000
  N   N5        1.0  0.8087103483980441  0.3982266630140713  0.4100714338551158  1.0000
  N   N6        1.0  0.19128935540251743  0.601768766172917  0.5899238144754123  1.0000
  N   N7        1.0  0.2114784993377796  0.0668771507024957  0.06959870631561672  1.0000
  N   N8        1.0  0.7885269354796733  0.933109197867914  0.9303923018470928  1.0000
  N   N9        1.0  0.8354632798842232  0.8509262697752575  0.3055567620121948  1.0000
  N   N10       1.0  0.16453625685005585  0.14907697674596682  0.6944420653149593  1.0000
  N   N11       1.0  0.885578788716721  0.9116111001772254  0.1493589964767565  1.0000
  N   N12       1.0  0.1144189075323254  0.0883908243574467  0.8506407858395164  1.0000
  N   N13       1.0  0.4754840357229781  0.4614387403872158  0.13183188718588923  1.0000
  N   N14       1.0  0.5245166680140301  0.5385644986976105  0.8681711397910663  1.0000
  N   N15       1.0  0.7608046507070865  0.2748656555576332  0.057223572102003635  1.0000
  N   N16       1.0  0.2391947990175894  0.725137568623573  0.9427810528595588  1.0000
