data_image0
_chemical_formula_structural       Al2H36C54O12
_chemical_formula_sum              "Al2 H36 C54 O12"
_cell_length_a       3.9553743268177426
_cell_length_b       28.999141658400834
_cell_length_c       29.00018424254741
_cell_angle_alpha    120.00024151303177
_cell_angle_beta     90.00019301536955
_cell_angle_gamma    90.0062805709738

_space_group_name_H-M_alt    "P 1"
_space_group_IT_number       1

loop_
  _space_group_symop_operation_xyz
  'x, y, z'

loop_
  _atom_site_type_symbol
  _atom_site_label
  _atom_site_symmetry_multiplicity
  _atom_site_fract_x
  _atom_site_fract_y
  _atom_site_fract_z
  _atom_site_occupancy
  Al  Al1       1.0  0.019636628829175603  0.4999982817945607  0.500000196669447  1.0000
  Al  Al2       1.0  0.01933532390061291  0.1666709576113235  0.8333402097222377  1.0000
  H   H1        1.0  0.43125983883485475  0.1676166142427463  0.688431210956125  1.0000
  H   H2        1.0  0.42823412603502226  0.21558945978382144  0.6370228674808659  1.0000
  H   H3        1.0  0.5102363064829875  0.36457653824581376  0.7841612969132256  1.0000
  H   H4        1.0  0.5102685388194886  0.30208828617772804  0.5491784697456907  1.0000
  H   H5        1.0  0.4317782445439491  0.4990528457127752  0.6448999426232902  1.0000
  H   H6        1.0  0.4286831724245772  0.4510845601596785  0.6963132539967488  1.0000
  H   H7        1.0  0.4310438567481257  0.02080486773889588  0.8323785331472776  1.0000
  H   H8        1.0  0.4280417703460487  0.9214262446421628  0.7844046506526111  1.0000
  H   H9        1.0  0.5103003868093838  0.9195894993620611  0.6354264270106498  1.0000
  H   H10       1.0  0.5101685343595079  0.7470840775077078  0.6979118847126813  1.0000
  H   H11       1.0  0.4320068592610085  0.645842160262866  0.5009433332528773  1.0000
  H   H12       1.0  0.42883706481941897  0.7452242929131997  0.548910530811213  1.0000
  H   H13       1.0  0.4311504512046654  0.3115754099932815  0.979200208068157  1.0000
  H   H14       1.0  0.4281640165904009  0.3629753437581797  0.0785789721705044  1.0000
  H   H15       1.0  0.5104260368053842  0.21583446653998103  0.08041582392774421  1.0000
  H   H16       1.0  0.5101110313824151  0.450830244695382  0.25291728830003984  1.0000
  H   H17       1.0  0.4320494322900645  0.35509298822917407  0.3541561593668305  1.0000
  H   H18       1.0  0.4290029185306424  0.3036818612710306  0.2547748037660753  1.0000
  H   H19       1.0  0.8078630729512782  0.33272221776185523  0.8651412369295102  1.0000
  H   H20       1.0  0.4184458720537024  0.3066518250632698  0.8713353482445855  1.0000
  H   H21       1.0  0.42599976800968153  0.36605465228194584  0.8673290007917203  1.0000
  H   H22       1.0  0.8078648140267575  0.3338954198107232  0.46817813426020655  1.0000
  H   H23       1.0  0.4186452331670337  0.3600111056202593  0.4619948992849103  1.0000
  H   H24       1.0  0.42577010080739797  0.30061493108024  0.466011453449191  1.0000
  H   H25       1.0  0.8079080870386834  0.032419604796310016  0.6672838593273128  1.0000
  H   H26       1.0  0.418574181200171  0.06469089450089875  0.6933566749768116  1.0000
  H   H27       1.0  0.4259843239707664  0.0012833356972876998  0.6339516859019838  1.0000
  H   H28       1.0  0.8078046538930581  0.6342801958330356  0.6661112793990115  1.0000
  H   H29       1.0  0.4185472636781071  0.601978085094757  0.6399820082025088  1.0000
  H   H30       1.0  0.4257172857241045  0.6653883171483983  0.6993804863244222  1.0000
  H   H31       1.0  0.8079274746884482  0.13486491728924233  0.9675854622335435  1.0000
  H   H32       1.0  0.4185464063694013  0.1286616760448496  0.9353151487309148  1.0000
  H   H33       1.0  0.426032835906156  0.13266836058623724  0.9987236190654444  1.0000
  H   H34       1.0  0.8076335942735471  0.5318489241470559  0.36573214686204386  1.0000
  H   H35       1.0  0.41840311699669297  0.53799874514241  0.39802174697948806  1.0000
  H   H36       1.0  0.4255373012943124  0.5339927171837218  0.3346143043282908  1.0000
  C   C1        1.0  0.5147820433291133  0.4587122182317813  0.4179640064687646  1.0000
  C   C2        1.0  0.5147599151122225  0.4592484677902036  0.541288136056842  1.0000
  C   C3        1.0  0.5148581830585075  0.5820348764516511  0.5407504217041464  1.0000
  C   C4        1.0  0.5145506702101557  0.20741140298071062  0.7920422830949292  1.0000
  C   C5        1.0  0.5144877974597364  0.08463263442551756  0.7925971898441874  1.0000
  C   C6        1.0  0.5145310766279962  0.20796597212049756  0.9153763661225014  1.0000
  C   C7        1.0  0.49435932520177067  0.2388079974949093  0.7643708010461339  1.0000
  C   C8        1.0  0.45451988862866005  0.2108540837556987  0.7088757925711278  1.0000
  C   C9        1.0  0.45114416040967603  0.23739779983455392  0.6802472756426426  1.0000
  C   C10       1.0  0.47518238327852214  0.29341834772186826  0.707328027323186  1.0000
  C   C11       1.0  0.5011089264545703  0.32116521695294153  0.7632873025499833  1.0000
  C   C12       1.0  0.5158489518355438  0.29487863508467893  0.7924845759749246  1.0000
  C   C13       1.0  0.4716378297113195  0.321322607319658  0.6789592400649482  1.0000
  C   C14       1.0  0.47171376553996697  0.3453534932822678  0.6543855708797609  1.0000
  C   C15       1.0  0.4753973508196481  0.373252515677386  0.6260111366901597  1.0000
  C   C16       1.0  0.5012484589162582  0.3455009405949526  0.5700514414044805  1.0000
  C   C17       1.0  0.5160302905016679  0.3717828298577929  0.5408498208261889  1.0000
  C   C18       1.0  0.49463143571316703  0.427853684322784  0.5689611044013816  1.0000
  C   C19       1.0  0.454877902404462  0.45581401815508127  0.6244563070702895  1.0000
  C   C20       1.0  0.4515083788940899  0.42927407246219224  0.6530878093437948  1.0000
  C   C21       1.0  0.49430450221422717  0.02556438791641826  0.7611953220780237  1.0000
  C   C22       1.0  0.45435856443852174  0.9980177879810058  0.7891435693340654  1.0000
  C   C23       1.0  0.4509962919349633  0.9428451417442716  0.7625986923949171  1.0000
  C   C24       1.0  0.47510747160264094  0.9139065434031012  0.7065802067838264  1.0000
  C   C25       1.0  0.5010923878028207  0.9421228739710231  0.6788366547366423  1.0000
  C   C26       1.0  0.5158368293759921  0.9976084068997865  0.7051265883740143  1.0000
  C   C27       1.0  0.47162106840912105  0.857632297547113  0.67867609709527  1.0000
  C   C28       1.0  0.47170723628504163  0.809027458135546  0.6546461505250251  1.0000
  C   C29       1.0  0.47541357796254163  0.752753771102732  0.6267457712116667  1.0000
  C   C30       1.0  0.5012063172434936  0.7245465436733198  0.6544999210665594  1.0000
  C   C31       1.0  0.5160267130318772  0.6690628975735607  0.6282169949453762  1.0000
  C   C32       1.0  0.49476716222182665  0.6411029453684806  0.5721454178349674  1.0000
  C   C33       1.0  0.4550589142910226  0.6686379478083211  0.5441826841186455  1.0000
  C   C34       1.0  0.45162789858861896  0.7238100928838448  0.5707230913652026  1.0000
  C   C35       1.0  0.49437288632204013  0.23563359498320588  0.9744442066013619  1.0000
  C   C36       1.0  0.45445665136649893  0.2911275930276176  0.0019886297372125445  1.0000
  C   C37       1.0  0.4511071096208141  0.3197513282224094  0.0571580431075631  1.0000
  C   C38       1.0  0.47523405252466944  0.2926701452597483  0.08609720708494707  1.0000
  C   C39       1.0  0.5012166134606204  0.2367107077628745  0.057880722944887004  1.0000
  C   C40       1.0  0.5159277128188576  0.2075177365166425  0.0023974222161769142  1.0000
  C   C41       1.0  0.4717274481586103  0.3210398265151113  0.14236742975936068  1.0000
  C   C42       1.0  0.47178530032838506  0.3456208792042475  0.19097774401517142  1.0000
  C   C43       1.0  0.4754259342670864  0.3739921273297213  0.24724792750636485  1.0000
  C   C44       1.0  0.5011527686668272  0.42995595949243187  0.27545557234611817  1.0000
  C   C45       1.0  0.5159205507288647  0.45915466441612557  0.33093857918871816  1.0000
  C   C46       1.0  0.494668442486784  0.4310400260861016  0.3588964493525637  1.0000
  C   C47       1.0  0.45504920383150704  0.3755393861185964  0.3313612853977403  1.0000
  C   C48       1.0  0.4516813008798906  0.34691033478764416  0.2761901529021955  1.0000
  C   C49       1.0  0.5422215898762488  0.32669108189812596  0.852285211360801  1.0000
  C   C50       1.0  0.5422620264214901  0.33996376312589394  0.4810472485120059  1.0000
  C   C51       1.0  0.5422653507626124  0.02559753399369669  0.6733151468903387  1.0000
  C   C52       1.0  0.5422031022002045  0.6410779644529756  0.6600359693962332  1.0000
  C   C53       1.0  0.5422959660597756  0.1477156521809633  0.9744064036584206  1.0000
  C   C54       1.0  0.5420486082932358  0.5189595945934754  0.3589249536543165  1.0000
  O   O1        1.0  0.7584641447312493  0.5594827613658139  0.5507037966305646  1.0000
  O   O2        1.0  0.7584281646564293  0.49121778947028366  0.4405176411023533  1.0000
  O   O3        1.0  0.7583817695882901  0.44929633638731303  0.5087846937346256  1.0000
  O   O4        1.0  0.28916571444737843  0.5574248573919647  0.5051235362017579  1.0000
  O   O5        1.0  0.2890961736250119  0.4948718655635957  0.5523013063336037  1.0000
  O   O6        1.0  0.28907464667859983  0.4476958702398477  0.4425700230898357  1.0000
  O   O7        1.0  0.7581763851866514  0.1754675852352109  0.8928326031279284  1.0000
  O   O8        1.0  0.7582480580061886  0.2173681338062181  0.8245374864205175  1.0000
  O   O9        1.0  0.7581580931286143  0.10718093692879198  0.7826446836630511  1.0000
  O   O10       1.0  0.2889082434561061  0.21897798485151324  0.8907576865224841  1.0000
  O   O11       1.0  0.2888727921669414  0.10924952683560477  0.828227792916664  1.0000
  O   O12       1.0  0.28890693039202386  0.17177858777468907  0.7810332655106791  1.0000
