data_image0
_chemical_formula_structural       Zn2H16C28N2O8
_chemical_formula_sum              "Zn2 H16 C28 N2 O8"
_cell_length_a       9.609579913582088
_cell_length_b       11.063343884560263
_cell_length_c       17.939184976725304
_cell_angle_alpha    90.29994877832584
_cell_angle_beta     90.01047072829142
_cell_angle_gamma    89.99789727590478

_space_group_name_H-M_alt    "P 1"
_space_group_IT_number       1

loop_
  _space_group_symop_operation_xyz
  'x, y, z'

loop_
  _atom_site_type_symbol
  _atom_site_label
  _atom_site_symmetry_multiplicity
  _atom_site_fract_x
  _atom_site_fract_y
  _atom_site_fract_z
  _atom_site_occupancy
  Zn  Zn1       1.0  0.3584468845293856  0.5002254496581598  0.4999417657369206  1.0000
  Zn  Zn2       1.0  0.6415518938006598  0.5001801160743752  0.5000557239475112  1.0000
  H   H1        1.0  0.27564745073117086  0.49274194354580186  0.1221507182435175  1.0000
  H   H2        1.0  0.27699589814574216  0.11377020902454398  0.49540570908500564  1.0000
  H   H3        1.0  0.7229513172863095  0.11394599968750184  0.504391645193337  1.0000
  H   H4        1.0  0.27705163767975444  0.8863467454919625  0.4956641337365467  1.0000
  H   H5        1.0  0.866193735253148  0.3647973088005401  0.4195837526589869  1.0000
  H   H6        1.0  0.1337998676109535  0.6353057227494573  0.5805084096497453  1.0000
  H   H7        1.0  0.8662377251330897  0.6352259965161337  0.5805473968604032  1.0000
  H   H8        1.0  0.13376004044279452  0.3648743249233844  0.4195453172813828  1.0000
  H   H9        1.0  0.7243342082003038  0.49292543503451436  0.8777627391985661  1.0000
  H   H10       1.0  0.27564341081099286  0.49293330756586323  0.8777300997719735  1.0000
  H   H11       1.0  0.7243632214533803  0.4927385634947186  0.1221738920949207  1.0000
  H   H12       1.0  0.2769066490453653  0.4963856378232875  0.261634496087332  1.0000
  H   H13       1.0  0.7230986277726359  0.4974014968468197  0.7383142277582165  1.0000
  H   H14       1.0  0.2768533070273946  0.4974039439321982  0.7382822574247213  1.0000
  H   H15       1.0  0.7231530092562933  0.4963822662179423  0.2616592177717507  1.0000
  H   H16       1.0  0.7229956049686024  0.8865215466163291  0.5046199653952215  1.0000
  C   C1        1.0  0.5000067321513199  0.7379791225148011  0.5008081424361633  1.0000
  C   C2        1.0  0.4999773097105731  0.4974397336016167  0.3532994678370328  1.0000
  C   C3        1.0  0.49998605564621096  0.12684400074810034  0.4996308271210736  1.0000
  C   C4        1.0  0.5000106563589171  0.8734469493372001  0.5004294071595935  1.0000
  C   C5        1.0  0.3734393176936806  0.4932343310851122  0.1529363008111559  1.0000
  C   C6        1.0  0.6265516397449957  0.4941441273826398  0.8469819444083413  1.0000
  C   C7        1.0  0.37341569922703133  0.4941480907707571  0.846958598773689  1.0000
  C   C8        1.0  0.6265825408646465  0.49323486020367807  0.1529501799787312  1.0000
  C   C9        1.0  0.37403375969790176  0.4950779483140548  0.23032853831073644  1.0000
  C   C10       1.0  0.6259674292234365  0.49680828812326155  0.7696149906198357  1.0000
  C   C11       1.0  0.373996992514506  0.4968050170101959  0.7695911307814354  1.0000
  C   C12       1.0  0.5000014250132451  0.2623117974141849  0.49924150100088843  1.0000
  C   C13       1.0  0.6260135609905221  0.49508029648098517  0.2303457073629716  1.0000
  C   C14       1.0  0.5000280922047153  0.49584020982803156  0.2698874370667781  1.0000
  C   C15       1.0  0.4999834126890548  0.49840433629354636  0.7300762048131302  1.0000
  C   C16       1.0  0.9275214658325978  0.42466736982699854  0.45516516743924734  1.0000
  C   C17       1.0  0.0724742159176728  0.5754537111038615  0.5449169997968824  1.0000
  C   C18       1.0  0.9275542666621419  0.5754162087724095  0.5449355039814563  1.0000
  C   C19       1.0  0.0724455782251496  0.4247030738761876  0.4551500042437056  1.0000
  C   C20       1.0  0.5000064126029429  0.49229928715917737  0.11283845708889119  1.0000
  C   C21       1.0  0.49998462233602947  0.4930299832260799  0.8870564370833378  1.0000
  C   C22       1.0  0.49999861093709796  0.4912849106644257  0.0339892090159211  1.0000
  C   C23       1.0  0.4999894031219512  0.49144473018947105  0.9658923013559361  1.0000
  C   C24       1.0  0.6259765408308411  0.9373357145384059  0.5026967259327932  1.0000
  C   C25       1.0  0.37402016970617064  0.06295973282326629  0.4973557138431346  1.0000
  C   C26       1.0  0.6259664516209682  0.0630558147785578  0.5023599387102138  1.0000
  C   C27       1.0  0.3740302618442114  0.9372378739639513  0.4977097779247686  1.0000
  C   C28       1.0  0.5000298727528332  0.5009320483529649  0.6466880828365191  1.0000
  N   N1        1.0  0.1431398814414564  0.5001066883308383  0.5000120415532263  1.0000
  N   N2        1.0  0.8568578767826411  0.500046872604912  0.5000490127863839  1.0000
  O   O1        1.0  0.38199013578115165  0.6852046360514163  0.5007797869017736  1.0000
  O   O2        1.0  0.6180149031852126  0.31508634733322777  0.4992921541057029  1.0000
  O   O3        1.0  0.38200141344272953  0.31512295841063315  0.4989988260972281  1.0000
  O   O4        1.0  0.6180108995554364  0.6851759871307904  0.5010123714291908  1.0000
  O   O5        1.0  0.38201199666421803  0.5017432434171594  0.6140452166450883  1.0000
  O   O6        1.0  0.6179909706175267  0.4980115308567432  0.3859558934383925  1.0000
  O   O7        1.0  0.3818932197716051  0.49809749816820653  0.3858544263995398  1.0000
  O   O8        1.0  0.6181149483424945  0.501692512212159  0.6141411851742831  1.0000
