data_image0
_chemical_formula_structural       Mn4H32C48N8O16
_chemical_formula_sum              "Mn4 H32 C48 N8 O16"
_cell_length_a       7.871117346102896
_cell_length_b       8.754074998544572
_cell_length_c       16.698937916002944
_cell_angle_alpha    89.99995335406216
_cell_angle_beta     90.00005788685665
_cell_angle_gamma    100.65764097250941

_space_group_name_H-M_alt    "P 1"
_space_group_IT_number       1

loop_
  _space_group_symop_operation_xyz
  'x, y, z'

loop_
  _atom_site_type_symbol
  _atom_site_label
  _atom_site_symmetry_multiplicity
  _atom_site_fract_x
  _atom_site_fract_y
  _atom_site_fract_z
  _atom_site_occupancy
  Mn  Mn1       1.0  0.5377997556456222  0.16684941218401408  0.21077816780080375  1.0000
  Mn  Mn2       1.0  0.962198622090618  0.8331503377713433  0.7107763906929776  1.0000
  Mn  Mn3       1.0  0.4622000733133049  0.8331530386589846  0.789223176715268  1.0000
  Mn  Mn4       1.0  0.037800966406237486  0.16685095069667708  0.28922375614233425  1.0000
  H   H1        1.0  0.1541369020792018  0.127490089115625  0.8246075422439672  1.0000
  H   H2        1.0  0.3458654747409113  0.8725138559174469  0.3246067655179558  1.0000
  H   H3        1.0  0.8458644375485491  0.8725135228437821  0.1753938022722181  1.0000
  H   H4        1.0  0.6541368946321029  0.1274885924080849  0.6753927824772886  1.0000
  H   H5        1.0  0.7161168851096776  0.11379879809881997  0.9801834417279524  1.0000
  H   H6        1.0  0.7838853316402422  0.8861982954490344  0.48018442604844586  1.0000
  H   H7        1.0  0.2838830117518966  0.8861978396067653  0.019817303948919097  1.0000
  H   H8        1.0  0.2161145652201952  0.11379834225728298  0.5198151219474667  1.0000
  H   H9        1.0  0.2276333327255813  0.2801003042091351  0.06980742727888868  1.0000
  H   H10       1.0  0.27236464711763386  0.7198911660523495  0.5698062075073621  1.0000
  H   H11       1.0  0.7723645046432067  0.7198986607656792  0.9301945160779395  1.0000
  H   H12       1.0  0.7276331902471894  0.28010779892501597  0.43019154396611  1.0000
  H   H13       1.0  0.46961906030102096  0.2589304613227981  0.9917864847062602  1.0000
  H   H14       1.0  0.030382189803738337  0.7410663059932999  0.49178501559732984  1.0000
  H   H15       1.0  0.5303825876914486  0.7410684998741742  0.0082154586514847  1.0000
  H   H16       1.0  0.9696194581847664  0.2589326552062303  0.5082127358770521  1.0000
  H   H17       1.0  0.4421630255443746  0.13474636855957559  0.9069050588481957  1.0000
  H   H18       1.0  0.05784084496974627  0.8652516619172842  0.4069041479338438  1.0000
  H   H19       1.0  0.5578388629095983  0.8652537550127303  0.09309748334982967  1.0000
  H   H20       1.0  0.9421610434797003  0.13474846165794216  0.5930936035403461  1.0000
  H   H21       1.0  0.3428451460695427  0.547586772765115  0.9275960821193293  1.0000
  H   H22       1.0  0.1571551933971804  0.4524123986841032  0.42759419952255223  1.0000
  H   H23       1.0  0.6571542019680763  0.4524133533261219  0.0724058612376126  1.0000
  H   H24       1.0  0.8428479652612851  0.5475877236311107  0.5724047496329021  1.0000
  H   H25       1.0  0.6751323153006225  0.5544598591856269  0.7291961168842461  1.0000
  H   H26       1.0  0.8248696674179429  0.44553870220048697  0.22919491606754858  1.0000
  H   H27       1.0  0.3248667922743635  0.44553910453100076  0.27080402995144937  1.0000
  H   H28       1.0  0.17513022944136475  0.5544579355065549  0.770803434247398  1.0000
  H   H29       1.0  0.6211647100114135  0.2593569934980096  0.7984832091042263  1.0000
  H   H30       1.0  0.878832082401992  0.7406403262241668  0.2984825051610826  1.0000
  H   H31       1.0  0.37883439756470244  0.7406419702178865  0.2015181354124351  1.0000
  H   H32       1.0  0.12116726563223065  0.2593597998692515  0.7015158451529826  1.0000
  C   C1        1.0  0.21125785268067426  0.21393885058162704  0.9447541003754694  1.0000
  C   C2        1.0  0.2887415573782447  0.7860556504836109  0.44475093846208574  1.0000
  C   C3        1.0  0.7887412548965784  0.7860601131335442  0.0552484418221439  1.0000
  C   C4        1.0  0.7112562799860173  0.2139433144941165  0.5552462141709071  1.0000
  C   C5        1.0  0.10044107277964541  0.1549135490630817  0.8819351215170597  1.0000
  C   C6        1.0  0.3995622017045761  0.8450880001890511  0.3819349811009971  1.0000
  C   C7        1.0  0.8995585157183399  0.8450877394042137  0.11806622299921089  1.0000
  C   C8        1.0  0.6004373867905811  0.15491328828006348  0.6180633692128692  1.0000
  C   C9        1.0  0.9217254044955895  0.119245315164008  0.8942684447163101  1.0000
  C   C10       1.0  0.5782786414225213  0.8807553688139435  0.39426873451932914  1.0000
  C   C11       1.0  0.07827521374935739  0.8807548096683036  0.10573289980045789  1.0000
  C   C12       1.0  0.4217207066122626  0.11924475727911237  0.6057302146352158  1.0000
  C   C13       1.0  0.8541969969373824  0.1467068927477868  0.9694246994592036  1.0000
  C   C14       1.0  0.6458034483428108  0.853287890402157  0.4694250333432065  1.0000
  C   C15       1.0  0.14580362130756436  0.8532932320845317  0.0305766450575575  1.0000
  C   C16       1.0  0.35419644851705817  0.14670874730452965  0.5305739158122265  1.0000
  C   C17       1.0  0.963580549128075  0.20571213309917616  0.0322088204340787  1.0000
  C   C18       1.0  0.5364180398492167  0.7942843457953188  0.5322074559733281  1.0000
  C   C19       1.0  0.03642085840402839  0.7942856657217376  0.9677937217643444  1.0000
  C   C20       1.0  0.4635797975161751  0.205714619181677  0.46779089434063076  1.0000
  C   C21       1.0  0.1427043066313374  0.23987088956274497  0.019494036272831698  1.0000
  C   C22       1.0  0.357292307886233  0.7601206431917047  0.5194922407462172  1.0000
  C   C23       1.0  0.8572958306923012  0.7601269105178117  0.9805079070847994  1.0000
  C   C24       1.0  0.642706559226113  0.23987715815032112  0.48050610956823187  1.0000
  C   C25       1.0  0.40433707527456153  0.23810420445406769  0.9335719928905347  1.0000
  C   C26       1.0  0.09566454569790034  0.7618949584626902  0.433570545895435  1.0000
  C   C27       1.0  0.5956637834318883  0.7618970827535848  0.0664299504665209  1.0000
  C   C28       1.0  0.9043373427515463  0.238105165112529  0.5664272055787548  1.0000
  C   C29       1.0  0.43010925430851893  0.5130206399297064  0.8838388365154585  1.0000
  C   C30       1.0  0.06989203218226686  0.4869774211388174  0.3838368973543709  1.0000
  C   C31       1.0  0.5698911234749247  0.48697832252727835  0.11616190916102197  1.0000
  C   C32       1.0  0.9301111264750689  0.5130227011771211  0.6161608541201176  1.0000
  C   C33       1.0  0.6006775566249872  0.5105414870512632  0.781506621101144  1.0000
  C   C34       1.0  0.8993232547778689  0.48945701193058966  0.281504837939039  1.0000
  C   C35       1.0  0.3993202807426711  0.489457477924283  0.21849412457473244  1.0000
  C   C36       1.0  0.10067561233448426  0.5105407894114291  0.7184935123754101  1.0000
  C   C37       1.0  0.5769451486518732  0.3648859616296604  0.8149518877752369  1.0000
  C   C38       1.0  0.9230544557717052  0.6351124979069666  0.3149506517404959  1.0000
  C   C39       1.0  0.4230552291321388  0.6351130008269621  0.1850494567417229  1.0000
  C   C40       1.0  0.07694719221679948  0.3648864632925636  0.6850470997338859  1.0000
  C   C41       1.0  0.8046130667352926  0.035468387935374296  0.8315428888272364  1.0000
  C   C42       1.0  0.6953897629514643  0.9645393491539948  0.33154439589606  1.0000
  C   C43       1.0  0.1953895430992247  0.964535222765484  0.16845725800828856  1.0000
  C   C44       1.0  0.3046100660068944  0.03546310168935919  0.6684563497795394  1.0000
  C   C45       1.0  0.8915167388238956  0.2151495458645485  0.1147823161828967  1.0000
  C   C46       1.0  0.6084847871388847  0.7848479923893946  0.6147851820495445  1.0000
  C   C47       1.0  0.10848212829015573  0.7848482554763831  0.8852178306529979  1.0000
  C   C48       1.0  0.39151758223469807  0.21515445593576737  0.3852149647861721  1.0000
  N   N1        1.0  0.4685232044556927  0.36833011391181003  0.8796625634699566  1.0000
  N   N2        1.0  0.03147656347152859  0.6316667911226687  0.379661142222794  1.0000
  N   N3        1.0  0.5314782030764034  0.6316676849091037  0.1203399787284667  1.0000
  N   N4        1.0  0.9685248440571711  0.36833100770043353  0.6203378069327457  1.0000
  N   N5        1.0  0.5084150002543879  0.6022817982606979  0.8248093332186739  1.0000
  N   N6        1.0  0.9915831121336752  0.3977154881639961  0.3248058372233017  1.0000
  N   N7        1.0  0.4915823561925237  0.39771484196272405  0.17519261013855206  1.0000
  N   N8        1.0  0.00841750610787527  0.6022846366705109  0.6751919142505827  1.0000
  O   O1        1.0  0.862850646110779  0.020805935879067792  0.7612821500256075  1.0000
  O   O2        1.0  0.6371545911641762  0.9792018842017849  0.2612836229827238  1.0000
  O   O3        1.0  0.13714815310062528  0.9791976785992701  0.23871859564949457  1.0000
  O   O4        1.0  0.3628459591769939  0.020804053768664198  0.7387171226922931  1.0000
  O   O5        1.0  0.6489959617334903  0.9805221408415856  0.8531565967064266  1.0000
  O   O6        1.0  0.8510056386064376  0.0194855712020612  0.3531585869183687  1.0000
  O   O7        1.0  0.3510051374321961  0.019480308742856795  0.14684355012899178  1.0000
  O   O8        1.0  0.14899546055924862  0.9805168783823812  0.6468415599170496  1.0000
  O   O9        1.0  0.7278516937742411  0.20106977627974484  0.1213180252123323  1.0000
  O   O10       1.0  0.7721513552120242  0.7989289151370896  0.6213197653404804  1.0000
  O   O11       1.0  0.27214693287999836  0.7989268626847588  0.8786833193047128  1.0000
  O   O12       1.0  0.2278487142044412  0.20107469808378647  0.37867798613251574  1.0000
  O   O13       1.0  0.9985982284580004  0.23475896028502063  0.17252133888557344  1.0000
  O   O14       1.0  0.5014008662414395  0.7652385102187224  0.67252116797858  1.0000
  O   O15       1.0  0.0014011195784888603  0.765241165806941  0.8274794067904097  1.0000
  O   O16       1.0  0.4986002329236854  0.2347639393660898  0.32747838001635887  1.0000
