data_image0
_chemical_formula_structural       Al6H38C108O28F12
_chemical_formula_sum              "Al6 H38 C108 O28 F12"
_cell_length_a       12.252968738414623
_cell_length_b       12.16301052633658
_cell_length_c       27.25800624590482
_cell_angle_alpha    89.64440549793164
_cell_angle_beta     90.25551321956681
_cell_angle_gamma    125.16648477351613

_space_group_name_H-M_alt    "P 1"
_space_group_IT_number       1

loop_
  _space_group_symop_operation_xyz
  'x, y, z'

loop_
  _atom_site_type_symbol
  _atom_site_label
  _atom_site_symmetry_multiplicity
  _atom_site_fract_x
  _atom_site_fract_y
  _atom_site_fract_z
  _atom_site_occupancy
  Al  Al1       1.0  0.4551921404817137  0.23734991537124728  0.749408615593687  1.0000
  Al  Al2       1.0  0.7580192034681589  0.4979870650851482  0.7503654976384837  1.0000
  Al  Al3       1.0  0.7110421086562795  0.22677178145220014  0.7496625237223  1.0000
  Al  Al4       1.0  0.2377946042629232  0.45325145691511176  0.2515694667925388  1.0000
  Al  Al5       1.0  0.4971802582876566  0.7578540066408478  0.2503363748528145  1.0000
  Al  Al6       1.0  0.22809507739516033  0.7112302732073276  0.24981854553956848  1.0000
  H   H1        1.0  0.01578393666257234  0.20179957833992293  0.0382014647279618  1.0000
  H   H2        1.0  0.20208724035623524  0.9942301624586705  0.44645445185926746  1.0000
  H   H3        1.0  0.8295317597528252  0.8439762802902492  0.0457920709537518  1.0000
  H   H4        1.0  0.021038054319660722  0.2104721704726344  0.46373086127320556  1.0000
  H   H5        1.0  0.20225994818006404  0.9971802541429255  0.0511679264135125  1.0000
  H   H6        1.0  0.8249187330656512  0.8434458885087679  0.45542665162749785  1.0000
  H   H7        1.0  0.20869393269737202  0.016378609553967693  0.5369146768317776  1.0000
  H   H8        1.0  0.9925684402383085  0.19563682044513092  0.9477836352203468  1.0000
  H   H9        1.0  0.8408826883596562  0.828486454962075  0.5455255693651395  1.0000
  H   H10       1.0  0.2080563241195961  0.017844769441346452  0.9606116909539608  1.0000
  H   H11       1.0  0.9986849997930138  0.2048718552393539  0.5542004530751896  1.0000
  H   H12       1.0  0.8463050889719171  0.8268760134147398  0.9560932249340794  1.0000
  H   H13       1.0  0.050535490955155714  0.6697338930003554  0.1229863151909498  1.0000
  H   H14       1.0  0.6296498209270711  0.9417343759309844  0.3768143965580109  1.0000
  H   H15       1.0  0.3131082714791092  0.37542842357865425  0.1228813953892143  1.0000
  H   H16       1.0  0.04839812030201092  0.6739391428719445  0.3761185498447616  1.0000
  H   H17       1.0  0.6253349153015367  0.9378538516354382  0.1228700340852455  1.0000
  H   H18       1.0  0.31112745563897454  0.3712021856109047  0.3788315975811614  1.0000
  H   H19       1.0  0.6753508742616249  0.05304151393375648  0.6225516284681305  1.0000
  H   H20       1.0  0.9388289414886588  0.6258845944517546  0.8769886281763846  1.0000
  H   H21       1.0  0.3726778493841962  0.3125494581974593  0.6240771847078292  1.0000
  H   H22       1.0  0.6689939463801124  0.04440978687021152  0.8763836040773682  1.0000
  H   H23       1.0  0.9367587767560791  0.6301443240252665  0.6219903483213329  1.0000
  H   H24       1.0  0.375690970223566  0.31249245498411676  0.878859660942247  1.0000
  H   H25       1.0  0.009386710606477762  0.7568346810615694  0.0462477898394695  1.0000
  H   H26       1.0  0.7504179924629357  0.9826257745862534  0.4561016934816777  1.0000
  H   H27       1.0  0.22193266200071804  0.24203157380291165  0.0457344049992088  1.0000
  H   H28       1.0  0.0048783904431813855  0.7595467004151712  0.4520736148073468  1.0000
  H   H29       1.0  0.7442213456930276  0.9748165322932039  0.0435571555791654  1.0000
  H   H30       1.0  0.22143973230883776  0.23722981675672375  0.45647982412157256  1.0000
  H   H31       1.0  0.7616851334838233  0.012996516285568232  0.5461071595092477  1.0000
  H   H32       1.0  0.9785370986720712  0.746103600170159  0.9562006312282705  1.0000
  H   H33       1.0  0.2390576966205487  0.22057479453749806  0.5467671395723741  1.0000
  H   H34       1.0  0.7546236628294594  0.0034506224127071796  0.9533795876703549  1.0000
  H   H35       1.0  0.9745809976965064  0.7492753022198996  0.5420563812622063  1.0000
  H   H36       1.0  0.24006880918591386  0.2237480632552717  0.9558257560762229  1.0000
  H   H37       1.0  0.23199608861796867  0.09680837745802513  0.7743027971871398  1.0000
  H   H38       1.0  0.11374507282862825  0.2306242976772239  0.2238837367007562  1.0000
  C   C1        1.0  0.5826225214693184  0.4689793064525888  0.8219639569378288  1.0000
  C   C2        1.0  0.8891986893157694  0.4342403176659033  0.6819217762630885  1.0000
  C   C3        1.0  0.5167291634908581  0.08696376361260859  0.8204292824809869  1.0000
  C   C4        1.0  0.5791562052584851  0.4725121645736081  0.680653455981556  1.0000
  C   C5        1.0  0.8896307122875272  0.4301300423646667  0.8178936734857344  1.0000
  C   C6        1.0  0.5209512473895616  0.0940915526146426  0.6774910225810586  1.0000
  C   C7        1.0  0.4687754823832364  0.5781912277894675  0.3214688960232622  1.0000
  C   C8        1.0  0.4309043378060764  0.8903478295619107  0.1817309572149028  1.0000
  C   C9        1.0  0.09273605176161237  0.5200712786643962  0.3218549133674244  1.0000
  C   C10       1.0  0.4712792065272425  0.5810010567764435  0.17997604643782236  1.0000
  C   C11       1.0  0.4336274137594104  0.8909186267483378  0.31759506023554  1.0000
  C   C12       1.0  0.09255106672215178  0.515502398682905  0.1785765758187878  1.0000
  C   C13       1.0  0.9905876768270828  0.47249576919489994  0.9712800948885416  1.0000
  C   C14       1.0  0.48416937609053434  0.010372465877800708  0.5222652420768839  1.0000
  C   C15       1.0  0.5401790592541289  0.5279278459120106  0.975247432901746  1.0000
  C   C16       1.0  0.9911428856355898  0.4784055895051936  0.528852911559575  1.0000
  C   C17       1.0  0.48042827388161413  0.006559359899270619  0.9762933581890393  1.0000
  C   C18       1.0  0.5367670913471873  0.5270214724600494  0.5267997193393157  1.0000
  C   C19       1.0  0.4777146506231776  0.9928451099134961  0.4705676441704938  1.0000
  C   C20       1.0  0.008337940315939912  0.47854953946158213  0.0230033791150035  1.0000
  C   C21       1.0  0.525871756559852  0.537303999874908  0.4752836217292185  1.0000
  C   C22       1.0  0.4744764702265487  0.9900401596591591  0.0280921138234191  1.0000
  C   C23       1.0  0.008729888031417945  0.48430079974588125  0.4771601360279334  1.0000
  C   C24       1.0  0.5289415088609816  0.5392969499848945  0.0265771687928265  1.0000
  C   C25       1.0  0.987037323213045  0.6724288900600187  0.9753415489327893  1.0000
  C   C26       1.0  0.6834018358131786  0.007648110611732786  0.5246811934213866  1.0000
  C   C27       1.0  0.31976554510515603  0.31039808891292614  0.9761560078048604  1.0000
  C   C28       1.0  0.9842803896785246  0.6762945531518982  0.5234493840888916  1.0000
  C   C29       1.0  0.6774475211027281  2.5775372201123515e-05  0.9745827976083632  1.0000
  C   C30       1.0  0.31807447494666974  0.30762169581759474  0.5262174493211234  1.0000
  C   C31       1.0  0.6770414534862895  0.990427109980885  0.4750780997075736  1.0000
  C   C32       1.0  0.004451849054788808  0.6784673463149531  0.024975266989976302  1.0000
  C   C33       1.0  0.3080525417458518  0.3170964525644706  0.4767347973983647  1.0000
  C   C34       1.0  0.6715748440256353  0.9838601002353969  0.0243017738074229  1.0000
  C   C35       1.0  0.001435368939631677  0.6820942182415094  0.4738368726634903  1.0000
  C   C36       1.0  0.3094871153213036  0.3207299965499502  0.0254594318347685  1.0000
  C   C37       1.0  0.9539257833781535  0.5566983475314018  0.8961869827558218  1.0000
  C   C38       1.0  0.5940592111762726  0.040792515489251065  0.6008053102416184  1.0000
  C   C39       1.0  0.4519104624920305  0.4012886416898526  0.8992866958388815  1.0000
  C   C40       1.0  0.9529052929076514  0.5616552876308984  0.6032722681414525  1.0000
  C   C41       1.0  0.5885709609964708  0.03373842055463433  0.8979450349394398  1.0000
  C   C42       1.0  0.448301389213654  0.40150487861889417  0.6033546311596325  1.0000
  C   C43       1.0  0.5609353815240825  0.9565787904179857  0.3958019773307697  1.0000
  C   C44       1.0  0.038689027136563095  0.5883460798505523  0.1013559909421105  1.0000
  C   C45       1.0  0.3998239734683865  0.4475421934111737  0.3992141526014876  1.0000
  C   C46       1.0  0.5573296847893731  0.953658771961372  0.10347831548055099  1.0000
  C   C47       1.0  0.03750183135763762  0.59303035053221  0.39817786075283823  1.0000
  C   C48       1.0  0.4021926917532356  0.45122219662348323  0.10251374562860599  1.0000
  C   C49       1.0  0.050508428655845775  0.4936844486190211  0.1259218531725281  1.0000
  C   C50       1.0  0.456477753991379  0.943413299382385  0.3684293154254661  1.0000
  C   C51       1.0  0.5019108594756291  0.5657644785973303  0.1283675077612116  1.0000
  C   C52       1.0  0.05046411432577008  0.4989199544909085  0.37435496526258305  1.0000
  C   C53       1.0  0.45405214380726766  0.9426315517461533  0.130571215283851  1.0000
  C   C54       1.0  0.4991345831472458  0.5626731507439331  0.3732068972057334  1.0000
  C   C55       1.0  0.4997010833883024  0.051765662765042526  0.6250311285743848  1.0000
  C   C56       1.0  0.9413733716971322  0.4522014272955773  0.868972352471431  1.0000
  C   C57       1.0  0.5628577087053516  0.5020941990949623  0.6289278159550449  1.0000
  C   C58       1.0  0.4949460242303658  0.045728375036425566  0.8731923508448389  1.0000
  C   C59       1.0  0.9415853333434542  0.4577284385670239  0.631030385054629  1.0000
  C   C60       1.0  0.5672808307249754  0.5000806355673788  0.8735421616234262  1.0000
  C   C61       1.0  0.9784668150276091  0.569185119970804  0.9467668372164084  1.0000
  C   C62       1.0  0.5880708979186765  0.019014017382275497  0.5501027998661883  1.0000
  C   C63       1.0  0.43566581564301315  0.4124085894236347  0.9493901882554923  1.0000
  C   C64       1.0  0.9775134125224914  0.5742000760037201  0.5527127641117531  1.0000
  C   C65       1.0  0.5829746402407352  0.01282036948943953  0.9487685233338111  1.0000
  C   C66       1.0  0.4327764683189201  0.4112479900289968  0.5529535836556647  1.0000
  C   C67       1.0  0.5738793376967947  0.9813037313949521  0.4463154198497179  1.0000
  C   C68       1.0  0.016585322525507814  0.5826393262876621  0.0506280443766087  1.0000
  C   C69       1.0  0.41045569284160194  0.43233693376046745  0.44958057345726843  1.0000
  C   C70       1.0  0.5698302919167235  0.9772512726835316  0.0527903680783126  1.0000
  C   C71       1.0  0.015279848053765557  0.5873192474618277  0.4488459698108258  1.0000
  C   C72       1.0  0.41272377690677337  0.4354645194418224  0.0523383268970719  1.0000
  C   C73       1.0  0.960478391857052  0.3625666265102936  0.8934410965438317  1.0000
  C   C74       1.0  0.39510053484126934  0.03663024159092027  0.5971431690552151  1.0000
  C   C75       1.0  0.6656886187984484  0.6150875588106786  0.8993186806224429  1.0000
  C   C76       1.0  0.9624357922479377  0.36921366956839563  0.6072084778918025  1.0000
  C   C77       1.0  0.3917419550909997  0.03305486633791333  0.9008439129120163  1.0000
  C   C78       1.0  0.6608806131706403  0.6172214589052132  0.6028387873209909  1.0000
  C   C79       1.0  0.36747711395914023  0.9623335068791405  0.39260154939215397  1.0000
  C   C80       1.0  0.036207707692604216  0.38920409614870266  0.09817012753936179  1.0000
  C   C81       1.0  0.6139702163091273  0.6615863171429908  0.3988488180870604  1.0000
  C   C82       1.0  0.36609562733199424  0.9629411520786987  0.1059140521603368  1.0000
  C   C83       1.0  0.03720153084127988  0.3949689189143654  0.4027149986970144  1.0000
  C   C84       1.0  0.6171559944633672  0.6638863809798112  0.1026457219929853  1.0000
  C   C85       1.0  0.9839670231734062  0.36893507046884366  0.9440923190944163  1.0000
  C   C86       1.0  0.38566124633629784  0.01831977253203126  0.5461491284120967  1.0000
  C   C87       1.0  0.6560924708451666  0.6321409015747507  0.9496796179446534  1.0000
  C   C88       1.0  0.9862045147390006  0.37583448369798594  0.5566469013905788  1.0000
  C   C89       1.0  0.3827742235373178  0.0158964970094573  0.9519464162128912  1.0000
  C   C90       1.0  0.6517202609099968  0.6328116119480995  0.5522405095799527  1.0000
  C   C91       1.0  0.37435290577759905  0.9859100741636695  0.4431946817997243  1.0000
  C   C92       1.0  0.01721263445556084  0.37965471875406814  0.0471659872309473  1.0000
  C   C93       1.0  0.6303960318078766  0.6528594115797545  0.4494199311014739  1.0000
  C   C94       1.0  0.3724814752268911  0.9854756497878084  0.0551533929444687  1.0000
  C   C95       1.0  0.018875958270555833  0.38611962941283196  0.453725954951274  1.0000
  C   C96       1.0  0.6338904559179356  0.6545439896390164  0.0522370077047967  1.0000
  C   C97       1.0  0.0098245460011057  0.27680802426987566  0.0189659617907836  1.0000
  C   C98       1.0  0.27899720864333216  0.9977397808020281  0.4680430069059653  1.0000
  C   C99       1.0  0.7495158853018113  0.7571794574524021  0.0256906637751015  1.0000
  C   C100      1.0  0.013618981084370317  0.28453747309377053  0.4825221886269944  1.0000
  C   C101      1.0  0.2780920963320528  0.9987823428658869  0.0298495913849308  1.0000
  C   C102      1.0  0.7452824596994393  0.7566944115328837  0.47581073481247665  1.0000
  C   C103      1.0  0.2831053347361774  0.010805557577917617  0.517793622983362  1.0000
  C   C104      1.0  0.9962133850372156  0.2729311065064763  0.9692013469974157  1.0000
  C   C105      1.0  0.7545191299807501  0.7480740186985457  0.5254292397953506  1.0000
  C   C106      1.0  0.2817161359484786  0.010956534567725416  0.9800112229828528  1.0000
  C   C107      1.0  0.0003867464925662112  0.2809343525080124  0.5322606944790707  1.0000
  C   C108      1.0  0.7591699399422611  0.7473631807364003  0.9762374946663357  1.0000
  O   O1        1.0  0.4420251798650838  0.1144948221629606  0.8006548447536446  1.0000
  O   O2        1.0  0.6929498318648087  0.553526591684161  0.7016867287683297  1.0000
  O   O3        1.0  0.8460277643372934  0.3172996815989252  0.797928458900607  1.0000
  O   O4        1.0  0.4501348238298561  0.1282209593592469  0.6952867772059433  1.0000
  O   O5        1.0  0.6945421826716968  0.5518792882112464  0.7999561534959838  1.0000
  O   O6        1.0  0.8455388688700651  0.32069173904343984  0.7018057667626181  1.0000
  O   O7        1.0  0.12414293922195445  0.4470373201676097  0.303756840361153  1.0000
  O   O8        1.0  0.5526106332150605  0.6948271228475277  0.20131694686928367  1.0000
  O   O9        1.0  0.32158530144668174  0.8475569711225077  0.2974126496153389  1.0000
  O   O10       1.0  0.12267017708894205  0.44177043567288615  0.1977219073056844  1.0000
  O   O11       1.0  0.5502237028787037  0.6913743216991719  0.299565893808051  1.0000
  O   O12       1.0  0.3182323826248918  0.8465095431496507  0.20131369513201494  1.0000
  O   O13       1.0  0.48644723278286534  0.3591572573829468  0.8044868196907871  1.0000
  O   O14       1.0  0.8813114347474669  0.5250738251620889  0.7013054586456207  1.0000
  O   O15       1.0  0.6174928927375092  0.09949211336657973  0.799282264974174  1.0000
  O   O16       1.0  0.48198895763339794  0.3650490755456346  0.6994288964122574  1.0000
  O   O17       1.0  0.8824756557340551  0.5220299398157451  0.7985960112970503  1.0000
  O   O18       1.0  0.6172396637819945  0.10044343006141784  0.7004179302058516  1.0000
  O   O19       1.0  0.3604593325785785  0.48083439186293486  0.30355884517560133  1.0000
  O   O20       1.0  0.5213263701503055  0.8826651979270111  0.2013930117371174  1.0000
  O   O21       1.0  0.10179548507937862  0.6188405435239517  0.2991065555613162  1.0000
  O   O22       1.0  0.3634688819557114  0.4835553609552719  0.1981398171971449  1.0000
  O   O23       1.0  0.5241311998194009  0.882748312460052  0.2985324220065593  1.0000
  O   O24       1.0  0.10263540931268299  0.6151879629230309  0.20019643748626947  1.0000
  O   O25       1.0  0.6435924025532459  0.3215969275375486  0.7503381246157588  1.0000
  O   O26       1.0  0.3219474464174967  0.6428975718762117  0.2501467275345917  1.0000
  O   O27       1.0  0.28259362442477004  0.16075094443932159  0.7482767997603759  1.0000
  O   O28       1.0  0.1604724403687712  0.27928499561347303  0.2533285642750869  1.0000
  F   F1        1.0  0.04236250943416316  0.2919985014539109  0.11971810535702329  1.0000
  F   F2        1.0  0.26785778973845  0.9556827541214331  0.3676599910378968  1.0000
  F   F3        1.0  0.7186598725012274  0.7755307757401865  0.1257978534201243  1.0000
  F   F4        1.0  0.04389914204560341  0.2983441812994627  0.3818748935167449  1.0000
  F   F5        1.0  0.26790581112133105  0.9588544323354782  0.1305815108748334  1.0000
  F   F6        1.0  0.7150664194284677  0.7733999203096859  0.3754728686052858  1.0000
  F   F7        1.0  0.2980990995023589  0.04092554393650971  0.6184934303493889  1.0000
  F   F8        1.0  0.9543560331498925  0.26279644862983526  0.868697450691016  1.0000
  F   F9        1.0  0.772117661817902  0.7194429047126011  0.625817461244644  1.0000
  F   F10       1.0  0.29557372473119164  0.03936986519516951  0.8791548064072926  1.0000
  F   F11       1.0  0.9578817232576287  0.2703647068460527  0.6325276372031111  1.0000
  F   F12       1.0  0.7781892077572938  0.7159351769113588  0.8763232606508637  1.0000
