data_image0
_chemical_formula_structural       Zn2H32C52N4O10
_chemical_formula_sum              "Zn2 H32 C52 N4 O10"
_cell_length_a       17.000817135558783
_cell_length_b       18.239972018941838
_cell_length_c       19.61370183997038
_cell_angle_alpha    89.76998058009087
_cell_angle_beta     90.72103249713943
_cell_angle_gamma    95.78479224104231

_space_group_name_H-M_alt    "P 1"
_space_group_IT_number       1

loop_
  _space_group_symop_operation_xyz
  'x, y, z'

loop_
  _atom_site_type_symbol
  _atom_site_label
  _atom_site_symmetry_multiplicity
  _atom_site_fract_x
  _atom_site_fract_y
  _atom_site_fract_z
  _atom_site_occupancy
  Zn  Zn1       1.0  0.5046627340263256  0.4244455064377489  0.4980762383700537  1.0000
  Zn  Zn2       1.0  0.49753214399077456  0.5758053827425941  0.4970848154083214  1.0000
  H   H1        1.0  0.7318032822666537  0.4361925964908052  0.5861600700356745  1.0000
  H   H2        1.0  0.5862809670761705  0.836216634390567  0.5777025294654194  1.0000
  H   H3        1.0  0.4187485816130446  0.3023897650376597  0.42215960845227574  1.0000
  H   H4        1.0  0.5823712431347161  0.6988315319448617  0.5725469643329433  1.0000
  H   H5        1.0  0.37393177820562334  0.057333761065649504  0.4770718919410726  1.0000
  H   H6        1.0  0.6228827894523904  0.9429657426565898  0.5200334778955025  1.0000
  H   H7        1.0  0.372378405636077  0.9222354508866605  0.47672140140981156  1.0000
  H   H8        1.0  0.6243153732184653  0.077955199236996  0.5208647623537104  1.0000
  H   H9        1.0  0.8780194577147143  0.4358736017762582  0.6054401353184673  1.0000
  H   H10       1.0  0.1275439901385198  0.5645917101346853  0.6032564833397203  1.0000
  H   H11       1.0  0.08234382394790171  0.374217692630353  0.4752829778053567  1.0000
  H   H12       1.0  0.2729052640187248  0.5651510875353124  0.5820923821367359  1.0000
  H   H13       1.0  0.9184409538938636  0.6276054878950674  0.47794960140969067  1.0000
  H   H14       1.0  0.4895218895276443  0.6149634589061322  0.7129195194421527  1.0000
  H   H15       1.0  0.4952435984619682  0.3816640955153972  0.2819842478641235  1.0000
  H   H16       1.0  0.49071881208986673  0.6164075369357604  0.8400648608280007  1.0000
  H   H17       1.0  0.4959027953293358  0.3815515405051215  0.154729148073443  1.0000
  H   H18       1.0  0.5089942175589569  0.3823924531789232  0.842075107158081  1.0000
  H   H19       1.0  0.5023381447093412  0.6183613789143507  0.15452378336142658  1.0000
  H   H20       1.0  0.5121001600941212  0.38296100108531306  0.7149946493127642  1.0000
  H   H21       1.0  0.5032229064616088  0.6173455710775214  0.2818411503114149  1.0000
  H   H22       1.0  0.5821446905912494  0.4175064540552995  0.936786362121829  1.0000
  H   H23       1.0  0.5811386000194361  0.4173542409466365  0.0625431119836577  1.0000
  H   H24       1.0  0.4175532820732143  0.5827800991996241  0.059346463984546495  1.0000
  H   H25       1.0  0.17611677964965372  0.320028543593267  0.4217524877716201  1.0000
  H   H26       1.0  0.8200653350261646  0.6827154946787954  0.42506273569156855  1.0000
  H   H27       1.0  0.4174582454731279  0.5821565516781247  0.933565308256064  1.0000
  H   H28       1.0  0.5881032860208819  0.314488367270556  0.5759204746093545  1.0000
  H   H29       1.0  0.4088763924536919  0.6849322790514877  0.4225361349295013  1.0000
  H   H30       1.0  0.58824535655868  0.17734886596112895  0.5804757292261797  1.0000
  H   H31       1.0  0.40737765266587894  0.8219045080424365  0.4181894200793862  1.0000
  H   H32       1.0  0.4126049950126571  0.1648021358259513  0.418205234201416  1.0000
  C   C1        1.0  0.4991730187623133  0.4994295121607805  0.36581731471442674  1.0000
  C   C2        1.0  0.5004473789865003  0.5660243120223428  0.2532489864664456  1.0000
  C   C3        1.0  0.5013925767422122  0.49899997158038906  0.7064815525615842  1.0000
  C   C4        1.0  0.49868989896360466  0.49947967275269906  0.2894844415356132  1.0000
  C   C5        1.0  0.544748665548383  0.4529831613214698  0.9634204518487904  1.0000
  C   C6        1.0  0.4546372609236541  0.5471281182982609  0.0325555949406819  1.0000
  C   C7        1.0  0.5442612373379632  0.45292163933235946  0.0343199171991273  1.0000
  C   C8        1.0  0.4547362083198791  0.5468441347080599  0.961646744101806  1.0000
  C   C9        1.0  0.4992426320165321  0.500039485022768  0.0704374489609236  1.0000
  C   C10       1.0  0.4998415160872013  0.4998075994003699  0.925502912138981  1.0000
  C   C11       1.0  0.5508680176468133  0.2785591136249437  0.5417307690848076  1.0000
  C   C12       1.0  0.5021438800055263  0.498702330486786  0.6302727600494789  1.0000
  C   C13       1.0  0.44706740627125185  0.7211525345319529  0.4557809378766819  1.0000
  C   C14       1.0  0.5506517822444578  0.20247805146362202  0.5435764924451902  1.0000
  C   C15       1.0  0.44618226057494326  0.797198896140536  0.4543484781665015  1.0000
  C   C16       1.0  0.34721819496620293  0.4802620699060327  0.5030726795891596  1.0000
  C   C17       1.0  0.6548756605142286  0.5216721958070282  0.506089436859618  1.0000
  C   C18       1.0  0.5005118272927049  0.15876480778996435  0.49905385080356973  1.0000
  C   C19       1.0  0.4967162019393854  0.8414488475552631  0.49810882125711226  1.0000
  C   C20       1.0  0.45200283142923336  0.19538714607728017  0.4546616426237263  1.0000
  C   C21       1.0  0.5466428286859611  0.8053033381459969  0.5416389253186082  1.0000
  C   C22       1.0  0.45545485000791786  0.2718146906772034  0.45576189820089036  1.0000
  C   C23       1.0  0.49406810993111333  0.5647600509062158  0.8128681644338727  1.0000
  C   C24       1.0  0.5443381573442138  0.7290481330897124  0.5399757263114822  1.0000
  C   C25       1.0  0.4289407243036223  0.0325003544349016  0.4856209129692672  1.0000
  C   C26       1.0  0.5677842892021941  0.9677162779952224  0.5117167103555289  1.0000
  C   C27       1.0  0.4281057030643395  0.9562113362298986  0.4853675390926355  1.0000
  C   C28       1.0  0.5685990957388681  0.04397354205654119  0.5121030091175028  1.0000
  C   C29       1.0  0.497496053764486  0.9223692298230051  0.49836279898121916  1.0000
  C   C30       1.0  0.49923569970494  0.0778159831261576  0.4989938114758559  1.0000
  C   C31       1.0  0.2592608101935667  0.47268526554857004  0.5141560250545893  1.0000
  C   C32       1.0  0.7430487971190303  0.5287170311600634  0.5176755401625996  1.0000
  C   C33       1.0  0.2305124426211407  0.5238900823308158  0.5582600035679945  1.0000
  C   C34       1.0  0.4978626341352665  0.4334758095539968  0.1824739151950752  1.0000
  C   C35       1.0  0.7733155673764927  0.4774398107683736  0.5618391545944944  1.0000
  C   C36       1.0  0.15008165385442848  0.5235549229802529  0.5704784068062878  1.0000
  C   C37       1.0  0.8542588748901137  0.4773648558891638  0.5731739658958475  1.0000
  C   C38       1.0  0.0966159261586554  0.4698183614021758  0.5394048660747828  1.0000
  C   C39       1.0  0.9065777953449226  0.5312799896754186  0.5417935204000415  1.0000
  C   C40       1.0  0.12491824331998197  0.41564279719404595  0.49890223269819955  1.0000
  C   C41       1.0  0.8767857779575363  0.5860315002789633  0.5018607686237928  1.0000
  C   C42       1.0  0.20550095016967868  0.41758673547204944  0.48401854523540067  1.0000
  C   C43       1.0  0.7958073272131043  0.5837603012210408  0.4872040024479176  1.0000
  C   C44       1.0  0.4942253265174584  0.5644846737834895  0.7419920323437239  1.0000
  C   C45       1.0  0.5001112980496885  0.49950623245612763  0.8502988215489324  1.0000
  C   C46       1.0  0.49715376749837503  0.43316652521202315  0.2533919698855556  1.0000
  C   C47       1.0  0.2263182855646946  0.3631783116691025  0.4330656847192387  1.0000
  C   C48       1.0  0.7727793913403289  0.6363858522546834  0.4344963542661943  1.0000
  C   C49       1.0  0.498882069823459  0.4999334065829262  0.1456719436086615  1.0000
  C   C50       1.0  0.5064573310433998  0.43392850806935  0.814064482084774  1.0000
  C   C51       1.0  0.49983404647597496  0.5662005405945647  0.18230879357599147  1.0000
  C   C52       1.0  0.5075855288265955  0.4337184366072435  0.7432009843718816  1.0000
  N   N1        1.0  0.013465623166602823  0.468604836821939  0.5425060511784208  1.0000
  N   N2        1.0  0.9897898421907455  0.5322287267186211  0.5434890584636348  1.0000
  N   N3        1.0  0.5044117468684702  0.3125930875319369  0.49848630322594534  1.0000
  N   N4        1.0  0.4952420890115761  0.6876337828747977  0.497920996332077  1.0000
  O   O1        1.0  0.489739284647449  0.43703217389283117  0.3957609184787713  1.0000
  O   O2        1.0  0.7113508682101751  0.6311035686283333  0.401151128374643  1.0000
  O   O3        1.0  0.48135812826765795  0.5557472040419782  0.5998575410538791  1.0000
  O   O4        1.0  0.5091236945700929  0.5619100904720967  0.3953266058065168  1.0000
  O   O5        1.0  0.5234017392209153  0.44148452246037817  0.6013684968159864  1.0000
  O   O6        1.0  0.3844054380012595  0.42523465655913373  0.5169203917492097  1.0000
  O   O7        1.0  0.6183207310606633  0.577238796002817  0.5186694978108902  1.0000
  O   O8        1.0  0.37636050782068503  0.5439788601379192  0.48433414059287117  1.0000
  O   O9        1.0  0.6249010616594219  0.4580351195502035  0.48790034361592655  1.0000
  O   O10       1.0  0.2889409138249662  0.363051114645927  0.4031035222694115  1.0000
