data_image0
_chemical_formula_structural       H20Pb4C32N4O20
_chemical_formula_sum              "H20 Pb4 C32 N4 O20"
_cell_length_a       7.37372678176166
_cell_length_b       10.643967877277623
_cell_length_c       11.290670742192473
_cell_angle_alpha    89.99960783872952
_cell_angle_beta     90.0005985256843
_cell_angle_gamma    98.22672503891664

_space_group_name_H-M_alt    "P 1"
_space_group_IT_number       1

loop_
  _space_group_symop_operation_xyz
  'x, y, z'

loop_
  _atom_site_type_symbol
  _atom_site_label
  _atom_site_symmetry_multiplicity
  _atom_site_fract_x
  _atom_site_fract_y
  _atom_site_fract_z
  _atom_site_occupancy
  H   H1        1.0  0.6338868832804536  0.44056408883881915  0.05493719729926741  1.0000
  H   H2        1.0  0.8661228706775783  0.5594413653456198  0.5549433163140591  1.0000
  H   H3        1.0  0.3661142877980552  0.5594414040303518  0.9450548410690872  1.0000
  H   H4        1.0  0.13388977925922768  0.44056039938180186  0.4450611217234269  1.0000
  H   H5        1.0  0.7745295848718712  0.1672651901470061  0.2861985404120376  1.0000
  H   H6        1.0  0.7254673791330571  0.8327322510036693  0.7862045388787777  1.0000
  H   H7        1.0  0.2254670193917789  0.8327307950662898  0.7137899552245345  1.0000
  H   H8        1.0  0.27453619889195824  0.1672647216489835  0.21379901345680002  1.0000
  H   H9        1.0  0.05100653900708349  0.016117077002093094  0.1324413216087947  1.0000
  H   H10       1.0  0.44898294103565917  0.9838911473982815  0.6324504926712038  1.0000
  H   H11       1.0  0.9489642689061808  0.9838996231258149  0.867554259366763  1.0000
  H   H12       1.0  0.551022982116912  0.016103942078530095  0.3675530596786274  1.0000
  H   H13       1.0  0.601888001018672  0.5098521756064757  0.4306718424909307  1.0000
  H   H14       1.0  0.8981069159758731  0.4901368540617026  0.9306786407926069  1.0000
  H   H15       1.0  0.39812261232311386  0.49013914754323196  0.5693228530176739  1.0000
  H   H16       1.0  0.10188759017029975  0.5098553265038814  0.0693284542759258  1.0000
  H   H17       1.0  0.7034277324376959  0.2945848764167919  0.4644468063024335  1.0000
  H   H18       1.0  0.7965634287984212  0.7054029935174311  0.9644505940178619  1.0000
  H   H19       1.0  0.2965793631798164  0.7054092715089839  0.5355434607499205  1.0000
  H   H20       1.0  0.2034242887906785  0.29458914882100357  0.035550301218876305  1.0000
  Pb  Pb1       1.0  0.3734916255661671  0.8374539882418329  0.11992492803442903  1.0000
  Pb  Pb2       1.0  0.1265035927796276  0.16254296072676055  0.6199302869314068  1.0000
  Pb  Pb3       1.0  0.6265068918873807  0.16254485230366808  0.8800733101558581  1.0000
  Pb  Pb4       1.0  0.8734844951324163  0.8374510800680497  0.3800768081090808  1.0000
  C   C1        1.0  0.651011167929276  0.41560807401864946  0.14710546792000662  1.0000
  C   C2        1.0  0.8489966864607863  0.5843940053449826  0.6471059900288054  1.0000
  C   C3        1.0  0.3489871027052729  0.5843964542790869  0.8528998557462942  1.0000
  C   C4        1.0  0.15101522287625355  0.4156039624524651  0.352892248209983  1.0000
  C   C5        1.0  0.7677337591822847  0.9496295936129966  0.0775103476793504  1.0000
  C   C6        1.0  0.7322683077933262  0.0503832755785041  0.577513630930234  1.0000
  C   C7        1.0  0.23225840166941936  0.0503853304306858  0.9224825763139038  1.0000
  C   C8        1.0  0.26773527021192917  0.9496136970815239  0.4224872643444187  1.0000
  C   C9        1.0  0.6114968364181621  0.4909467589412984  0.24155297004150364  1.0000
  C   C10       1.0  0.8885031043125051  0.5090556916640806  0.7415418632544118  1.0000
  C   C11       1.0  0.3885014959233359  0.5090511323575768  0.7584488108992037  1.0000
  C   C12       1.0  0.11150121422662806  0.4909450779505134  0.2584563749491977  1.0000
  C   C13       1.0  0.5467295655526812  0.6161872848987998  0.2165210472901009  1.0000
  C   C14       1.0  0.9532845673312308  0.3838134903274337  0.7165280436134227  1.0000
  C   C15       1.0  0.45327283986243566  0.38381062935899024  0.7834763052295343  1.0000
  C   C16       1.0  0.04672110894962597  0.6161872869212741  0.2834755087166272  1.0000
  C   C17       1.0  0.7267799906019407  0.2589956519434011  0.27975647106261914  1.0000
  C   C18       1.0  0.773225640918973  0.740998081576123  0.7797625198643134  1.0000
  C   C19       1.0  0.2732212422559854  0.7410032038998509  0.7202417671368622  1.0000
  C   C20       1.0  0.22678281250615842  0.2589960739591818  0.22024191818421465  1.0000
  C   C21       1.0  0.9645900975810733  0.9938464194586202  0.054761115103460205  1.0000
  C   C22       1.0  0.5353961406491834  0.006163644267843399  0.5547456385115694  1.0000
  C   C23       1.0  0.0353814509319648  0.0061740775992618  0.9452406656707952  1.0000
  C   C24       1.0  0.4646082396825477  0.9938304883159149  0.44526057089711213  1.0000
  C   C25       1.0  0.6310975494002021  0.4493012467326378  0.3575356560087286  1.0000
  C   C26       1.0  0.8688987479584965  0.5506938921585343  0.8575374237514808  1.0000
  C   C27       1.0  0.3689064606547134  0.5506909873775285  0.6424705534050191  1.0000
  C   C28       1.0  0.13110075694677897  0.4493030575524131  0.14246435719636  1.0000
  C   C29       1.0  0.686982228966677  0.3311496491495518  0.37577430582673094  1.0000
  C   C30       1.0  0.8130107602896997  0.668854850244422  0.8757713634661003  1.0000
  C   C31       1.0  0.3130209170152725  0.6688520620505043  0.6242248180567317  1.0000
  C   C32       1.0  0.1869865846132512  0.33114493188408994  0.1242286460910051  1.0000
  N   N1        1.0  0.7111500795996974  0.3024480267710743  0.1667373012129545  1.0000
  N   N2        1.0  0.7888590543187771  0.6975520527418693  0.6667402030368238  1.0000
  N   N3        1.0  0.28885504120662364  0.6975499027893831  0.8332582799419229  1.0000
  N   N4        1.0  0.2111540276149739  0.3024449734553584  0.3332624636439618  1.0000
  O   O1        1.0  0.6582043539884097  0.9242023734298785  0.9898446970473317  1.0000
  O   O2        1.0  0.8417893449775203  0.07580338334187789  0.4898388799783149  1.0000
  O   O3        1.0  0.34178225270872525  0.0758049337506748  0.0101561981351352  1.0000
  O   O4        1.0  0.1582107770499376  0.9241897770805987  0.5101593582363436  1.0000
  O   O5        1.0  0.5124789234879614  0.6397525763232536  0.10813136606618201  1.0000
  O   O6        1.0  0.9875337201134116  0.3602563870759069  0.6081316670117403  1.0000
  O   O7        1.0  0.48752675275995466  0.36024820093775384  0.8918677578290045  1.0000
  O   O8        1.0  0.012474856710234395  0.6397453547073509  0.39187188532497436  1.0000
  O   O9        1.0  0.7624606390365257  0.2355502296294317  0.0779732644609652  1.0000
  O   O10       1.0  0.7375492725400079  0.7644541473859474  0.5779824568998891  1.0000
  O   O11       1.0  0.23754423482560577  0.7644533877299863  0.9220125741174243  1.0000
  O   O12       1.0  0.2624718938801749  0.23554956171076913  0.4220210954731414  1.0000
  O   O13       1.0  0.7138798545748912  0.9379077446420677  0.18507865767160334  1.0000
  O   O14       1.0  0.7861204802673141  0.06210830120159019  0.6850822295698364  1.0000
  O   O15       1.0  0.28610360463526513  0.062104285802895696  0.8149124949277038  1.0000
  O   O16       1.0  0.21389136734300956  0.9378963036021017  0.3149168943336207  1.0000
  O   O17       1.0  0.5272085116406159  0.6898645597948981  0.3022401778901411  1.0000
  O   O18       1.0  0.9728107845317595  0.3101348131343826  0.8022442550299544  1.0000
  O   O19       1.0  0.47279389380086184  0.3101333544530576  0.6977607173773848  1.0000
  O   O20       1.0  0.027193410661560283  0.6898583702125832  0.1977619543812636  1.0000
