data_image0
_chemical_formula_structural       Zn2H12C50N12O28F4
_chemical_formula_sum              "Zn2 H12 C50 N12 O28 F4"
_cell_length_a       9.585458786833973
_cell_length_b       10.848967447385059
_cell_length_c       28.204421881516037
_cell_angle_alpha    91.85011933648433
_cell_angle_beta     90.47733661091945
_cell_angle_gamma    90.11714055319997

_space_group_name_H-M_alt    "P 1"
_space_group_IT_number       1

loop_
  _space_group_symop_operation_xyz
  'x, y, z'

loop_
  _atom_site_type_symbol
  _atom_site_label
  _atom_site_symmetry_multiplicity
  _atom_site_fract_x
  _atom_site_fract_y
  _atom_site_fract_z
  _atom_site_occupancy
  Zn  Zn1       1.0  0.3630313224555763  0.5009623754738185  0.49925602265651764  1.0000
  Zn  Zn2       1.0  0.6511733073895059  0.501567882420723  0.50100248924538  1.0000
  H   H1        1.0  0.4249243471347982  0.796925590964385  0.12931151142828415  1.0000
  H   H2        1.0  0.4312896633769157  0.199635085947321  0.8706254759525793  1.0000
  H   H3        1.0  0.48972039922806243  0.8138677679248332  0.9731534059619522  1.0000
  H   H4        1.0  0.49730146933229247  0.18420915821091197  0.02708750727584431  1.0000
  H   H5        1.0  0.7257237032174474  0.8869853077441477  0.5135432702273806  1.0000
  H   H6        1.0  0.2853880303045955  0.1153336874626092  0.4837217578242489  1.0000
  H   H7        1.0  0.72443042594076  0.11913015987896357  0.5152417194480492  1.0000
  H   H8        1.0  0.2847100006145595  0.8834555947925156  0.4851577325331534  1.0000
  H   H9        1.0  0.8701605496515371  0.3626601066430766  0.4479558994593021  1.0000
  H   H10       1.0  0.14380729452739868  0.6414585270088936  0.5515990502245318  1.0000
  H   H11       1.0  0.8773710409453913  0.6381313478874161  0.553869274426994  1.0000
  H   H12       1.0  0.13678894981631373  0.3602876073993783  0.4474855440908741  1.0000
  C   C1        1.0  0.5048995538568094  0.7362876923885223  0.4997742644487318  1.0000
  C   C2        1.0  0.5042140534756071  0.2663106624762435  0.4999089475833431  1.0000
  C   C3        1.0  0.5099892902545734  0.5129485070741494  0.5937690172303933  1.0000
  C   C4        1.0  0.5114047619505583  0.48851750343408895  0.4065224100371624  1.0000
  C   C5        1.0  0.4890541698649925  0.6276145312528029  0.8238036673261038  1.0000
  C   C6        1.0  0.49184611190298005  0.37020402345051917  0.17647748875987196  1.0000
  C   C7        1.0  0.4579259369650969  0.3974199381296232  0.8183793344876096  1.0000
  C   C8        1.0  0.455442578337383  0.5996080446687202  0.18174335741611716  1.0000
  C   C9        1.0  0.5970743946673238  0.4598841849171221  0.7243449716473979  1.0000
  C   C10       1.0  0.5978409896874411  0.5399726252844984  0.27630019377884457  1.0000
  C   C11       1.0  0.6054062420244365  0.46113792453063956  0.6749079518258869  1.0000
  C   C12       1.0  0.6068752248194116  0.5392182077000172  0.3257813605609742  1.0000
  C   C13       1.0  0.39336569555526785  0.5749268945956275  0.6717662875648358  1.0000
  C   C14       1.0  0.3967516251305696  0.42185547878051466  0.3281400819642216  1.0000
  C   C15       1.0  0.38268391367769544  0.5739654762809892  0.7210559368171376  1.0000
  C   C16       1.0  0.38550056649795283  0.422011925793143  0.27879799248425036  1.0000
  C   C17       1.0  0.4852240888783826  0.5162800329716717  0.7480479396026996  1.0000
  C   C18       1.0  0.48655963256386064  0.48146929404304467  0.2521926008856568  1.0000
  C   C19       1.0  0.4675876239419167  0.5077396088940631  0.8986389838116582  1.0000
  C   C20       1.0  0.4676000158179292  0.48970084225862825  0.10156848634718334  1.0000
  C   C21       1.0  0.48260653429777994  0.6219208020624478  0.8758324342125194  1.0000
  C   C22       1.0  0.4853268029997436  0.375847391442477  0.12442813034188303  1.0000
  C   C23       1.0  0.4923531423390628  0.7283744352641011  0.9042863753223573  1.0000
  C   C24       1.0  0.49771182503771166  0.2696599211239175  0.09603395527676643  1.0000
  C   C25       1.0  0.45567583503613207  0.39720418155763326  0.8706531288760788  1.0000
  C   C26       1.0  0.45317130536921724  0.5999232082270964  0.1294689911025273  1.0000
  C   C27       1.0  0.5037705793709222  0.518626429651121  0.6475222754363233  1.0000
  C   C28       1.0  0.5063414065289039  0.4805709671975009  0.3527690897559311  1.0000
  C   C29       1.0  0.45650166823215  0.6115776314374274  0.028566323760536208  1.0000
  C   C30       1.0  0.45918013205442076  0.38566806201455966  0.9715687885909718  1.0000
  C   C31       1.0  0.4706528490632138  0.38182140885811583  0.023188889136832806  1.0000
  C   C32       1.0  0.46803397122435814  0.615692844721444  0.9770203225066754  1.0000
  C   C33       1.0  0.4648544251920513  0.49486982854113387  0.0508930825860574  1.0000
  C   C34       1.0  0.46497794126513975  0.5025486665500125  0.9492973266842814  1.0000
  C   C35       1.0  0.43916175743665786  0.7156964065115476  0.05881966581266342  1.0000
  C   C36       1.0  0.4439884708741104  0.2812129326847526  0.9412012429872266  1.0000
  C   C37       1.0  0.4369586636608672  0.7119784321264648  0.10801997703121913  1.0000
  C   C38       1.0  0.44175004330490714  0.2848028817262005  0.8919815809556513  1.0000
  C   C39       1.0  0.4835529727166873  0.7265448741763548  0.9535324040553734  1.0000
  C   C40       1.0  0.48878097412324456  0.2712927215504238  0.04673465430969512  1.0000
  C   C41       1.0  0.6299717790241955  0.9382229173100852  0.5075194240664446  1.0000
  C   C42       1.0  0.3804353740206068  0.064056654806592  0.4907865380592754  1.0000
  C   C43       1.0  0.6294934492491465  0.066193424629958  0.5081450990266776  1.0000
  C   C44       1.0  0.38023374880636857  0.9362103649846534  0.49140220341305973  1.0000
  C   C45       1.0  0.5048212434044502  0.1292874183140569  0.49956696278157875  1.0000
  C   C46       1.0  0.5051403102664479  0.8731886317684643  0.49953399414753374  1.0000
  C   C47       1.0  0.9327444972797494  0.42314119252122845  0.4713014126690498  1.0000
  C   C48       1.0  0.08168143104374082  0.5787653032947944  0.5289365867120639  1.0000
  C   C49       1.0  0.9366212321013521  0.5777622518622677  0.5299050118231892  1.0000
  C   C50       1.0  0.07779466629099122  0.4225593111532292  0.4708241850375715  1.0000
  N   N1        1.0  0.47716689318703936  0.5139079440929777  0.7984204159581553  1.0000
  N   N2        1.0  0.47769545199217583  0.4835933276582054  0.2017771949870238  1.0000
  N   N3        1.0  0.150149790459821  0.5007845230728663  0.4995243621760609  1.0000
  N   N4        1.0  0.8641520074168697  0.5004289804137656  0.5009365083137427  1.0000
  N   N5        1.0  0.2815708973806323  0.6335396765177563  0.6435557541584986  1.0000
  N   N6        1.0  0.28679283143478784  0.3611102274720395  0.3560246608448241  1.0000
  N   N7        1.0  0.26363024668165747  0.6364067186013358  0.7446133694087964  1.0000
  N   N8        1.0  0.2674614111736773  0.3570236018056008  0.2547660026021035  1.0000
  N   N9        1.0  0.5127595869264711  0.8526154689721821  0.8847682090058985  1.0000
  N   N10       1.0  0.5209688871112376  0.14592613851986871  0.11568307567306142  1.0000
  N   N11       1.0  0.7080731698272373  0.6033616105341083  0.24984416691744127  1.0000
  N   N12       1.0  0.7089372282150066  0.3986945542784284  0.7512253803317678  1.0000
  O   O1        1.0  0.3886077292278927  0.6832975071844487  0.5071038940683581  1.0000
  O   O2        1.0  0.6189695033766257  0.32180547887782046  0.5097305097741371  1.0000
  O   O3        1.0  0.3889977085150136  0.31911873019452497  0.49052111345557864  1.0000
  O   O4        1.0  0.6209676822250145  0.6816460870044452  0.49259561839113547  1.0000
  O   O5        1.0  0.39610455445711074  0.4840328714811335  0.573177276388755  1.0000
  O   O6        1.0  0.6270053743642022  0.4667692269270346  0.4262674059675789  1.0000
  O   O7        1.0  0.3967343354715851  0.5178677430574368  0.4257087554270172  1.0000
  O   O8        1.0  0.6262638221221692  0.5362226023458163  0.5753764450219097  1.0000
  O   O9        1.0  0.5031130953787796  0.7238374017682931  0.8026301676671255  1.0000
  O   O10       1.0  0.5079998896332257  0.2742603965543964  0.19771057141363005  1.0000
  O   O11       1.0  0.4414775575733714  0.6922401977759947  0.2072747150589294  1.0000
  O   O12       1.0  0.44625025509783706  0.30436859856178705  0.7928355723660587  1.0000
  O   O13       1.0  0.16411044109865708  0.5871909267724219  0.6458866530836505  1.0000
  O   O14       1.0  0.31588455224102324  0.7213827036397404  0.6196178396842741  1.0000
  O   O15       1.0  0.168104539262572  0.4045088155991081  0.35316462745889515  1.0000
  O   O16       1.0  0.32384965263283055  0.274377322252171  0.38022168643339443  1.0000
  O   O17       1.0  0.23297787165576275  0.7392607620126413  0.7304114609753612  1.0000
  O   O18       1.0  0.20498075355299514  0.5804836958942587  0.7763612228397963  1.0000
  O   O19       1.0  0.23934659091722923  0.25358945519651843  0.26888810695543713  1.0000
  O   O20       1.0  0.2071163681207082  0.4115840376747215  0.22274349490750475  1.0000
  O   O21       1.0  0.6345974243361142  0.8864118111733746  0.8800971145219381  1.0000
  O   O22       1.0  0.40667635445538514  0.9144112915103334  0.8784515192739593  1.0000
  O   O23       1.0  0.643508501474365  0.11476579777250606  0.12111624501765314  1.0000
  O   O24       1.0  0.4161598946662722  0.08191429643541431  0.12127220023629805  1.0000
  O   O25       1.0  0.7383095821479628  0.7089718482232074  0.2635207460758765  1.0000
  O   O26       1.0  0.7606732646880374  0.5442827390518589  0.21621517127398707  1.0000
  O   O27       1.0  0.7409343045464213  0.2936726277293361  0.7376748991563178  1.0000
  O   O28       1.0  0.7611289889620069  0.4588571918665991  0.7850041646372008  1.0000
  F   F1        1.0  0.7143338428815724  0.5963642846806964  0.34776376479479154  1.0000
  F   F2        1.0  0.7135643918319944  0.4059576805535698  0.6533987136363636  1.0000
  F   F3        1.0  0.422837456098847  0.8295891739411162  0.04083047533865881  1.0000
  F   F4        1.0  0.4298519786321294  0.1670265856996309  0.9591481449013204  1.0000
