data_image0
_chemical_formula_structural       Cd2H40C50N6Cl2O8
_chemical_formula_sum              "Cd2 H40 C50 N6 Cl2 O8"
_cell_length_a       9.907883803803294
_cell_length_b       10.979586278494503
_cell_length_c       11.657899881554401
_cell_angle_alpha    113.67540604604326
_cell_angle_beta     97.85071417190697
_cell_angle_gamma    92.49415119231102

_space_group_name_H-M_alt    "P 1"
_space_group_IT_number       1

loop_
  _space_group_symop_operation_xyz
  'x, y, z'

loop_
  _atom_site_type_symbol
  _atom_site_label
  _atom_site_symmetry_multiplicity
  _atom_site_fract_x
  _atom_site_fract_y
  _atom_site_fract_z
  _atom_site_occupancy
  Cd  Cd1       1.0  0.11696193008303622  0.5264667045087138  0.3983252754571253  1.0000
  Cd  Cd2       1.0  0.8830440364929829  0.4735462707290879  0.6016847440017585  1.0000
  H   H1        1.0  0.32606768655917756  0.800078213555004  0.2507578943378306  1.0000
  H   H2        1.0  0.6739372653108617  0.19993473991252836  0.7492494239638318  1.0000
  H   H3        1.0  0.3363489538543334  0.9517439180019236  0.14158561737458084  1.0000
  H   H4        1.0  0.6636424738978236  0.04825695266200111  0.8584087444663595  1.0000
  H   H5        1.0  0.16700618661119654  0.12007373716804183  0.166852805362268  1.0000
  H   H6        1.0  0.8329770302461057  0.8799170623774446  0.8331299755564742  1.0000
  H   H7        1.0  0.9987814478342546  0.14297634086796762  0.3145194037707313  1.0000
  H   H8        1.0  0.0012053649276566856  0.8570194931392834  0.6854691071287178  1.0000
  H   H9        1.0  0.9786663546736138  0.28023025573935456  0.1316630988965244  1.0000
  H   H10       1.0  0.0213358240724801  0.7197667420492523  0.8683448130915393  1.0000
  H   H11       1.0  0.9714686855584562  0.2003141159971022  0.8967727121921242  1.0000
  H   H12       1.0  0.028535457090327974  0.7996729043984772  0.10323428920186462  1.0000
  H   H13       1.0  0.11896456818321613  0.3269627657108031  0.8157373679336216  1.0000
  H   H14       1.0  0.881034592314542  0.673025224490182  0.1842668338272801  1.0000
  H   H15       1.0  0.28326048036933565  0.5847727290547341  0.2070200278086247  1.0000
  H   H16       1.0  0.7167407984077556  0.415225221218428  0.7929821281276189  1.0000
  H   H17       1.0  0.3485446116825984  0.48132084901276073  0.8790009845185195  1.0000
  H   H18       1.0  0.6514551020617176  0.5186721038140619  0.12099998368596936  1.0000
  H   H19       1.0  0.24921755461181058  0.6184549315249229  0.9372078709496136  1.0000
  H   H20       1.0  0.7507757237659334  0.3815349809660304  0.06278777512638102  1.0000
  H   H21       1.0  0.4279481542173969  0.6922589548044941  0.8714596653817778  1.0000
  H   H22       1.0  0.5720446163929793  0.3077449321705145  0.1285376936527598  1.0000
  H   H23       1.0  0.5852246632457324  0.8819220288360938  0.8878893303999362  1.0000
  H   H24       1.0  0.4147709439068379  0.11807987706325919  0.11210934091334929  1.0000
  H   H25       1.0  0.7434476482797051  0.018134687472141295  0.09170044879540737  1.0000
  H   H26       1.0  0.2565604549229761  0.9818601987980173  0.9082910769788055  1.0000
  H   H27       1.0  0.7461132884238922  0.9604617192358805  0.2768917778286309  1.0000
  H   H28       1.0  0.2538984540715888  0.0395291809177891  0.7230995503850578  1.0000
  H   H29       1.0  0.6452097470733733  0.9292927739547848  0.4333112914789297  1.0000
  H   H30       1.0  0.3547969655032618  0.0707081361578972  0.566685744839333  1.0000
  H   H31       1.0  0.7783035948247773  0.8258684220099041  0.3809864214645699  1.0000
  H   H32       1.0  0.22169929091339216  0.1741255116564773  0.619011854727681  1.0000
  H   H33       1.0  0.45769297098200923  0.8441079900997653  0.5282865315490354  1.0000
  H   H34       1.0  0.5423056934274442  0.15589392238431543  0.47171250264661774  1.0000
  H   H35       1.0  0.421524771107734  0.7219272044713066  0.6636677363721616  1.0000
  H   H36       1.0  0.5784729801937801  0.2780757192234233  0.3363332823609397  1.0000
  H   H37       1.0  0.5950663487417387  0.5702328097598724  0.6887700214320631  1.0000
  H   H38       1.0  0.40493950747694646  0.4297791716477379  0.3112404727250039  1.0000
  H   H39       1.0  0.8233997076374779  0.6493007643173101  0.4484883224947538  1.0000
  H   H40       1.0  0.176597609534106  0.3506981514310468  0.5515102947037247  1.0000
  C   C1        1.0  0.13810138724867474  0.7701722462465597  0.3829698751027236  1.0000
  C   C2        1.0  0.8619003926275114  0.2298397263814138  0.6170401352111837  1.0000
  C   C3        1.0  0.15806860598959105  0.8834770725337224  0.3434316240462324  1.0000
  C   C4        1.0  0.8419296941788377  0.11653083336219792  0.6565687413268861  1.0000
  C   C5        1.0  0.2557120454484263  0.8764050883047856  0.26539047627281304  1.0000
  C   C6        1.0  0.7442886166638518  0.12360583609712711  0.734613007254694  1.0000
  C   C7        1.0  0.26013729877107045  0.9615625603596668  0.20309242572064784  1.0000
  C   C8        1.0  0.7398563834873572  0.038440321929819304  0.7969038088419181  1.0000
  C   C9        1.0  0.16509156478407763  0.05479961057564252  0.21681552129111736  1.0000
  C   C10       1.0  0.8348951390803806  0.9451952230763041  0.783172604241045  1.0000
  C   C11       1.0  0.0699689065758093  0.06687653643703581  0.2976627474286886  1.0000
  C   C12       1.0  0.930025470995645  0.9331233339311853  0.7023307318618565  1.0000
  C   C13       1.0  0.06942626161802684  0.9851206596328982  0.3642896598161443  1.0000
  C   C14       1.0  0.9305729516583413  0.01488623505238  0.6357087210195259  1.0000
  C   C15       1.0  0.0452594644389848  0.3298476377100741  0.09246971794263459  1.0000
  C   C16       1.0  0.9547463565196708  0.6701453609118104  0.9075362763539658  1.0000
  C   C17       1.0  0.040778894006102503  0.28722606286910946  0.962360510188958  1.0000
  C   C18       1.0  0.9592267062378852  0.7127649480923921  0.037646433504015406  1.0000
  C   C19       1.0  0.12521911486707182  0.35713355707672895  0.9178186448646456  1.0000
  C   C20       1.0  0.8747861601444313  0.6428544462937185  0.08218628266099158  1.0000
  C   C21       1.0  0.2147418929850105  0.46653647346904864  0.005568756067354685  1.0000
  C   C22       1.0  0.7852598560107893  0.5334564967978324  0.9944341741896636  1.0000
  C   C23       1.0  0.21432477712685483  0.5013831907664396  0.13472074166797646  1.0000
  C   C24       1.0  0.7856752647697081  0.49861275660119747  0.8652805225729024  1.0000
  C   C25       1.0  0.3070866129688525  0.5467551248468112  0.9630918000038164  1.0000
  C   C26       1.0  0.6929126305567621  0.4532428079862996  0.03690839387989802  1.0000
  C   C27       1.0  0.49772068482062803  0.718181813266561  0.06411514078714477  1.0000
  C   C28       1.0  0.5022771768382199  0.2818221042583531  0.9358854032477734  1.0000
  C   C29       1.0  0.4976602475108863  0.7502912224355569  0.9600491055123966  1.0000
  C   C30       1.0  0.5023381976437734  0.2497086958630278  0.039950018014160114  1.0000
  C   C31       1.0  0.587117859322234  0.8578842606526184  0.969976178698424  1.0000
  C   C32       1.0  0.41287731662016824  0.1421136242501291  0.03001837094928561  1.0000
  C   C33       1.0  0.6748908921676035  0.933481796893254  0.08336592468976531  1.0000
  C   C34       1.0  0.32511335102760347  0.06651508783301098  0.916626748041345  1.0000
  C   C35       1.0  0.676089550736883  0.9017435997813692  0.18865440149854593  1.0000
  C   C36       1.0  0.3239215008252145  0.09825029271820541  0.8113371017907482  1.0000
  C   C37       1.0  0.5891107990386857  0.7935475633899786  0.1790231917355953  1.0000
  C   C38       1.0  0.4108910315250895  0.2064553560341409  0.8209765907097193  1.0000
  C   C39       1.0  0.670306809494207  0.8251378826681374  0.3937559575160988  1.0000
  C   C40       1.0  0.3296956089450234  0.1748610179542922  0.6062398242244242  1.0000
  C   C41       1.0  0.6446237627370975  0.7573602897972691  0.47875458422872447  1.0000
  C   C42       1.0  0.35537366625170114  0.24263961325616637  0.5212426982060875  1.0000
  C   C43       1.0  0.531556263073327  0.7782853165688126  0.5411580286023607  1.0000
  C   C44       1.0  0.4684410584779002  0.22171357960419166  0.458838008399688  1.0000
  C   C45       1.0  0.510953939315982  0.7099662270975315  0.6166488822471904  1.0000
  C   C46       1.0  0.4890447250934642  0.29003568538655605  0.3833501519484628  1.0000
  C   C47       1.0  0.6058110104651179  0.6246036260270811  0.6294787765288345  1.0000
  C   C48       1.0  0.3941921614969958  0.37540231623324166  0.3705248631755467  1.0000
  C   C49       1.0  0.7335257622680872  0.668463158457044  0.49531176349312733  1.0000
  C   C50       1.0  0.2664717741582834  0.3315377514768231  0.5046867643744477  1.0000
  N   N1        1.0  0.9776823768821431  0.0102072733382101  0.4514853103734424  1.0000
  N   N2        1.0  0.022314793843328563  0.9897996365326093  0.5485154087370744  1.0000
  N   N3        1.0  0.13025090777419024  0.43592926064076226  0.17744727852931422  1.0000
  N   N4        1.0  0.8697471975491741  0.5640677153179611  0.8225584294846514  1.0000
  N   N5        1.0  0.7152412225434192  0.6041652938405093  0.569649092973961  1.0000
  N   N6        1.0  0.2847604962031411  0.3958366382785385  0.4303520242350061  1.0000
  Cl  Cl1       1.0  0.889812977743681  0.3740759507864695  0.35335168675037926  1.0000
  Cl  Cl2       1.0  0.11019389172109582  0.6259360589165298  0.6466623686293715  1.0000
  O   O1        1.0  0.24491619202213855  0.7239046361305695  0.4168302746179009  1.0000
  O   O2        1.0  0.7550835511426754  0.2761073255824655  0.5831786337089467  1.0000
  O   O3        1.0  0.01697515839206431  0.7153385486230732  0.3671640829320992  1.0000
  O   O4        1.0  0.9830303740540176  0.28467041866836235  0.6328435349921547  1.0000
  O   O5        1.0  0.4153422630263677  0.6170451727810259  0.0673321030632295  1.0000
  O   O6        1.0  0.5846562881059825  0.382955758923103  0.9326691259615599  1.0000
  O   O7        1.0  0.5827224109470706  0.7500536712755164  0.2732655210734051  1.0000
  O   O8        1.0  0.41728000311250923  0.2499452489222733  0.7267328408635478  1.0000
