data_image0
_chemical_formula_structural       Al4H28C40O21
_chemical_formula_sum              "Al4 H28 C40 O21"
_cell_length_a       6.994220904898662
_cell_length_b       13.904259266504717
_cell_length_c       15.94424755298885
_cell_angle_alpha    90.54301156364629
_cell_angle_beta     89.89948453080322
_cell_angle_gamma    90.06498579057603

_space_group_name_H-M_alt    "P 1"
_space_group_IT_number       1

loop_
  _space_group_symop_operation_xyz
  'x, y, z'

loop_
  _atom_site_type_symbol
  _atom_site_label
  _atom_site_symmetry_multiplicity
  _atom_site_fract_x
  _atom_site_fract_y
  _atom_site_fract_z
  _atom_site_occupancy
  Al  Al1       1.0  0.9011436742567515  0.4997313923434066  0.5004551396226304  1.0000
  Al  Al2       1.0  0.4014975698604318  0.5023254575146582  0.5004606929906502  1.0000
  Al  Al3       1.0  0.3703532527215856  0.996335052864339  0.9966596500739515  1.0000
  Al  Al4       1.0  0.8696641284000821  0.9945346781169562  0.9979801536176824  1.0000
  H   H1        1.0  0.1789780064167346  0.6730090958748677  0.8856179577765462  1.0000
  H   H2        1.0  0.8846745654979744  0.6245036373361754  0.7690359761337792  1.0000
  H   H3        1.0  0.0876609869979177  0.8228652737218171  0.6116317387409894  1.0000
  H   H4        1.0  0.38021305269955974  0.8710884511843275  0.7292826061623432  1.0000
  H   H5        1.0  0.44768524702843143  0.6686219017295443  0.7512172949912924  1.0000
  H   H6        1.0  0.828009322609205  0.802224740061611  0.19448529582389543  1.0000
  H   H7        1.0  0.8452501567143289  0.6872465954617368  0.31384754167108053  1.0000
  H   H8        1.0  0.5895218221506513  0.6496987696286568  0.2653000710865285  1.0000
  H   H9        1.0  0.5911749379483455  0.7476913216531641  0.3386844495798585  1.0000
  H   H10       1.0  0.5728972520233598  0.7690153941342928  0.1453819283550288  1.0000
  H   H11       1.0  0.5710718057145315  0.8657593922442643  0.2192350997697474  1.0000
  H   H12       1.0  0.9432077630563642  0.30510964277278424  0.6944057955233022  1.0000
  H   H13       1.0  0.9284651314197137  0.1869225468120916  0.8113994424954427  1.0000
  H   H14       1.0  0.18305747270598974  0.24548181514553852  0.8408182460141449  1.0000
  H   H15       1.0  0.18418470737353942  0.1484452586286835  0.7663866517819216  1.0000
  H   H16       1.0  0.19920505753342618  0.3651073338222801  0.7221000446452452  1.0000
  H   H17       1.0  0.1986275999683969  0.2683700397339024  0.6479707086905081  1.0000
  H   H18       1.0  0.9426416401054926  0.3043804247545268  0.3017537613960216  1.0000
  H   H19       1.0  0.9256358228244469  0.18407926165933472  0.18427382776478404  1.0000
  H   H20       1.0  0.18106988088076292  0.1483766709351002  0.23137919275627186  1.0000
  H   H21       1.0  0.18118193680897582  0.24367010892481034  0.15713582524467995  1.0000
  H   H22       1.0  0.1975749448180012  0.27034173286307345  0.3502122501707987  1.0000
  H   H23       1.0  0.1982722877623502  0.3658435138023179  0.27651344106183734  1.0000
  H   H24       1.0  0.690673659027553  0.7965337509985774  0.7173290597474493  1.0000
  H   H25       1.0  0.6550263614954093  0.6277949450066488  0.48918125713228033  1.0000
  H   H26       1.0  0.15416185565005952  0.37311823478101774  0.4995372599907953  1.0000
  H   H27       1.0  0.6201717663611532  0.8824764033691751  0.9532234138007284  1.0000
  H   H28       1.0  0.11823798152082081  0.1207217723956333  0.9794490025197151  1.0000
  C   C1        1.0  0.6483665852149159  0.38740351804496953  0.611377649159863  1.0000
  C   C2        1.0  0.6493234083852926  0.38798262301457953  0.3867515452191412  1.0000
  C   C3        1.0  0.15238975796798124  0.6153397731778868  0.3897653010678894  1.0000
  C   C4        1.0  0.14934267019300768  0.6110727763061734  0.615836798483656  1.0000
  C   C5        1.0  0.9949104136224353  0.6795533923849177  0.760750722352846  1.0000
  C   C6        1.0  0.15924920705668208  0.7047979386228818  0.8237326648013195  1.0000
  C   C7        1.0  0.12228288222964782  0.816177878080346  0.8103261585023633  1.0000
  C   C8        1.0  0.9576648431158435  0.7897313476521788  0.7473027759751647  1.0000
  C   C9        1.0  0.10813624910844061  0.7905840219230812  0.6733296630984216  1.0000
  C   C10       1.0  0.27183233893245534  0.8150287636833867  0.7369255911962329  1.0000
  C   C11       1.0  0.30895904684393843  0.7049522174506109  0.7505023401981461  1.0000
  C   C12       1.0  0.14478509377907767  0.6795164401927141  0.6876275102351812  1.0000
  C   C13       1.0  0.301150716255215  0.7850006602342461  0.21392761677429922  1.0000
  C   C14       1.0  0.1294665354784073  0.8164106970476723  0.18059735711194247  1.0000
  C   C15       1.0  0.9644114430214119  0.7793071940320574  0.21895729261630245  1.0000
  C   C16       1.0  0.9740523167490026  0.7153679907245447  0.2854916397009221  1.0000
  C   C17       1.0  0.14879544923009294  0.6836133320063952  0.3187346695998556  1.0000
  C   C18       1.0  0.31100443779956083  0.7206810838259086  0.28047327236990344  1.0000
  C   C19       1.0  0.5258810553507871  0.7197832140191593  0.2807876714419706  1.0000
  C   C20       1.0  0.5143826634375585  0.793543669175186  0.20582953157595096  1.0000
  C   C21       1.0  0.47065877531235156  0.2857525789446171  0.7154336127545805  1.0000
  C   C22       1.0  0.6414229345393568  0.3185286821728966  0.68185908351893  1.0000
  C   C23       1.0  0.8073044174553062  0.2810564638480244  0.7188394947557128  1.0000
  C   C24       1.0  0.7991506782130458  0.2153997419585139  0.7841420388028981  1.0000
  C   C25       1.0  0.6254069335284742  0.1823978513222571  0.8176526623875164  1.0000
  C   C26       1.0  0.46241737730389343  0.2200721761936535  0.7809718264980463  1.0000
  C   C27       1.0  0.24761657218989097  0.2184707100164758  0.7823817008470899  1.0000
  C   C28       1.0  0.2572603902099999  0.2933501974092181  0.708218332015015  1.0000
  C   C29       1.0  0.4694286468898739  0.28602530603762233  0.2821557251371233  1.0000
  C   C30       1.0  0.6410621541026558  0.31872412656334587  0.3153642058470681  1.0000
  C   C31       1.0  0.8062826622474264  0.2801926506103102  0.277724567442398  1.0000
  C   C32       1.0  0.796957639289538  0.2132642218140433  0.21234270819429213  1.0000
  C   C33       1.0  0.6222172236883384  0.17977954576524985  0.1797564471779509  1.0000
  C   C34       1.0  0.4599464767358229  0.21892846170133856  0.21666596875905242  1.0000
  C   C35       1.0  0.24522776127104612  0.21795824141786824  0.21557021037106955  1.0000
  C   C36       1.0  0.2560101592593825  0.29421145183968633  0.2898909732419456  1.0000
  C   C37       1.0  0.6185601306573929  0.10754712511080561  0.11058445278987962  1.0000
  C   C38       1.0  0.6229546774039181  0.112405716964048  0.8875776841050113  1.0000
  C   C39       1.0  0.12117826244809043  0.8847043779895287  0.8820803458206756  1.0000
  C   C40       1.0  0.12052586309022223  0.8836451026051577  0.10882623884188551  1.0000
  O   O1        1.0  0.4870853781849363  0.41493726251639634  0.41544442247423063  1.0000
  O   O2        1.0  0.8126567412186179  0.4114323531152664  0.583561468427078  1.0000
  O   O3        1.0  0.9861434734533179  0.5845985857358117  0.5882680404466782  1.0000
  O   O4        1.0  0.8141512747627077  0.4131561834142019  0.4135363786440323  1.0000
  O   O5        1.0  0.9903481171006164  0.588517365784412  0.4183634128251086  1.0000
  O   O6        1.0  0.4861999673365249  0.4156155476711163  0.584454154492029  1.0000
  O   O7        1.0  0.6525542754469528  0.5596295794227757  0.5011500578420254  1.0000
  O   O8        1.0  0.316985901699276  0.5901552829534751  0.4164196217657761  1.0000
  O   O9        1.0  0.3136834529321462  0.5885091838897125  0.58684748024956  1.0000
  O   O10       1.0  0.15149128168827275  0.4427589906839416  0.4994844446477417  1.0000
  O   O11       1.0  0.7855514140703053  0.08397423849821453  0.9138011952890397  1.0000
  O   O12       1.0  0.4545770568435686  0.07996207426811004  0.0848908151926437  1.0000
  O   O13       1.0  0.281761926302444  0.908123055637482  0.07808343652448713  1.0000
  O   O14       1.0  0.4580073164773496  0.0883318807159625  0.9151215809733844  1.0000
  O   O15       1.0  0.2858989284799733  0.912669281996557  0.9071733485968851  1.0000
  O   O16       1.0  0.7803762432597597  0.07990929656950387  0.0825843692532899  1.0000
  O   O17       1.0  0.6195597299202478  0.9358699432473898  0.9930353951036894  1.0000
  O   O18       1.0  0.9588149124289561  0.9063061115475224  0.9135264514015662  1.0000
  O   O19       1.0  0.9557089613878561  0.9098644730270496  0.08390292781302121  1.0000
  O   O20       1.0  0.1194611954581362  0.05441691204114111  0.9976276752297154  1.0000
  O   O21       1.0  0.7813563779503243  0.835373378297298  0.7494334219529863  1.0000
