data_image0
_chemical_formula_structural       Zn4H64C72N16
_chemical_formula_sum              "Zn4 H64 C72 N16"
_cell_length_a       14.861712810261793
_cell_length_b       14.888492937416848
_cell_length_c       15.097798851848921
_cell_angle_alpha    108.683951726292
_cell_angle_beta     110.34131514131718
_cell_angle_gamma    108.22149879061556

_space_group_name_H-M_alt    "P 1"
_space_group_IT_number       1

loop_
  _space_group_symop_operation_xyz
  'x, y, z'

loop_
  _atom_site_type_symbol
  _atom_site_label
  _atom_site_symmetry_multiplicity
  _atom_site_fract_x
  _atom_site_fract_y
  _atom_site_fract_z
  _atom_site_occupancy
  Zn  Zn1       1.0  0.6208793280827225  0.11849847885883241  0.9949683738751958  1.0000
  Zn  Zn2       1.0  0.36716178071351646  0.8677927627848804  0.007098575010701302  1.0000
  Zn  Zn3       1.0  0.6350207551760506  0.0018698350102681867  0.1437350790630347  1.0000
  Zn  Zn4       1.0  0.3547766682932405  0.9986280437609951  0.8724794189031899  1.0000
  H   H1        1.0  0.6424696788139812  0.9686197883676401  0.8114089707189934  1.0000
  H   H2        1.0  0.10965708273636936  0.7867840744504664  0.9726838396236702  1.0000
  H   H3        1.0  0.62375604612226  0.3778762386028235  0.7801436342936513  1.0000
  H   H4        1.0  0.34410708655981653  0.8463338045054913  0.2865254433607376  1.0000
  H   H5        1.0  0.7516648716750327  0.17775953183105753  0.655083107822108  1.0000
  H   H6        1.0  0.1860738967671197  0.044116650171147964  0.30223656438730023  1.0000
  H   H7        1.0  0.9210225702436932  0.2792320107864299  0.8344078863543913  1.0000
  H   H8        1.0  0.011916858083829125  0.8864938371261389  0.14318283782869665  1.0000
  H   H9        1.0  0.6368441332083137  0.24265906901241152  0.5094350165778608  1.0000
  H   H10       1.0  0.31346514403743003  0.0016207927281684693  0.4985632558445872  1.0000
  H   H11       1.0  0.9027612359772023  0.42884353097434064  0.4386551518979474  1.0000
  H   H12       1.0  0.2893449180047939  0.5604298945869318  0.5331802606869759  1.0000
  H   H13       1.0  0.3307254883390273  0.3555413568665459  0.0801938662972148  1.0000
  H   H14       1.0  0.6859719355356262  0.6815543197456223  0.2516375908752693  1.0000
  H   H15       1.0  0.33489734631618273  0.5262651955036476  0.09965460268007581  1.0000
  H   H16       1.0  0.6820936939547266  0.5113825531238163  0.23493141000187734  1.0000
  H   H17       1.0  0.7592196001245171  0.728204079500344  0.9199021125533023  1.0000
  H   H18       1.0  0.9310341018822684  0.9369026688768328  0.7720570825895835  1.0000
  H   H19       1.0  0.291387781160907  0.6350890535463307  0.8178803266209513  1.0000
  H   H20       1.0  0.8734401182884923  0.33343376954055515  0.15117397796117163  1.0000
  H   H21       1.0  0.9190652440970911  0.7235099894433222  0.9095386444137078  1.0000
  H   H22       1.0  0.7711117990243326  0.94014986436509  0.7804415880189526  1.0000
  H   H23       1.0  0.686785777827055  0.8385001521886012  0.24406452819371793  1.0000
  H   H24       1.0  0.32211440640649874  0.18790388343603584  0.0106840605929648  1.0000
  H   H25       1.0  0.3067428678077349  0.04493126400472384  0.6577045570547781  1.0000
  H   H26       1.0  0.660348156571516  0.15715078986073655  0.3660226916146102  1.0000
  H   H27       1.0  0.33435493927984783  0.6597072628612963  0.05207893784664461  1.0000
  H   H28       1.0  0.6762493311181357  0.3429895512332308  0.17658734129579298  1.0000
  H   H29       1.0  0.6586138206638953  0.17987158217696494  0.816953741977045  1.0000
  H   H30       1.0  0.3085680034745266  0.9965850053158222  0.16284561312951243  1.0000
  H   H31       1.0  0.29493892109947256  0.8206694802433464  0.6482657509960108  1.0000
  H   H32       1.0  0.8789990063372958  0.18532992821417343  0.3554649754829954  1.0000
  H   H33       1.0  0.6773754284055685  0.8154500878273016  0.0130449835050683  1.0000
  H   H34       1.0  0.09386802675758345  0.949427975423511  0.7805011724085704  1.0000
  H   H35       1.0  0.9400926734168852  0.4276532890363074  0.9865158952314987  1.0000
  H   H36       1.0  0.0032723038650033136  0.7092533572327825  0.060692866446885325  1.0000
  H   H37       1.0  0.9287970777721385  0.6734650863622208  0.2021448335671324  1.0000
  H   H38       1.0  0.7888830978005859  0.623502340867468  0.16644924338631034  1.0000
  H   H39       1.0  0.8756224933857766  0.5972397857119348  0.2583031358134917  1.0000
  H   H40       1.0  0.7584503258897968  0.43152131172556807  0.0763257207878567  1.0000
  H   H41       1.0  0.8971362379284501  0.48451983889268774  0.1109655731872081  1.0000
  H   H42       1.0  0.8619790851762233  0.5843190659322703  0.0032747315266447997  1.0000
  H   H43       1.0  0.7221531809308603  0.5148714392668483  0.959773642618835  1.0000
  H   H44       1.0  0.20934429185040684  0.511637547895255  0.9670408541360233  1.0000
  H   H45       1.0  0.09106674671019026  0.4451082322880141  0.9716935712701158  1.0000
  H   H46       1.0  0.07887172814302808  0.45933291854795755  0.8564963510529466  1.0000
  H   H47       1.0  0.04148931598484049  0.5938016206163825  0.9526857563476272  1.0000
  H   H48       1.0  0.1740676876599636  0.6655106539172522  0.9776377977139248  1.0000
  H   H49       1.0  0.2497090429815145  0.6643302324588376  0.15768094019053086  1.0000
  H   H50       1.0  0.11457112927654121  0.5983849585007093  0.130297700424002  1.0000
  H   H51       1.0  0.8427632517304746  0.4398232684252933  0.5931717406615464  1.0000
  H   H52       1.0  0.9352212366545489  0.3875127150263824  0.5945318866711206  1.0000
  H   H53       1.0  0.9063367279085458  0.4184928725603998  0.7020264459609964  1.0000
  H   H54       1.0  0.08992775433198842  0.5639077503435176  0.7569654310001824  1.0000
  H   H55       1.0  0.9978356540771646  0.6142330793378009  0.7601748277106353  1.0000
  H   H56       1.0  0.09354729713950861  0.6929968983735294  0.6834380870462624  1.0000
  H   H57       1.0  0.9559300588571278  0.6034007342279467  0.5815938046292999  1.0000
  H   H58       1.0  0.27136437453808787  0.28053737580714977  0.2717263428587415  1.0000
  H   H59       1.0  0.22513164166171157  0.3351731416522838  0.1876495972040928  1.0000
  H   H60       1.0  0.36608227295683804  0.3970612723035672  0.28225304812568913  1.0000
  H   H61       1.0  0.28385240762396796  0.5051877673002069  0.3530670991208994  1.0000
  H   H62       1.0  0.32693313892013987  0.4483757849580955  0.434752243823084  1.0000
  H   H63       1.0  0.13447515000977722  0.29576666851213673  0.3352036377327678  1.0000
  H   H64       1.0  0.09213834060364691  0.3504306663991771  0.2525464655315446  1.0000
  C   C1        1.0  0.6434453873190478  0.9387758752482399  0.8684338477456139  1.0000
  C   C2        1.0  0.12258548044854943  0.8285243772084032  0.9275292731808025  1.0000
  C   C3        1.0  0.2632633276927266  0.6847186620615915  0.6885254106767108  1.0000
  C   C4        1.0  0.9204208272450104  0.30019243177412147  0.29149156102886314  1.0000
  C   C5        1.0  0.5106067762369123  0.7102426167728028  0.1594323585212862  1.0000
  C   C6        1.0  0.5013917471365801  0.3122340804935674  0.11645864495705643  1.0000
  C   C7        1.0  0.4827470344820102  0.12108936984667205  0.6974398217192146  1.0000
  C   C8        1.0  0.47927726345469784  0.09138929810894338  0.3072621702265651  1.0000
  C   C9        1.0  0.7845215418247093  0.4157075975104548  0.8933391168176925  1.0000
  C   C10       1.0  0.17316439283350607  0.7644980492456313  0.16729242385346055  1.0000
  C   C11       1.0  0.6901707741108398  0.3578256228997463  0.791900558186015  1.0000
  C   C12       1.0  0.2705182364054579  0.8543544685556625  0.2551864718765984  1.0000
  C   C13       1.0  0.6768554345045673  0.27144403598954636  0.7060307134804094  1.0000
  C   C14       1.0  0.2760093218458267  0.9549334856931042  0.3050645802917274  1.0000
  C   C15       1.0  0.762051396396629  0.24543473380260394  0.7213913618873704  1.0000
  C   C16       1.0  0.18224310037705757  0.9660801639659695  0.2643700717798367  1.0000
  C   C17       1.0  0.8562007969651618  0.30164630879775706  0.8222295284977862  1.0000
  C   C18       1.0  0.08470284067688993  0.8776237736614193  0.17590236321563427  1.0000
  C   C19       1.0  0.8667237613222627  0.385205913486658  0.9076483551414614  1.0000
  C   C20       1.0  0.08031101489819292  0.7779250261040078  0.1287774597512055  1.0000
  C   C21       1.0  0.5647396853862078  0.18928198091904153  0.5063843770472547  1.0000
  C   C22       1.0  0.3843009375004416  0.057693246733876505  0.5020780442958213  1.0000
  C   C23       1.0  0.3027388659096745  0.6966752212735372  0.7928534379205703  1.0000
  C   C24       1.0  0.8588147103795054  0.2812551028555605  0.18670087287890885  1.0000
  C   C25       1.0  0.4716955136379185  0.1116746024615339  0.40522935534341553  1.0000
  C   C26       1.0  0.47956131385095807  0.12959912822322656  0.6024986362654162  1.0000
  C   C27       1.0  0.3786007145323398  0.04586079268511878  0.40448032382871457  1.0000
  C   C28       1.0  0.5711753472911668  0.19866960086807958  0.6036612224310576  1.0000
  C   C29       1.0  0.06804351824560237  0.5500529663700107  0.5596050528593253  1.0000
  C   C30       1.0  0.12361599377485541  0.4366871224779629  0.41301037167315263  1.0000
  C   C31       1.0  0.9886736143599253  0.45766619822899923  0.46107437945498486  1.0000
  C   C32       1.0  0.20362828064618554  0.5297924482576307  0.5114782144450986  1.0000
  C   C33       1.0  0.013824179717090625  0.39997559848549713  0.3886154396543162  1.0000
  C   C34       1.0  0.17834782503783245  0.5859432864546008  0.5852942569288262  1.0000
  C   C35       1.0  0.4093569570162928  0.4267581364542183  0.11818470426231192  1.0000
  C   C36       1.0  0.6073390967467986  0.6103555176290955  0.21422078940031505  1.0000
  C   C37       1.0  0.4117240091356749  0.523677531429442  0.1286008440724729  1.0000
  C   C38       1.0  0.6050808373000649  0.5135773272467362  0.2047373081631179  1.0000
  C   C39       1.0  0.5103228474680253  0.6164315588483477  0.17086527140212132  1.0000
  C   C40       1.0  0.5056223894515028  0.4177370969591649  0.15070663503935583  1.0000
  C   C41       1.0  0.7966145529695867  0.7745532364751144  0.8874014586392038  1.0000
  C   C42       1.0  0.8935058296024965  0.8899704824541604  0.8039871353559391  1.0000
  C   C43       1.0  0.8876605265026714  0.7723881668350006  0.8820981239209119  1.0000
  C   C44       1.0  0.8023818587230807  0.8915850576962613  0.8085708140778609  1.0000
  C   C45       1.0  0.599880916633424  0.8083835237770602  0.1943482677612991  1.0000
  C   C46       1.0  0.4082031392778803  0.2102570529012198  0.04386233404905941  1.0000
  C   C47       1.0  0.9427496083489333  0.8357733550424771  0.8468850557550881  1.0000
  C   C48       1.0  0.7558514931913652  0.8397961353992971  0.856989962875332  1.0000
  C   C49       1.0  0.39302338184840824  0.07511931246496319  0.7104885497376471  1.0000
  C   C50       1.0  0.5759040195430885  0.1128147704024585  0.3013708938049078  1.0000
  C   C51       1.0  0.4204059888778603  0.717815885503029  0.0972458801328742  1.0000
  C   C52       1.0  0.5886679844370803  0.28941870487926025  0.128574521442296  1.0000
  C   C53       1.0  0.5723569147907953  0.14498873865376546  0.7916404977537044  1.0000
  C   C54       1.0  0.3963722055524387  0.030107478484232807  0.19837329570934514  1.0000
  C   C55       1.0  0.30496530428283114  0.7912821017177408  0.7064087997008954  1.0000
  C   C56       1.0  0.8609111603489483  0.20555444216126528  0.2905003966354514  1.0000
  C   C57       1.0  0.6606554165760631  0.8603121597168484  0.970827460681072  1.0000
  C   C58       1.0  0.11472778303630812  0.9126919839196078  0.8308310619867357  1.0000
  C   C59       1.0  0.6828764969276407  0.8691582713981775  0.8896294611551954  1.0000
  C   C60       1.0  0.05113817606013529  0.854007694312159  0.863438074909439  1.0000
  C   C61       1.0  0.7976740717978076  0.5081913946157287  0.9853687282817064  1.0000
  C   C62       1.0  0.8274752290525457  0.5010472778372377  0.09017712273816163  1.0000
  C   C63       1.0  0.8567691940278338  0.6045066913256606  0.18456333588237334  1.0000
  C   C64       1.0  0.16794355036599745  0.6560346501856459  0.11614668127929663  1.0000
  C   C65       1.0  0.12541969816493306  0.6069448526698052  0.9941725277339446  1.0000
  C   C66       1.0  0.12642409198016957  0.5003381396906194  0.944869917933069  1.0000
  C   C67       1.0  0.03271356357383586  0.6072107825963258  0.6322655863871561  1.0000
  C   C68       1.0  0.013680937081289788  0.5602683311562231  0.705485100939171  1.0000
  C   C69       1.0  0.9196943268376006  0.4452200819963963  0.645621735746744  1.0000
  C   C70       1.0  0.15102028720898633  0.3735356065705063  0.3351551619235807  1.0000
  C   C71       1.0  0.26678220676613057  0.42800304469980693  0.3540283728512819  1.0000
  C   C72       1.0  0.2835176041687149  0.35648185245524644  0.269568773940442  1.0000
  N   N1        1.0  0.6046975226873671  0.9707300805192676  0.9342109282163236  1.0000
  N   N2        1.0  0.21973173900989468  0.8680357286156382  0.9321031009129614  1.0000
  N   N3        1.0  0.36174479284190414  0.8026160020359401  0.8665785871829359  1.0000
  N   N4        1.0  0.7692416266697819  0.18313536575875133  0.1282829409142607  1.0000
  N   N5        1.0  0.565004013328668  0.8683854083911485  0.1561115884236486  1.0000
  N   N6        1.0  0.4386508216136492  0.13461227504962645  0.014082037841269802  1.0000
  N   N7        1.0  0.42660494971353574  0.0725370002806046  0.8042650787681256  1.0000
  N   N8        1.0  0.5513812649627212  0.06504333650799775  0.19790072681806953  1.0000
  N   N9        1.0  0.4530586456920106  0.811957818199538  0.09549364342286282  1.0000
  N   N10       1.0  0.5495264180488492  0.18315517227748762  0.0662702793191556  1.0000
  N   N11       1.0  0.5381975372302962  0.11604507709456881  0.8544228448604373  1.0000
  N   N12       1.0  0.4408357816527513  0.01394370740341341  0.1344001796003411  1.0000
  N   N13       1.0  0.362670579541252  0.8609581032849578  0.8133652434661229  1.0000
  N   N14       1.0  0.7709937969325509  0.1359636276351566  0.1930509475524289  1.0000
  N   N15       1.0  0.6150227853944588  0.9225832287867421  0.9971251612464587  1.0000
  N   N16       1.0  0.2148994832311858  0.9207649010302035  0.8719905958894003  1.0000
