data_image0
_chemical_formula_structural       Cu4H32C24I4N8
_chemical_formula_sum              "Cu4 H32 C24 I4 N8"
_cell_length_a       7.597326629400135
_cell_length_b       7.690209933206996
_cell_length_c       14.226615080159188
_cell_angle_alpha    90.00035065830498
_cell_angle_beta     89.99830651262954
_cell_angle_gamma    75.83040526770853

_space_group_name_H-M_alt    "P 1"
_space_group_IT_number       1

loop_
  _space_group_symop_operation_xyz
  'x, y, z'

loop_
  _atom_site_type_symbol
  _atom_site_label
  _atom_site_symmetry_multiplicity
  _atom_site_fract_x
  _atom_site_fract_y
  _atom_site_fract_z
  _atom_site_occupancy
  Cu  Cu1       1.0  0.17103528039206134  0.9406394347586442  0.9790506718624743  1.0000
  Cu  Cu2       1.0  0.3289559625077487  0.5593547104124069  0.4790668419538449  1.0000
  Cu  Cu3       1.0  0.8292015451489333  0.059073166311847565  0.020918402811602704  1.0000
  Cu  Cu4       1.0  0.6708173394875131  0.4409219695511623  0.5209232986602788  1.0000
  H   H1        1.0  0.7634971952097301  0.4363854192944244  0.952605907285282  1.0000
  H   H2        1.0  0.7365269594061629  0.06358517788046211  0.4526084237214647  1.0000
  H   H3        1.0  0.23681793160272943  0.5632350409537992  0.04741237439940701  1.0000
  H   H4        1.0  0.26317849813882077  0.9367392192464905  0.5474077229129577  1.0000
  H   H5        1.0  0.5220476809236487  0.6456156912250393  0.8626256523098591  1.0000
  H   H6        1.0  0.9779724992466892  0.854339576401813  0.36262661989549383  1.0000
  H   H7        1.0  0.47819514552518416  0.35415543765668633  0.137439718101902  1.0000
  H   H8        1.0  0.02180551707377989  0.1458866997499513  0.637432407889783  1.0000
  H   H9        1.0  0.25837026633346477  0.5359840536362769  0.7987151067720151  1.0000
  H   H10       1.0  0.24163650102209286  0.9639710269087514  0.2987206867816355  1.0000
  H   H11       1.0  0.7417911920676658  0.4637915037087197  0.20134674955682647  1.0000
  H   H12       1.0  0.758194065350871  0.03626692311275546  0.7013299051694872  1.0000
  H   H13       1.0  0.5112207730012485  0.020009999438535393  0.9189275873522079  1.0000
  H   H14       1.0  0.9888029642207811  0.4799844591279907  0.4189334052815569  1.0000
  H   H15       1.0  0.48898327708479156  0.979772976435754  0.08098736055598013  1.0000
  H   H16       1.0  0.01100329535064759  0.5202296917502096  0.5809990993938856  1.0000
  H   H17       1.0  0.08064028630960958  0.28025259720735807  0.8518480298364326  1.0000
  H   H18       1.0  0.4193574296518746  0.21974844036058983  0.3518365733211582  1.0000
  H   H19       1.0  0.919578298061367  0.7195486111622316  0.14817235333063652  1.0000
  H   H20       1.0  0.5804303839995483  0.7804741925071853  0.6481795771655358  1.0000
  H   H21       1.0  0.19660425401985998  0.22673480825043407  0.7420215200970264  1.0000
  H   H22       1.0  0.3034163687294508  0.27322322559160034  0.24202194058304374  1.0000
  H   H23       1.0  0.8035079568881044  0.7730970556510429  0.2580136236298856  1.0000
  H   H24       1.0  0.696460740922923  0.72696788520566  0.7580054571113592  1.0000
  H   H25       1.0  0.11699939267774784  0.9703220751465697  0.8069301388775827  1.0000
  H   H26       1.0  0.3830028794501032  0.5296586493553619  0.3069361255988384  1.0000
  H   H27       1.0  0.8831721721567333  0.029483964044437965  0.1930529903341736  1.0000
  H   H28       1.0  0.6167780236604088  0.4705660040407407  0.6930547201695135  1.0000
  H   H29       1.0  0.3374367211251865  0.9341660510712869  0.811381489120464  1.0000
  H   H30       1.0  0.16255383494500816  0.5657924553242708  0.31139272817693353  1.0000
  H   H31       1.0  0.6627391538832156  0.0656014360128339  0.1885805545296364  1.0000
  H   H32       1.0  0.837256193999039  0.4344502240406528  0.6885917903872071  1.0000
  C   C1        1.0  0.5061090015796096  0.16037623472317358  0.9044541529762571  1.0000
  C   C2        1.0  0.9939148895091136  0.33961713973969404  0.4044624984421574  1.0000
  C   C3        1.0  0.4941312076261895  0.8393675525929398  0.09550999993232523  1.0000
  C   C4        1.0  0.005861337224963781  0.6606395269118721  0.5955107732466092  1.0000
  C   C5        1.0  0.36306619570321885  0.268280531076556  0.8543289650921297  1.0000
  C   C6        1.0  0.1369456340110418  0.23168575316018555  0.3543343361072147  1.0000
  C   C7        1.0  0.6371491590232451  0.7315065549445805  0.14568579546401852  1.0000
  C   C8        1.0  0.8628218530790688  0.76853108730397  0.6456832206152754  1.0000
  C   C9        1.0  0.36843391881536286  0.4464602816067256  0.837092747417188  1.0000
  C   C10       1.0  0.1315861548122612  0.05349655848897331  0.3370922190226011  1.0000
  C   C11       1.0  0.631806828854472  0.5532979150194705  0.1629353694664033  1.0000
  C   C12       1.0  0.8681667077861729  0.946738866497597  0.6629161991904126  1.0000
  C   C13       1.0  0.5138923480901312  0.507178416014824  0.8716853110021747  1.0000
  C   C14       1.0  0.9861338516638936  0.9927662291014843  0.3716865213194114  1.0000
  C   C15       1.0  0.48635030811968233  0.4925848373333325  0.1283266387602708  1.0000
  C   C16       1.0  0.013625555374055399  0.007460636251572301  0.6283071361549164  1.0000
  C   C17       1.0  0.6499820676694696  0.39128849269493327  0.92263120235058  1.0000
  C   C18       1.0  0.8500440397334398  0.1086964917390532  0.4226328166247343  1.0000
  C   C19       1.0  0.35028986193356093  0.6084283826913861  0.0773491183785495  1.0000
  C   C20       1.0  0.14970544914960726  0.8915892060754798  0.5773467801621379  1.0000
  C   C21       1.0  0.20581120255553026  0.2011547896642085  0.8185502718173581  1.0000
  C   C22       1.0  0.2941832629613613  0.2988258588712966  0.3185492732806807  1.0000
  C   C23       1.0  0.7943325572971388  0.7986422898188507  0.1814644888701125  1.0000
  C   C24       1.0  0.7056601979956979  0.7013963043785126  0.6814633622408195  1.0000
  I   I1        1.0  0.9249176097169849  0.7572492738740378  0.9246884530503794  1.0000
  I   I2        1.0  0.5750934674341862  0.7427205326023908  0.4246917294136097  1.0000
  I   I3        1.0  0.07532373833184638  0.24241424966320582  0.07530663135603531  1.0000
  I   I4        1.0  0.42467821248332166  0.2575944202456739  0.5753040327793144  1.0000
  N   N1        1.0  0.6468692702300557  0.21952139116977074  0.9392963563250802  1.0000
  N   N2        1.0  0.8531421944045191  0.2804537887326219  0.4393051788027123  1.0000
  N   N3        1.0  0.35340096958834977  0.7801798859553842  0.06065795751730011  1.0000
  N   N4        1.0  0.14661518149981834  0.7198232135165197  0.5606723095828273  1.0000
  N   N5        1.0  0.22012138952543125  0.010652479874693196  0.8400247097715765  1.0000
  N   N6        1.0  0.2798792163253764  0.48932708884456133  0.34003164545563896  1.0000
  N   N7        1.0  0.7800553755993602  0.9891451395477443  0.15995279650871205  1.0000
  N   N8        1.0  0.7199272341027407  0.510885738165669  0.6599570919085098  1.0000
