data_image0
_chemical_formula_structural       Cu9H42C27N18O12
_chemical_formula_sum              "Cu9 H42 C27 N18 O12"
_cell_length_a       10.754289296106167
_cell_length_b       14.53238851372011
_cell_length_c       14.528182476866858
_cell_angle_alpha    114.12554819339283
_cell_angle_beta     104.26032506762127
_cell_angle_gamma    104.27832071690418

_space_group_name_H-M_alt    "P 1"
_space_group_IT_number       1

loop_
  _space_group_symop_operation_xyz
  'x, y, z'

loop_
  _atom_site_type_symbol
  _atom_site_label
  _atom_site_symmetry_multiplicity
  _atom_site_fract_x
  _atom_site_fract_y
  _atom_site_fract_z
  _atom_site_occupancy
  Cu  Cu1       1.0  0.5456954391732368  0.1111794030606319  0.5101206497853144  1.0000
  Cu  Cu2       1.0  0.43466467928371333  0.39915794641120067  0.8890351402020685  1.0000
  Cu  Cu3       1.0  0.03559384500813678  0.4898022774547854  0.600906226395317  1.0000
  Cu  Cu4       1.0  0.03552938623159457  0.6000424857235558  0.48943221299861517  1.0000
  Cu  Cu5       1.0  0.5464208394207333  0.5107263427992096  0.11101626699532124  1.0000
  Cu  Cu6       1.0  0.43519244838466864  0.889206450109512  0.3997814665138577  1.0000
  Cu  Cu7       1.0  0.7364073264236239  0.0002939797091912  0.39645740506566096  1.0000
  Cu  Cu8       1.0  0.7363056324137246  0.3962722963211717  0.9996617321447945  1.0000
  Cu  Cu9       1.0  0.3401509338617926  0.6036047632328305  0.6039237900047214  1.0000
  H   H1        1.0  0.023060126925152205  0.1468236618499361  0.4270297661245692  1.0000
  H   H2        1.0  0.12462538477489457  0.2914321335073069  0.5092724638163234  1.0000
  H   H3        1.0  0.006943303457610696  0.2377166834596736  0.3748171691318164  1.0000
  H   H4        1.0  0.6182323103404245  0.36216764884248687  0.5945265034261952  1.0000
  H   H5        1.0  0.7517388295290246  0.46316981289197673  0.5927892153790425  1.0000
  H   H6        1.0  0.7830558871406551  0.44060360803617016  0.7065388396167692  1.0000
  H   H7        1.0  0.87612820575751  0.2802990744900526  0.8526877234253833  1.0000
  H   H8        1.0  0.8329725961744787  0.21807408580214369  0.7080069073505658  1.0000
  H   H9        1.0  0.7688509334403548  0.1372940167997001  0.7616671764799607  1.0000
  H   H10       1.0  0.25602508228682547  0.2327101254772046  0.638085423352351  1.0000
  H   H11       1.0  0.28845676793571323  0.1298886250503415  0.5370353763693319  1.0000
  H   H12       1.0  0.3420911510276099  0.2660764481918818  0.5592797076452315  1.0000
  H   H13       1.0  0.5958727970345166  0.5727768555858788  0.7200012920002836  1.0000
  H   H14       1.0  0.6149069242803477  0.49018396364918  0.7820176945599899  1.0000
  H   H15       1.0  0.6316064711192695  0.624545401059237  0.8630217758109995  1.0000
  H   H16       1.0  0.02347253359258861  0.40570289904473356  0.7677469130501751  1.0000
  H   H17       1.0  0.1585568912410196  0.4074146433220847  0.8705420836257575  1.0000
  H   H18       1.0  0.076053359705412  0.2935270628559437  0.7343372836131012  1.0000
  H   H19       1.0  0.5963005875405188  0.7199635549551289  0.5738263329193887  1.0000
  H   H20       1.0  0.6151220566669552  0.7814141024718853  0.49070705530017744  1.0000
  H   H21       1.0  0.632526740835054  0.863015696067677  0.6252097434282078  1.0000
  H   H22       1.0  0.02377998929267007  0.7672310103378946  0.40620491361409  1.0000
  H   H23       1.0  0.1587956655461226  0.8705212983784136  0.4083834075117494  1.0000
  H   H24       1.0  0.07701518719609622  0.7344501383562305  0.29433076822812165  1.0000
  H   H25       1.0  0.02241777887918058  0.4258717282148154  0.1457026783574379  1.0000
  H   H26       1.0  0.12436371991063308  0.5086266239000423  0.2902499951698091  1.0000
  H   H27       1.0  0.007203512290480713  0.37411906080181007  0.23712178711257081  1.0000
  H   H28       1.0  0.6179342996852596  0.5935660344595632  0.36131564254811366  1.0000
  H   H29       1.0  0.7507133642269608  0.5910532772958704  0.46224036748593295  1.0000
  H   H30       1.0  0.7830584154889666  0.7052493120154466  0.44042398650643133  1.0000
  H   H31       1.0  0.876709254840826  0.85416488420762  0.28031506950364365  1.0000
  H   H32       1.0  0.8341164185165866  0.7096318784492299  0.21861972448136413  1.0000
  H   H33       1.0  0.7699608815483002  0.7627159741369028  0.1372407664015399  1.0000
  H   H34       1.0  0.25670594859267476  0.6387683157637697  0.2325248822763158  1.0000
  H   H35       1.0  0.2888464476804486  0.5379095673798632  0.12923025193231305  1.0000
  H   H36       1.0  0.342785951771205  0.5597250735720962  0.26524504608421046  1.0000
  H   H37       1.0  0.4871033788659248  0.9997033453242355  0.3053889688902702  1.0000
  H   H38       1.0  0.034049910460140616  0.9997291571211095  0.5911456362797909  1.0000
  H   H39       1.0  0.487763536758365  0.30592452447748997  0.0005193159515783799  1.0000
  H   H40       1.0  0.03426160074310755  0.5912391879654351  0.9997234080980137  1.0000
  H   H41       1.0  0.18152234704970024  0.6943914245014042  0.6942115687481731  1.0000
  H   H42       1.0  0.4448312324102872  0.4094880969300618  0.4097023410869412  1.0000
  C   C1        1.0  0.9114127281091909  0.24287021311832996  0.48850813054590264  1.0000
  C   C2        1.0  0.022474908869739383  0.2280802009511902  0.4475298213158468  1.0000
  C   C3        1.0  0.7827723146913853  0.3169699533195853  0.560738092290606  1.0000
  C   C4        1.0  0.7303821887008367  0.4001934796001122  0.6167989282465597  1.0000
  C   C5        1.0  0.668489954248969  0.24601800062011858  0.7568537082626322  1.0000
  C   C6        1.0  0.7942022985988757  0.21969064929919566  0.7714487260000099  1.0000
  C   C7        1.0  0.4658090702746733  0.2441927289807708  0.6830230567792698  1.0000
  C   C8        1.0  0.3300964128864834  0.2169278863305237  0.5999101785531594  1.0000
  C   C9        1.0  0.42256450399190726  0.5111324712273699  0.754282052762811  1.0000
  C   C10       1.0  0.5745756249002979  0.5520456309046935  0.7805750260338159  1.0000
  C   C11       1.0  0.221694456561238  0.4390664761429619  0.7561667525377943  1.0000
  C   C12       1.0  0.11323758436380152  0.38327219494550485  0.7835147105831979  1.0000
  C   C13       1.0  0.423087595617254  0.7544030465501593  0.5121827491942172  1.0000
  C   C14       1.0  0.5750491921145124  0.7804474157381943  0.5528882819494569  1.0000
  C   C15       1.0  0.2223254821306424  0.7562415345280014  0.4399925230778976  1.0000
  C   C16       1.0  0.11380007137375968  0.7834414277883041  0.38409350689978794  1.0000
  C   C17       1.0  0.9110008628721715  0.48742473435707717  0.24204013983720776  1.0000
  C   C18       1.0  0.022150181728477446  0.4466151525248208  0.2271261875622343  1.0000
  C   C19       1.0  0.7825601876338409  0.5596625738837702  0.3163068481750884  1.0000
  C   C20       1.0  0.730008477972035  0.6155162660547759  0.3995181878840982  1.0000
  C   C21       1.0  0.6690768826545721  0.7579605750363071  0.2457746928276451  1.0000
  C   C22       1.0  0.7950486192907746  0.7727838991695747  0.21975791708718628  1.0000
  C   C23       1.0  0.46633506550814025  0.6837909731406883  0.24373310676821094  1.0000
  C   C24       1.0  0.3306206735749057  0.6005755069698749  0.21635599082644325  1.0000
  C   C25       1.0  0.933791198421268  0.9999413024096742  0.5462824669626587  1.0000
  C   C26       1.0  0.9338838797248954  0.5462784636025759  0.9997571271967944  1.0000
  C   C27       1.0  0.3889309195688141  0.4541921156578964  0.4544073476771544  1.0000
  N   N1        1.0  0.7998646838026391  0.16175142743577448  0.4702004377938352  1.0000
  N   N2        1.0  0.7187221948340723  0.2088749361626867  0.5164356455977741  1.0000
  N   N3        1.0  0.9038937484612363  0.3408725014332603  0.5456123894144727  1.0000
  N   N4        1.0  0.6382591274314392  0.3089269450090626  0.8381267168866418  1.0000
  N   N5        1.0  0.5099921613124961  0.30803691436720726  0.7911564223609205  1.0000
  N   N6        1.0  0.5628767194032136  0.2050907704138183  0.6589213176728849  1.0000
  N   N7        1.0  0.3294162788592346  0.5294108876878242  0.691340884576846  1.0000
  N   N8        1.0  0.20203038176396856  0.48325772951952933  0.6922365849877893  1.0000
  N   N9        1.0  0.35784424789150654  0.45413571026903554  0.7952524521175807  1.0000
  N   N10       1.0  0.32986225101095806  0.6913811081449381  0.5303741155324033  1.0000
  N   N11       1.0  0.20240137904044528  0.6922127022852891  0.4840599816479029  1.0000
  N   N12       1.0  0.35855679835140114  0.7954356504431532  0.45521947916275723  1.0000
  N   N13       1.0  0.7996012900179678  0.4694023621342395  0.1609622688246333  1.0000
  N   N14       1.0  0.7185386055244579  0.5157470086010393  0.2082349675086236  1.0000
  N   N15       1.0  0.9035367741573522  0.5443156667866447  0.34012570472124537  1.0000
  N   N16       1.0  0.638600764332935  0.8390611855074328  0.30867575960449073  1.0000
  N   N17       1.0  0.5102156149036291  0.7918390169541071  0.3077030557636108  1.0000
  N   N18       1.0  0.5635979746604464  0.659929174736341  0.20469864133037427  1.0000
  O   O1        1.0  0.544147829729731  0.0007909520961960002  0.3698527716924645  1.0000
  O   O2        1.0  0.380546028085476  0.00026355208132140004  0.47394431590444713  1.0000
  O   O3        1.0  0.9267108549361041  0.0003726455838802001  0.4562140446600013  1.0000
  O   O4        1.0  0.8412059948199158  0.999744319513653  0.5837233674252789  1.0000
  O   O5        1.0  0.543663044774739  0.3692248145127408  0.9993065620615413  1.0000
  O   O6        1.0  0.3806030126482938  0.4737929522377229  0.00016534867042146295  1.0000
  O   O7        1.0  0.9264844143509523  0.45590400987911295  0.9995474036678262  1.0000
  O   O8        1.0  0.8415169878789611  0.5838838973556761  0.9999638453460237  1.0000
  O   O9        1.0  0.17456141921998378  0.6300545967843902  0.6309441781407658  1.0000
  O   O10       1.0  0.906708140819468  0.5264622681558464  0.5267379382652281  1.0000
  O   O11       1.0  0.47141049085158226  0.5445060188787423  0.5448199898453298  1.0000
  O   O12       1.0  0.2589869496271077  0.41640279568867555  0.41654584843855963  1.0000
