data_image0
_chemical_formula_structural       Na4Cu2H24C32O20
_chemical_formula_sum              "Na4 Cu2 H24 C32 O20"
_cell_length_a       6.551772495088662
_cell_length_b       11.055983959815931
_cell_length_c       12.303768668683974
_cell_angle_alpha    102.24655080103331
_cell_angle_beta     89.99972110511719
_cell_angle_gamma    90.0005631984185

_space_group_name_H-M_alt    "P 1"
_space_group_IT_number       1

loop_
  _space_group_symop_operation_xyz
  'x, y, z'

loop_
  _atom_site_type_symbol
  _atom_site_label
  _atom_site_symmetry_multiplicity
  _atom_site_fract_x
  _atom_site_fract_y
  _atom_site_fract_z
  _atom_site_occupancy
  Na  Na1       1.0  0.8521909715680496  0.5936365402178724  0.6976249857721514  1.0000
  Na  Na2       1.0  0.647804236654203  0.5936344650562831  0.19762636712277268  1.0000
  Na  Na3       1.0  0.14780777291091607  0.4063640049658163  0.30237218569172347  1.0000
  Na  Na4       1.0  0.35219603411529493  0.4063651599529907  0.8023722568153674  1.0000
  Cu  Cu1       1.0  0.9999992410584899  0.5000008591896832  0.9999985660874557  1.0000
  Cu  Cu2       1.0  0.4999978459157718  0.49999889097792066  0.5000003578128016  1.0000
  H   H1        1.0  0.12128923491392382  0.9322355784951957  0.013510441840715306  1.0000
  H   H2        1.0  0.3787165783394144  0.9322368749875949  0.513508844030298  1.0000
  H   H3        1.0  0.8787064569352198  0.06776312095581014  0.9864880080422227  1.0000
  H   H4        1.0  0.6212897976346172  0.06776089894739813  0.4864894317852305  1.0000
  H   H5        1.0  0.3210837090824725  0.10350227256616051  0.9623216516427534  1.0000
  H   H6        1.0  0.1789198307314095  0.10350407189017831  0.46232367948756103  1.0000
  H   H7        1.0  0.6789150353784665  0.8964982860349056  0.037679586157004445  1.0000
  H   H8        1.0  0.8210880715426826  0.8964955665576043  0.5376790107803586  1.0000
  H   H9        1.0  0.5423433243721761  0.061603079815519414  0.7945478050421999  1.0000
  H   H10       1.0  0.9576499630130402  0.0616064335824191  0.2945526403109541  1.0000
  H   H11       1.0  0.45765542009914395  0.9383984016476608  0.20545279354924872  1.0000
  H   H12       1.0  0.04235030774434989  0.9383959922149077  0.7054538252083731  1.0000
  H   H13       1.0  0.5656935523777593  0.846937440417648  0.6791731809206141  1.0000
  H   H14       1.0  0.9342967988672655  0.8469388164490185  0.17917851867374418  1.0000
  H   H15       1.0  0.4343036658026024  0.15306589213248867  0.3208277657897867  1.0000
  H   H16       1.0  0.0657004192982455  0.15306545774755884  0.8208274816985794  1.0000
  H   H17       1.0  0.0449832618682393  0.6495073762230064  0.5011721314400006  1.0000
  H   H18       1.0  0.4550073605993746  0.6495153323559111  0.001174588157269271  1.0000
  H   H19       1.0  0.9550154826098665  0.3504950307857656  0.4988286412103093  1.0000
  H   H20       1.0  0.5449898575746418  0.3504861437360916  0.9988243839010451  1.0000
  H   H21       1.0  0.8098055722862371  0.6727548489601959  0.4829206286103158  1.0000
  H   H22       1.0  0.6901868565131938  0.6727588169623574  0.9829240947837832  1.0000
  H   H23       1.0  0.1901916458981603  0.3272475499939206  0.5170777042396821  1.0000
  H   H24       1.0  0.30981188795581727  0.3272398744466686  0.017071915295183288  1.0000
  C   C1        1.0  0.09671745543835902  0.6963463573189731  0.9062868963624169  1.0000
  C   C2        1.0  0.4032871072023811  0.6963503167401585  0.4062862997446999  1.0000
  C   C3        1.0  0.9032812890437827  0.3036551160937791  0.0937112624275045  1.0000
  C   C4        1.0  0.5967116372721224  0.3036520929520919  0.5937152861727881  1.0000
  C   C5        1.0  0.2255904039242723  0.795042865658978  0.8734485710251221  1.0000
  C   C6        1.0  0.27441148438845187  0.7950461140240391  0.3734489937200962  1.0000
  C   C7        1.0  0.7744098668348446  0.2049558364881818  0.1265506921213344  1.0000
  C   C8        1.0  0.7255918389657198  0.20495166795293332  0.6265517218994036  1.0000
  C   C9        1.0  0.21637831383011272  0.9147355242731269  0.9391897342691352  1.0000
  C   C10       1.0  0.28362494251925346  0.9147416083481448  0.4391931042127696  1.0000
  C   C11       1.0  0.7836204306217311  0.08526131872819322  0.0608067409592721  1.0000
  C   C12       1.0  0.7163799071390144  0.08525710454559741  0.5608094119987329  1.0000
  C   C13       1.0  0.3292412764757772  0.010391090197792604  0.9107725809527665  1.0000
  C   C14       1.0  0.1707596764706807  0.010394695427081001  0.4107749699597747  1.0000
  C   C15       1.0  0.6707544153593761  0.9896066890745774  0.08922732140565867  1.0000
  C   C16       1.0  0.8292451731808017  0.989603091921069  0.5892273721928589  1.0000
  C   C17       1.0  0.45443563830546213  0.9867351077957309  0.8167131004013726  1.0000
  C   C18       1.0  0.04556225481684351  0.9867398761154721  0.3167176642249316  1.0000
  C   C19       1.0  0.5455646324568307  0.013264522580499302  0.18328715007112353  1.0000
  C   C20       1.0  0.9544380159373703  0.013261621452791406  0.683287813968356  1.0000
  C   C21       1.0  0.46732611824192827  0.8671720421315855  0.7521195414609636  1.0000
  C   C22       1.0  0.0326749776667228  0.8671767229684806  0.2521192462883378  1.0000
  C   C23       1.0  0.5326756787865179  0.13282482502947351  0.2478842531695946  1.0000
  C   C24       1.0  0.9673268193856617  0.13282291814587674  0.7478842572516484  1.0000
  C   C25       1.0  0.35238226774514914  0.7704797779399544  0.7790082247561473  1.0000
  C   C26       1.0  0.1476200619802555  0.7704841698238668  0.2790075717502702  1.0000
  C   C27       1.0  0.6476210555982008  0.2295180120874464  0.22099493066488662  1.0000
  C   C28       1.0  0.8523817350793481  0.22951546592353383  0.7209943052553598  1.0000
  C   C29       1.0  0.35691164159766947  0.644374552274485  0.7046592867863525  1.0000
  C   C30       1.0  0.14308318691148264  0.6443733711461733  0.20465922320924082  1.0000
  C   C31       1.0  0.6430886291813493  0.3556278574219931  0.2953422991299206  1.0000
  C   C32       1.0  0.8569186101697498  0.3556262485003786  0.7953377741933282  1.0000
  O   O1        1.0  0.9064739810607139  0.7000765978225945  0.8949031862945277  1.0000
  O   O2        1.0  0.5935257843220542  0.7000844110920073  0.394909008878777  1.0000
  O   O3        1.0  0.09352476337569024  0.2999146731208527  0.10508655171045693  1.0000
  O   O4        1.0  0.40647143382483364  0.299913362817634  0.60508926694407  1.0000
  O   O5        1.0  0.19281883880029946  0.6150571415253837  0.9491062835347394  1.0000
  O   O6        1.0  0.30718706704059434  0.6150577893953656  0.44910450512004735  1.0000
  O   O7        1.0  0.8071753267402855  0.38494249151741405  0.05089478020981628  1.0000
  O   O8        1.0  0.6928132037289105  0.3849418356139086  0.5508941188180999  1.0000
  O   O9        1.0  0.5174835380985102  0.6202658769332033  0.642223975542926  1.0000
  O   O10       1.0  0.9825110729358215  0.6202693549664037  0.14222470472866894  1.0000
  O   O11       1.0  0.4825136800651182  0.3797346762966854  0.3577756357236979  1.0000
  O   O12       1.0  0.017489197850849805  0.3797321184505763  0.8577734540600304  1.0000
  O   O13       1.0  0.2122555169329985  0.5696816486806855  0.7054553379877789  1.0000
  O   O14       1.0  0.2877350321314509  0.5696803807071548  0.20546625481802042  1.0000
  O   O15       1.0  0.787746280162658  0.4303179602319602  0.294538406346078  1.0000
  O   O16       1.0  0.7122637123367002  0.4303201725269618  0.7945333564473814  1.0000
  O   O17       1.0  0.9136932033628329  0.6688150259078186  0.5399076486169889  1.0000
  O   O18       1.0  0.5862970080334196  0.6688255650716999  0.03991075185894026  1.0000
  O   O19       1.0  0.08630401483512173  0.33118922413748225  0.46009103235073934  1.0000
  O   O20       1.0  0.41370631536590013  0.33117590567025706  0.9600865936601439  1.0000
