data_image0
_chemical_formula_structural       Mn2H14C20N6O10
_chemical_formula_sum              "Mn2 H14 C20 N6 O10"
_cell_length_a       7.486545716810962
_cell_length_b       9.57516889218681
_cell_length_c       9.215174579763586
_cell_angle_alpha    64.92302944209652
_cell_angle_beta     80.17632234009355
_cell_angle_gamma    79.86480166154267

_space_group_name_H-M_alt    "P 1"
_space_group_IT_number       1

loop_
  _space_group_symop_operation_xyz
  'x, y, z'

loop_
  _atom_site_type_symbol
  _atom_site_label
  _atom_site_symmetry_multiplicity
  _atom_site_fract_x
  _atom_site_fract_y
  _atom_site_fract_z
  _atom_site_occupancy
  Mn  Mn1       1.0  0.48519631173640926  0.11032950402763218  0.5532769997658277  1.0000
  Mn  Mn2       1.0  0.9838563621419283  0.5467902868981868  0.10597448985296153  1.0000
  H   H1        1.0  0.1468540096118005  0.7611591590652723  0.5055446680598408  1.0000
  H   H2        1.0  0.6289507982620253  0.5044252532547732  0.7599062264985076  1.0000
  H   H3        1.0  0.9820681243985661  0.7711233920158663  0.7555614434615022  1.0000
  H   H4        1.0  0.47118576227158815  0.7526430177686337  0.7647368986789616  1.0000
  H   H5        1.0  0.11704266675446462  0.2971757181766606  0.013674963248057326  1.0000
  H   H6        1.0  0.6610337386701557  0.0026582716227139002  0.28908813480516216  1.0000
  H   H7        1.0  0.30067676288758355  0.2683167474101112  0.7766271202707172  1.0000
  H   H8        1.0  0.8362682804493601  0.7651193968981648  0.262925994666858  1.0000
  H   H9        1.0  0.31488887466849047  0.7300803246266556  0.29792535707493767  1.0000
  H   H10       1.0  0.8139981204126272  0.30610317152147815  0.7398961510321908  1.0000
  H   H11       1.0  0.5472581580130933  0.9541085528998818  0.86485511215664  1.0000
  H   H12       1.0  0.046855487510654804  0.8471457132070483  0.9545926378036709  1.0000
  H   H13       1.0  0.726517430680957  0.039837576481175994  0.7834233567710381  1.0000
  H   H14       1.0  0.23449510796233852  0.7558784689428747  0.02716885004728203  1.0000
  C   C1        1.0  0.7324874416059967  0.3154699249317973  0.2994531255475152  1.0000
  C   C2        1.0  0.22289890910397495  0.30624239075626053  0.3045024203323122  1.0000
  C   C3        1.0  0.5885741012661683  0.4264970241859417  0.33474302317440413  1.0000
  C   C4        1.0  0.0801027989582863  0.332848404905647  0.42453071085747496  1.0000
  C   C5        1.0  0.5916869631657631  0.6951630937991169  0.08268637564314225  1.0000
  C   C6        1.0  0.076983414040896  0.08497401185992712  0.7037893829419699  1.0000
  C   C7        1.0  0.5312025978114645  0.5808139762261464  0.24176249731111435  1.0000
  C   C8        1.0  0.0218851557137967  0.24393817405189824  0.5848816328945289  1.0000
  C   C9        1.0  0.14706575677661246  0.65410743795956  0.6147193929194614  1.0000
  C   C10       1.0  0.6417899250530112  0.6113040459472928  0.6517314358565116  1.0000
  C   C11       1.0  0.0534005829111877  0.662187835137104  0.754376003674835  1.0000
  C   C12       1.0  0.5521462408767873  0.7495645084182032  0.6557190829773345  1.0000
  C   C13       1.0  0.1300382511144491  0.3966333609221167  0.8989018952191116  1.0000
  C   C14       1.0  0.6583478013484123  0.8892289765244783  0.38936262902241464  1.0000
  C   C15       1.0  0.22966536094072154  0.3814146933043148  0.7652961377625684  1.0000
  C   C16       1.0  0.7539776244148013  0.7574279593449023  0.37503280644101267  1.0000
  C   C17       1.0  0.24419308709323662  0.5124854234774718  0.6174112999956519  1.0000
  C   C18       1.0  0.7485412346113735  0.6144639165622509  0.5096334457671218  1.0000
  C   C19       1.0  0.3627009296905541  0.5009251428744649  0.4814022687872636  1.0000
  C   C20       1.0  0.8610316649919768  0.47900487042850404  0.5007045414767928  1.0000
  N   N1        1.0  0.4807648618588586  0.37690372509283787  0.4807342783654817  1.0000
  N   N2        1.0  0.9758995773711303  0.4757635110731189  0.37270637375435456  1.0000
  N   N3        1.0  0.3869467752665159  0.6229904923480164  0.33513276591830976  1.0000
  N   N4        1.0  0.8826085630075226  0.33823388209543753  0.6277457331933574  1.0000
  N   N5        1.0  0.04888043640124811  0.5368130605796039  0.8989551152890343  1.0000
  N   N6        1.0  0.5620702245222162  0.8869252086671794  0.5281559175745726  1.0000
  O   O1        1.0  0.7282899690550977  0.17282674548576446  0.3905684007807506  1.0000
  O   O2        1.0  0.21942497027756497  0.41630906468541456  0.16098247932824705  1.0000
  O   O3        1.0  0.8587061188322451  0.3629966903257938  0.18169710007727963  1.0000
  O   O4        1.0  0.3421554796989739  0.19011130725212416  0.3403681846415195  1.0000
  O   O5        1.0  0.7614551922335693  0.6925163983409423  0.02857874589049194  1.0000
  O   O6        1.0  0.24132114016579456  0.025873903408587803  0.6925802776799654  1.0000
  O   O7        1.0  0.46858052416642687  0.7993171568647599  0.00774497191043358  1.0000
  O   O8        1.0  0.9543266735661362  0.018184160180133805  0.8147682363507156  1.0000
  O   O9        1.0  0.5936551382209885  0.0497982816229765  0.7749895842364292  1.0000
  O   O10       1.0  0.10063446562936211  0.7514841353846934  0.04312069956382205  1.0000
