data_image0
_chemical_formula_structural       Hg2H8C10S10Cl4
_chemical_formula_sum              "Hg2 H8 C10 S10 Cl4"
_cell_length_a       8.244063612201554
_cell_length_b       8.562290163513788
_cell_length_c       9.775872218156813
_cell_angle_alpha    102.33675763659036
_cell_angle_beta     100.60835888633703
_cell_angle_gamma    119.04033242908775

_space_group_name_H-M_alt    "P 1"
_space_group_IT_number       1

loop_
  _space_group_symop_operation_xyz
  'x, y, z'

loop_
  _atom_site_type_symbol
  _atom_site_label
  _atom_site_symmetry_multiplicity
  _atom_site_fract_x
  _atom_site_fract_y
  _atom_site_fract_z
  _atom_site_occupancy
  Hg  Hg1       1.0  0.9604521486925106  0.7796764350570696  0.06130982290090969  1.0000
  Hg  Hg2       1.0  0.03955290973013347  0.22032028562358613  0.9386920159173471  1.0000
  H   H1        1.0  0.696181729662939  0.2830683922991  0.07404541436959278  1.0000
  H   H2        1.0  0.3038313426482233  0.7169383798592363  0.9259565120273479  1.0000
  H   H3        1.0  0.9008175632975438  0.46960093209591486  0.23265313850077257  1.0000
  H   H4        1.0  0.09918707609277529  0.530408483249893  0.7673551268273399  1.0000
  H   H5        1.0  0.718209145744268  0.1628018050602833  0.28070914195601654  1.0000
  H   H6        1.0  0.2817993910696686  0.8372034638274215  0.7192938353582363  1.0000
  H   H7        1.0  0.4972603408177746  0.15935857001213805  0.2334491441148785  1.0000
  H   H8        1.0  0.5027459901131124  0.8406381999072606  0.766547788733682  1.0000
  C   C1        1.0  0.732272461005465  0.5873812699413107  0.4731476298797757  1.0000
  C   C2        1.0  0.26772565482269767  0.4126096155944125  0.5268632699800974  1.0000
  C   C3        1.0  0.6944922963375647  0.6387897973507323  0.3526698571382738  1.0000
  C   C4        1.0  0.30549684629736623  0.36121380836946326  0.6473133996927841  1.0000
  C   C5        1.0  0.7765067999825419  0.9146214321045109  0.5812282536297745  1.0000
  C   C6        1.0  0.2234906542579012  0.0853794033478721  0.4187721487553446  1.0000
  C   C7        1.0  0.7397374519780582  0.375133244523262  0.18873925294166574  1.0000
  C   C8        1.0  0.2602685925651824  0.6248719811392643  0.8112633256662319  1.0000
  C   C9        1.0  0.6584122837717032  0.25306046868878695  0.28057141431733607  1.0000
  C   C10       1.0  0.3415917333687517  0.7469433135039836  0.7194295507205054  1.0000
  S   S1        1.0  0.6319587326181093  0.5126379169340964  0.16665377355542432  1.0000
  S   S2        1.0  0.3680424653029704  0.48736298888128  0.8333462058246539  1.0000
  S   S3        1.0  0.730381946023563  0.3844094033162547  0.47694281658834825  1.0000
  S   S4        1.0  0.2696117645362504  0.6155913617731341  0.5230580088017972  1.0000
  S   S5        1.0  0.718240876920312  0.8578085873350431  0.39351823183864804  1.0000
  S   S6        1.0  0.2817545499173447  0.1421908046475835  0.6064805569764218  1.0000
  S   S7        1.0  0.793599749358293  0.7509050017739723  0.6454087013154747  1.0000
  S   S8        1.0  0.2063936448020058  0.249092941213668  0.3545894949941228  1.0000
  S   S9        1.0  0.8002714120220913  0.11508622107552208  0.6864325357518339  1.0000
  S   S10       1.0  0.19973025076690482  0.8849132844952765  0.31356622876455736  1.0000
  Cl  Cl1       1.0  0.7800961573349737  0.9604660477956201  0.05022655004432863  1.0000
  Cl  Cl2       1.0  0.21990067465559804  0.0395291545037253  0.9497665520505194  1.0000
  Cl  Cl3       1.0  0.7892605190110585  0.48139678427072136  0.8462261040765994  1.0000
  Cl  Cl4       1.0  0.21072708824208058  0.5185996283084648  0.1537739648617062  1.0000
