data_image0
_chemical_formula_structural       Na3H6C2S2NO10
_chemical_formula_sum              "Na3 H6 C2 S2 N1 O10"
_cell_length_a       5.0953994991048335
_cell_length_b       7.0505154575943205
_cell_length_c       8.403623149508586
_cell_angle_alpha    114.80179029019176
_cell_angle_beta     91.53250525556795
_cell_angle_gamma    89.99387177381041

_space_group_name_H-M_alt    "P 1"
_space_group_IT_number       1

loop_
  _space_group_symop_operation_xyz
  'x, y, z'

loop_
  _atom_site_type_symbol
  _atom_site_label
  _atom_site_symmetry_multiplicity
  _atom_site_fract_x
  _atom_site_fract_y
  _atom_site_fract_z
  _atom_site_occupancy
  Na  Na1       1.0  0.8553895561598566  0.586562168918597  0.17305743932390522  1.0000
  Na  Na2       1.0  0.4583925918410544  0.9659502225299046  0.4040489379481042  1.0000
  Na  Na3       1.0  0.45845321875416545  0.4381249112007949  0.40396146268550126  1.0000
  H   H1        1.0  0.8495693109120594  0.2938083157617584  0.5875775707159576  1.0000
  H   H2        1.0  0.6048977736474371  0.3533800413554713  0.7066428791182061  1.0000
  H   H3        1.0  0.7135586712875722  0.03838054194300608  0.822461452075558  1.0000
  H   H4        1.0  0.7135751682008404  0.7838866585019202  0.8224516342013642  1.0000
  H   H5        1.0  0.18225488938921333  0.09658180176801066  0.9401127764055985  1.0000
  H   H6        1.0  0.182379584638376  0.8435034640878952  0.9401489901581568  1.0000
  C   C1        1.0  0.8369084971519172  0.9068486468999306  0.8139207535404507  1.0000
  C   C2        1.0  0.05856187594938691  0.9756069743415807  0.9513049079848912  1.0000
  S   S1        1.0  0.9699781498969884  0.7993554293619524  0.598778719716762  1.0000
  S   S2        1.0  0.9412473739766156  0.08522905043854928  0.17043389150865096  1.0000
  N   N1        1.0  0.33886093484034774  0.5018667630487881  0.0037119030096092603  1.0000
  O   O1        1.0  0.7373846141391098  0.7381999317015654  0.4763416365629069  1.0000
  O   O2        1.0  0.1249675232401728  0.9665504970921147  0.5846484769601472  1.0000
  O   O3        1.0  0.12501816126819423  0.6180034720247176  0.5845689767387084  1.0000
  O   O4        1.0  0.178952730178402  0.14244043397707878  0.28470678614604583  1.0000
  O   O5        1.0  0.7830625928078163  0.9212411365753465  0.1886835768846637  1.0000
  O   O6        1.0  0.7829207063661344  0.26735493447956316  0.18849081904819798  1.0000
  O   O7        1.0  0.33560264929355554  0.5863861954638806  0.17285104183682876  1.0000
  O   O8        1.0  0.5593485629268856  0.46565077389496407  0.9313873236041345  1.0000
  O   O9        1.0  0.1279366341211414  0.4581178746620579  0.9159562520740889  1.0000
  O   O10       1.0  0.6578715115818311  0.29139606558733516  0.5826079752828689  1.0000
