data_image0
_chemical_formula_structural       Cu2H38C36N6O8
_chemical_formula_sum              "Cu2 H38 C36 N6 O8"
_cell_length_a       8.495282496005986
_cell_length_b       8.763391328567499
_cell_length_c       12.32243571893034
_cell_angle_alpha    99.29275607640973
_cell_angle_beta     95.00075211644459
_cell_angle_gamma    106.29506564122154

_space_group_name_H-M_alt    "P 1"
_space_group_IT_number       1

loop_
  _space_group_symop_operation_xyz
  'x, y, z'

loop_
  _atom_site_type_symbol
  _atom_site_label
  _atom_site_symmetry_multiplicity
  _atom_site_fract_x
  _atom_site_fract_y
  _atom_site_fract_z
  _atom_site_occupancy
  Cu  Cu1       1.0  0.5043493791741297  0.9733434544814229  0.10154906824179476  1.0000
  Cu  Cu2       1.0  0.4956367972701728  0.026640995992188696  0.898455829114482  1.0000
  H   H1        1.0  0.2580599512413998  0.8359185907623826  0.6044392251055868  1.0000
  H   H2        1.0  0.7419483338440713  0.16409630724904642  0.39557262469403304  1.0000
  H   H3        1.0  0.1142843567831946  0.197889712055769  0.43457973247267734  1.0000
  H   H4        1.0  0.8857233946397046  0.8021356373855326  0.56541209779121  1.0000
  H   H5        1.0  0.9644512070878832  0.40065860517526636  0.1091976414933384  1.0000
  H   H6        1.0  0.03554325123040061  0.5993340621272483  0.890793188019579  1.0000
  H   H7        1.0  0.14335799667758656  0.38057789472089343  0.7692556338513938  1.0000
  H   H8        1.0  0.8566847677909238  0.6194103301386278  0.23073832011256457  1.0000
  H   H9        1.0  0.24192446733028564  0.6659363024015762  0.741493703325304  1.0000
  H   H10       1.0  0.758088726768456  0.33405556415985416  0.2585111071771635  1.0000
  H   H11       1.0  0.3294276251787593  0.08514354177925301  0.2923738031546037  1.0000
  H   H12       1.0  0.6706014670335066  0.9148776457567963  0.7076439744990709  1.0000
  H   H13       1.0  0.46047855765026213  0.5045192113022098  0.11863826922802899  1.0000
  H   H14       1.0  0.5395090456471648  0.49546624651168975  0.8813562667978658  1.0000
  H   H15       1.0  0.2109349596322616  0.9867394090784317  0.4566637464405687  1.0000
  H   H16       1.0  0.7890928132341415  0.0132853297539484  0.5433510868927911  1.0000
  H   H17       1.0  0.028907001078934492  0.2380426183448847  0.24330153095908713  1.0000
  H   H18       1.0  0.9710767389722081  0.7619378913170182  0.7566881972641113  1.0000
  H   H19       1.0  0.11160324690328588  0.12751044340301118  0.1425321023238695  1.0000
  H   H20       1.0  0.8883798367043169  0.8724797333681097  0.8574586175532417  1.0000
  H   H21       1.0  0.4881549095899302  0.6404890192282338  0.42097605400591925  1.0000
  H   H22       1.0  0.5118401074468153  0.35951718096919183  0.5790276114417664  1.0000
  H   H23       1.0  0.9889458338637667  0.3266616395412357  0.9098330973303346  1.0000
  H   H24       1.0  0.011039315021022783  0.6733394182552743  0.0901580888399067  1.0000
  H   H25       1.0  0.08699091801567252  0.1823802495722262  0.9380081154357213  1.0000
  H   H26       1.0  0.9129935771713421  0.8176147088551461  0.06197994864997013  1.0000
  H   H27       1.0  0.33943188199912566  0.35614582723545146  0.2633725621200966  1.0000
  H   H28       1.0  0.6605566846139154  0.6438310766646185  0.7366162488556753  1.0000
  H   H29       1.0  0.23763751686497164  0.4961879193071539  0.22823024614071133  1.0000
  H   H30       1.0  0.7623610068101884  0.503790484227757  0.7717698496909122  1.0000
  H   H31       1.0  0.5927583310082412  0.7530839580836002  0.25976760028400747  1.0000
  H   H32       1.0  0.4072379777607082  0.24691864148628176  0.7402365678149749  1.0000
  H   H33       1.0  0.20520031815846812  0.4718148728341092  0.39166599926357293  1.0000
  H   H34       1.0  0.7947925452685639  0.5282118313010075  0.608338102360868  1.0000
  H   H35       1.0  0.21931309978057814  0.5496631626841619  0.03162050173539651  1.0000
  H   H36       1.0  0.780670846094175  0.45032968445860183  0.9683827263704216  1.0000
  H   H37       1.0  0.29968218990959633  0.4398544895983747  0.9288099451182745  1.0000
  H   H38       1.0  0.7003073376629275  0.5601492005480111  0.07119070160260321  1.0000
  C   C1        1.0  0.1451811539496148  0.3038191213771028  0.5020423652193812  1.0000
  C   C2        1.0  0.8548372262526484  0.6961942862738579  0.4979520527074968  1.0000
  C   C3        1.0  0.3375390188825164  0.8032288052785717  0.4518369683506975  1.0000
  C   C4        1.0  0.6624741697246891  0.19679459423957013  0.5481760696287168  1.0000
  C   C5        1.0  0.9832301622041799  0.28217437364229164  0.077238419475286  1.0000
  C   C6        1.0  0.01675221561372098  0.717813412300707  0.9227536282975278  1.0000
  C   C7        1.0  0.1600345995746721  0.40496148550262495  0.6861572161886897  1.0000
  C   C8        1.0  0.8399974438809255  0.5950303481946478  0.3138397502240196  1.0000
  C   C9        1.0  0.21446651749099743  0.5645506814183108  0.6714165454831402  1.0000
  C   C10       1.0  0.7855510462789114  0.4354519695644754  0.3285831726718413  1.0000
  C   C11       1.0  0.8071971528644254  0.16614973720098183  0.05096160827388018  1.0000
  C   C12       1.0  0.19279081253240804  0.8338369324707173  0.9490330776938337  1.0000
  C   C13       1.0  0.2339897636434785  0.5935271415405693  0.5636435868009215  1.0000
  C   C14       1.0  0.7660210220654023  0.4064804072221548  0.43636194329425143  1.0000
  C   C15       1.0  0.36096888637069924  0.9867412988833808  0.3241863656180186  1.0000
  C   C16       1.0  0.6390490030700278  0.013282071864047399  0.6758236939768665  1.0000
  C   C17       1.0  0.34842499152657075  0.3989833721485283  0.0953738827574  1.0000
  C   C18       1.0  0.651560687885386  0.6010034270146747  0.9046279896302778  1.0000
  C   C19       1.0  0.2957403913200309  0.9323563481766469  0.4151494478630227  1.0000
  C   C20       1.0  0.7042825918026949  0.06767206219251418  0.584869558276459  1.0000
  C   C21       1.0  0.09235243409564478  0.24636599146739974  0.16953905109809847  1.0000
  C   C22       1.0  0.9076371267700624  0.7536143835687027  0.8304420708063986  1.0000
  C   C23       1.0  0.41146591291784773  0.254381637961778  0.0573732143395986  1.0000
  C   C24       1.0  0.5885163699207395  0.7456135815069872  0.9426285472834264  1.0000
  C   C25       1.0  0.4461884914927127  0.7367863790780121  0.39432342018449873  1.0000
  C   C26       1.0  0.5538148716619204  0.2632199845392407  0.6056856136559858  1.0000
  C   C27       1.0  0.06951605298022663  0.2993035951766104  0.9737452526118274  1.0000
  C   C28       1.0  0.930469123518229  0.7006975119511054  0.026248375227432078  1.0000
  C   C29       1.0  0.25902923316697  0.3794748816927864  0.1973351006758861  1.0000
  C   C30       1.0  0.7409475108612256  0.6205057697875986  0.8026639784621351  1.0000
  C   C31       1.0  0.506161400693074  0.8005741003829243  0.3046624316793753  1.0000
  C   C32       1.0  0.4938427755705348  0.19943104418385366  0.6953457076231614  1.0000
  C   C33       1.0  0.19803376056916017  0.4577039222607411  0.4771957695694411  1.0000
  C   C34       1.0  0.8019693848115423  0.5423058539102783  0.5228030642372232  1.0000
  C   C35       1.0  0.23691620317241296  0.4307874627528818  0.0026569858918322007  1.0000
  C   C36       1.0  0.7630804765108722  0.5691967914367453  0.9973346989818737  1.0000
  N   N1        1.0  0.4648086807176384  0.9229859953196706  0.26851664399831066  1.0000
  N   N2        1.0  0.5352011416756284  0.0770301073568902  0.7314946111469922  1.0000
  N   N3        1.0  0.27747624732094067  0.75070871891468  0.5450991539558032  1.0000
  N   N4        1.0  0.722532028559982  0.24930616265302064  0.4549118819541391  1.0000
  N   N5        1.0  0.12545804735410127  0.2735371193535984  0.6042984122419384  1.0000
  N   N6        1.0  0.8745657545571177  0.7264667075235991  0.3956977328741971  1.0000
  O   O1        1.0  0.4448796648563659  0.17898249992970253  0.13217077229344906  1.0000
  O   O2        1.0  0.5551411697585423  0.821015307738648  0.8678269954890823  1.0000
  O   O3        1.0  0.42793199745489835  0.22206414093317053  0.9552656678124121  1.0000
  O   O4        1.0  0.5720246912589885  0.777912694069407  0.04473022502418899  1.0000
  O   O5        1.0  0.7342345726538825  0.1483923461374204  0.9530709630606607  1.0000
  O   O6        1.0  0.2657562472284668  0.8516354855784346  0.04692989435983464  1.0000
  O   O7        1.0  0.7450712943094118  0.1028625746424439  0.12969892093341429  1.0000
  O   O8        1.0  0.25491958257877906  0.8971022733786709  0.8702895509815602  1.0000
