data_image0
_chemical_formula_structural       AlH27C45O9
_chemical_formula_sum              "Al1 H27 C45 O9"
_cell_length_a       3.968187858556552
_cell_length_b       23.522585139259554
_cell_length_c       23.52724251155465
_cell_angle_alpha    60.02267276553943
_cell_angle_beta     87.2409934512907
_cell_angle_gamma    86.94417648626154

_space_group_name_H-M_alt    "P 1"
_space_group_IT_number       1

loop_
  _space_group_symop_operation_xyz
  'x, y, z'

loop_
  _atom_site_type_symbol
  _atom_site_label
  _atom_site_symmetry_multiplicity
  _atom_site_fract_x
  _atom_site_fract_y
  _atom_site_fract_z
  _atom_site_occupancy
  Al  Al1       1.0  0.0003969618347027692  0.49964826809578283  0.5001185805386752  1.0000
  H   H1        1.0  0.4862561994603709  0.31811569620796126  0.6810046643870038  1.0000
  H   H2        1.0  0.4693888610333589  0.2563585740743193  0.8022159033490794  1.0000
  H   H3        1.0  0.8518507092410488  0.16650142031973303  0.013153249824988191  1.0000
  H   H4        1.0  0.43280363230503843  0.682977748672549  0.3175822844331789  1.0000
  H   H5        1.0  0.48536762867659183  0.803585484585554  0.25724917376737727  1.0000
  H   H6        1.0  0.22792362016630827  0.8969233197181483  0.22754060600338005  1.0000
  H   H7        1.0  0.2370121903820959  0.016927780668908102  0.16562434730790443  1.0000
  H   H8        1.0  0.5260877632345429  0.10627908461765405  0.10477399515310278  1.0000
  H   H9        1.0  0.5122563483228293  0.6800929129782746  0.5005925879851317  1.0000
  H   H10       1.0  0.4924079659447571  0.8011418734935559  0.44189351494118506  1.0000
  H   H11       1.0  0.8313201265866966  0.012453355894052703  0.3169023200380394  1.0000
  H   H12       1.0  0.5111270426279761  0.3173321057139021  0.49929865895700937  1.0000
  H   H13       1.0  0.5582641223495556  0.25724333781835906  0.4376693851699613  1.0000
  H   H14       1.0  0.26088859011959903  0.23078186557182082  0.3784949202375429  1.0000
  H   H15       1.0  0.2523527632614346  0.16839379304429508  0.32055310025798184  1.0000
  H   H16       1.0  0.544914047749785  0.10487625752972463  0.2881375458284694  1.0000
  H   H17       1.0  0.5644861802570844  0.5008490250886412  0.3179659338189182  1.0000
  H   H18       1.0  0.5445094984587655  0.44221159647347724  0.25582708478868443  1.0000
  H   H19       1.0  0.8721475216463973  0.31354649771374454  0.16496348998619936  1.0000
  H   H20       1.0  0.46886613587275877  0.49991079648993514  0.6833333087060396  1.0000
  H   H21       1.0  0.5116252492008898  0.4381272458644078  0.8043852063372653  1.0000
  H   H22       1.0  0.2035108234158045  0.37755147756347196  0.8969335798665767  1.0000
  H   H23       1.0  0.216582176576047  0.3191372238559325  0.017567498750750556  1.0000
  H   H24       1.0  0.5477663224288135  0.28813158583821524  0.10601178307890535  1.0000
  H   H25       1.0  0.964945812588553  0.3990732406272529  0.24683675057989518  1.0000
  H   H26       1.0  0.9027778298766905  0.24907616894654439  0.8431272290982292  1.0000
  H   H27       1.0  0.9104168479955987  0.8440615389133516  0.40182094047877814  1.0000
  C   C1        1.0  0.48736130137211864  0.4496859761693629  0.6012153057393306  1.0000
  C   C2        1.0  0.5290452953732372  0.4488205526207239  0.4497723086155003  1.0000
  C   C3        1.0  0.4836799555799375  0.6006472590207323  0.449112322233411  1.0000
  C   C4        1.0  0.4882086439338027  0.3443007020059739  0.708319906123627  1.0000
  C   C5        1.0  0.4875843399056451  0.3096899668627985  0.7766578226171177  1.0000
  C   C6        1.0  0.6975670935994104  0.24552901985855868  0.9203240476431632  1.0000
  C   C7        1.0  0.7002506997384829  0.21197873786862687  0.9887054432995016  1.0000
  C   C8        1.0  0.456323966575802  0.7092718146288703  0.3443665165597166  1.0000
  C   C9        1.0  0.48113172212357125  0.777154443958807  0.3107509408637981  1.0000
  C   C10       1.0  0.36986743477515927  0.9221566421185584  0.24639020568199035  1.0000
  C   C11       1.0  0.37390407370952516  0.9901669754172108  0.21122038519811753  1.0000
  C   C12       1.0  0.48186934664158815  0.41295293198707833  0.6743198408181641  1.0000
  C   C13       1.0  0.5015997200250766  0.3423466649079431  0.813082549044246  1.0000
  C   C14       1.0  0.5173655393605331  0.3062918955817723  0.8853205007130712  1.0000
  C   C15       1.0  0.5316956209175528  0.23779590827344785  0.02481012920577536  1.0000
  C   C16       1.0  0.5361088429074384  0.20128713820923852  0.09723917037254637  1.0000
  C   C17       1.0  0.5318434236803286  0.13253801742573762  0.1319550871914785  1.0000
  C   C18       1.0  0.5013871462803082  0.7075348109648586  0.4471888250787828  1.0000
  C   C19       1.0  0.5010579215044686  0.7758501932644181  0.4135823132177591  1.0000
  C   C20       1.0  0.6889858974296318  0.9199195262492311  0.33186681012765706  1.0000
  C   C21       1.0  0.6880979442859853  0.9883128637335687  0.2971093180756839  1.0000
  C   C22       1.0  0.5286313569724826  0.3442346654277486  0.44580652913126073  1.0000
  C   C23       1.0  0.5501138095750664  0.31077926911990533  0.4109704389853944  1.0000
  C   C24       1.0  0.40350574024571984  0.24807812356149836  0.3323236068865826  1.0000
  C   C25       1.0  0.39854394900323353  0.21262853966145914  0.2997811133288478  1.0000
  C   C26       1.0  0.4780712283995143  0.6736090607593256  0.41287465338878343  1.0000
  C   C27       1.0  0.5040704925714294  0.8124994203705714  0.3442298471855166  1.0000
  C   C28       1.0  0.5227882866667174  0.8846772152744722  0.3077798680568051  1.0000
  C   C29       1.0  0.5312964680589617  0.024619119186375805  0.2366497002944783  1.0000
  C   C30       1.0  0.534715925494126  0.09705753211648022  0.2006942130285694  1.0000
  C   C31       1.0  0.5426754343352301  0.13180575695493252  0.23466378070559557  1.0000
  C   C32       1.0  0.5597568831849956  0.44737330219176413  0.34402146150191726  1.0000
  C   C33       1.0  0.5580305250032184  0.4138070002143622  0.30923249720789403  1.0000
  C   C34       1.0  0.7379625636167192  0.33023692039888186  0.24434275320955112  1.0000
  C   C35       1.0  0.7284184047850174  0.2952313138173397  0.21106121371418843  1.0000
  C   C36       1.0  0.4767002677095321  0.4463548906878928  0.709716491635376  1.0000
  C   C37       1.0  0.49623241427345044  0.4114986442099564  0.777741156988931  1.0000
  C   C38       1.0  0.3531642860990302  0.33186014779816025  0.9225154379792571  1.0000
  C   C39       1.0  0.3597217883271498  0.2990127630288484  0.9905613330640506  1.0000
  C   C40       1.0  0.5414647749550243  0.4128761991985216  0.4126041247763935  1.0000
  C   C41       1.0  0.5619920262812387  0.34450522526017124  0.3417637228424794  1.0000
  C   C42       1.0  0.5691623413503565  0.30792944628798585  0.3058647879267227  1.0000
  C   C43       1.0  0.5590203232846493  0.23635428537672007  0.23778115099450756  1.0000
  C   C44       1.0  0.5483776866311061  0.20050164344915797  0.2013200954038368  1.0000
  C   C45       1.0  0.54421830966988  0.23462741357331401  0.13255512245858364  1.0000
  O   O1        1.0  0.26096726163496703  0.5718859843981933  0.43608437640516245  1.0000
  O   O2        1.0  0.24744248338598848  0.491456749899804  0.5724371603688496  1.0000
  O   O3        1.0  0.289230955669261  0.4359160495663943  0.4922291013202909  1.0000
  O   O4        1.0  0.7140265134886336  0.5714951618640853  0.49132771197024994  1.0000
  O   O5        1.0  0.7568873123779202  0.490223773713062  0.4367149900871538  1.0000
  O   O6        1.0  0.7342055513783378  0.43656635926034687  0.5723365785783373  1.0000
  O   O7        1.0  0.9262244380134278  0.38543531490081057  0.21474276210046372  1.0000
  O   O8        1.0  0.8863088791194685  0.21728023171193203  0.8900569112092924  1.0000
  O   O9        1.0  0.8674466628429374  0.8902708876207726  0.3886200897554061  1.0000
