data_image0
_chemical_formula_structural       Hg4H36C32S4Br8
_chemical_formula_sum              "Hg4 H36 C32 S4 Br8"
_cell_length_a       6.258809690442104
_cell_length_b       11.833729156273197
_cell_length_c       15.021406295955424
_cell_angle_alpha    91.75224854988127
_cell_angle_beta     89.99647924181706
_cell_angle_gamma    89.99838111560943

_space_group_name_H-M_alt    "P 1"
_space_group_IT_number       1

loop_
  _space_group_symop_operation_xyz
  'x, y, z'

loop_
  _atom_site_type_symbol
  _atom_site_label
  _atom_site_symmetry_multiplicity
  _atom_site_fract_x
  _atom_site_fract_y
  _atom_site_fract_z
  _atom_site_occupancy
  Hg  Hg1       1.0  0.9687656555401248  0.6186145090329801  0.7610628982704457  1.0000
  Hg  Hg2       1.0  0.468744592215856  0.3813890367356477  0.7389286928204586  1.0000
  Hg  Hg3       1.0  0.031224554980994395  0.3813775853223902  0.23894329466958206  1.0000
  Hg  Hg4       1.0  0.5312312380128361  0.6186182873417038  0.2610791125801343  1.0000
  H   H1        1.0  0.23408265189456762  0.8290386121946157  0.6825468424379437  1.0000
  H   H2        1.0  0.7340731726761335  0.1710005292467116  0.8174533105221047  1.0000
  H   H3        1.0  0.7659059602253676  0.17095356103833126  0.3174680065156181  1.0000
  H   H4        1.0  0.26590265757434384  0.8290126884743003  0.18255194061286775  1.0000
  H   H5        1.0  0.28899375819376877  0.0371308758833777  0.6933090812146787  1.0000
  H   H6        1.0  0.78903599380169  0.9628964974636244  0.806692800311261  1.0000
  H   H7        1.0  0.7110156250025028  0.9628578852009111  0.30670237589392013  1.0000
  H   H8        1.0  0.21100055076644247  0.03712010147378209  0.19331251240371475  1.0000
  H   H9        1.0  0.004941445904371702  0.166970924360875  0.6420678664422398  1.0000
  H   H10       1.0  0.504935547324216  0.8330451974194445  0.857917658976348  1.0000
  H   H11       1.0  0.9950903068641851  0.8330244421530535  0.35792640310039303  1.0000
  H   H12       1.0  0.49509620526608  0.1669544022397034  0.14207735435256555  1.0000
  H   H13       1.0  0.6642078153868171  0.08948012118934662  0.5810455897889428  1.0000
  H   H14       1.0  0.16417382908989  0.9105573541852789  0.9189389828824803  1.0000
  H   H15       1.0  0.3358351219649692  0.9105219418354977  0.41894148001448184  1.0000
  H   H16       1.0  0.8358339588237201  0.0894260553527317  0.0810417518186597  1.0000
  H   H17       1.0  0.6116776805927345  0.8803796733609986  0.5663209248555108  1.0000
  H   H18       1.0  0.11164724618413402  0.11963754841608679  0.9336765800572596  1.0000
  H   H19       1.0  0.3883396918663849  0.11961660540703177  0.4336806847601481  1.0000
  H   H20       1.0  0.8883269886500925  0.8803400101912258  0.06631137025582491  1.0000
  H   H21       1.0  0.06749374607760221  0.6961826261156077  0.4749620779794769  1.0000
  H   H22       1.0  0.5674870216354364  0.3038259243814707  0.025025031912491606  1.0000
  H   H23       1.0  0.9324772908059415  0.3038263948950402  0.5250464245039979  1.0000
  H   H24       1.0  0.4325111784727866  0.6961778601368348  0.9749653988645621  1.0000
  H   H25       1.0  0.24353178810903836  0.6826628475980454  0.5681023750433527  1.0000
  H   H26       1.0  0.7435078220149335  0.31733281430403076  0.931872106359805  1.0000
  H   H27       1.0  0.7564584222575093  0.3173360040165107  0.4319032767560814  1.0000
  H   H28       1.0  0.2564696077233535  0.6826692431359689  0.06811429843149602  1.0000
  H   H29       1.0  0.1270667511768195  0.4832334319338401  0.5863120100026791  1.0000
  H   H30       1.0  0.6270835260706632  0.5167784724566501  0.9136830116280807  1.0000
  H   H31       1.0  0.8729042861381658  0.5167679560688896  0.413693688805104  1.0000
  H   H32       1.0  0.3729114785161585  0.48322615750087994  0.08630743477777263  1.0000
  H   H33       1.0  0.2428675256254564  0.5060304064055572  0.4819344107912259  1.0000
  H   H34       1.0  0.7428684356032704  0.4939587108906665  0.018053917001275  1.0000
  H   H35       1.0  0.7571178916254199  0.4939642181656367  0.5180711631285464  1.0000
  H   H36       1.0  0.2571217754649027  0.5060434253211525  0.9819411436205886  1.0000
  C   C1        1.0  0.9202092087097001  0.8429725833343938  0.6229343421809194  1.0000
  C   C2        1.0  0.42020270241149404  0.1570571239084231  0.8770682738548816  1.0000
  C   C3        1.0  0.0798129564403212  0.15702376213100416  0.37707459167569374  1.0000
  C   C4        1.0  0.5797827144306851  0.8429493425495026  0.12293818414433842  1.0000
  C   C5        1.0  0.11077975547078721  0.8862261176789373  0.6592190109413425  1.0000
  C   C6        1.0  0.6107572907708274  0.1138105678746228  0.8407795410927152  1.0000
  C   C7        1.0  0.8892248332908467  0.11378047603662368  0.3408014295721743  1.0000
  C   C8        1.0  0.38923132237594876  0.8861873776699409  0.1592194366826121  1.0000
  C   C9        1.0  0.1404925497354057  0.002968418407348802  0.6656509262813162  1.0000
  C   C10       1.0  0.6405270534287056  0.9970534515721423  0.8343459380632938  1.0000
  C   C11       1.0  0.8595072473157119  0.9970371479296813  0.33434952333613677  1.0000
  C   C12       1.0  0.359487122702113  0.0029488239952755006  0.16566443670313197  1.0000
  C   C13       1.0  0.9802736936239853  0.07580054463745968  0.6369047466554535  1.0000
  C   C14       1.0  0.4802585034571507  0.9242281154315323  0.8630783631588915  1.0000
  C   C15       1.0  0.0197372880928981  0.9241990733742467  0.3630922644746307  1.0000
  C   C16       1.0  0.5197524787158158  0.07576470892137618  0.1369151940380036  1.0000
  C   C17       1.0  0.7895288443965571  0.03208760705781801  0.6020987979506245  1.0000
  C   C18       1.0  0.2895202716111314  0.9679396556604584  0.8978917512293949  1.0000
  C   C19       1.0  0.21049012656519042  0.9679068959345826  0.39789345862961784  1.0000
  C   C20       1.0  0.7104955038330375  0.032048953711786496  0.10210305965712511  1.0000
  C   C21       1.0  0.7586465671267675  0.915406121510614  0.5947333284528684  1.0000
  C   C22       1.0  0.2586032580215871  0.0846173807398927  0.9052592608011027  1.0000
  C   C23       1.0  0.24137719632583549  0.0845867876807205  0.405269550420222  1.0000
  C   C24       1.0  0.7413901494270476  0.9153753830762453  0.09472763816310703  1.0000
  C   C25       1.0  0.09481182185304252  0.6520919327896877  0.5372869623104892  1.0000
  C   C26       1.0  0.5947942350598864  0.3479093223952673  0.962694029320055  1.0000
  C   C27       1.0  0.9051719976973304  0.347907740021185  0.46271604177587033  1.0000
  C   C28       1.0  0.4051815968063011  0.6520902230757172  0.03729499210970741  1.0000
  C   C29       1.0  0.09979040005021031  0.5244920124927005  0.5226393875449419  1.0000
  C   C30       1.0  0.5997967873707283  0.4755058725596298  0.9773507365737546  1.0000
  C   C31       1.0  0.9001870286849324  0.4755067967496416  0.4773616034977125  1.0000
  C   C32       1.0  0.4001934242786902  0.5244902972093116  0.022638888166156307  1.0000
  S   S1        1.0  0.8727805356538668  0.6953026076346587  0.6096502720453858  1.0000
  S   S2        1.0  0.37276829001047673  0.3047328030016985  0.8903463202385213  1.0000
  S   S3        1.0  0.1271936969805481  0.3046996439600989  0.39035743984675275  1.0000
  S   S4        1.0  0.6271963570430116  0.6952659699350363  0.10965067589298634  1.0000
  Br  Br1       1.0  0.42600241932314725  0.6105887446154625  0.7467276385457781  1.0000
  Br  Br2       1.0  0.9259787847752037  0.3894290295923781  0.7532732803593023  1.0000
  Br  Br3       1.0  0.5740085605030673  0.38942205186531  0.2532902164445404  1.0000
  Br  Br4       1.0  0.0740066326491657  0.610569785657816  0.24672837642734188  1.0000
  Br  Br5       1.0  0.9309566510020062  0.7168731064459097  0.9131551860740788  1.0000
  Br  Br6       1.0  0.43109196324406435  0.28319084285941176  0.5868191624113168  1.0000
  Br  Br7       1.0  0.0690207777530176  0.2831349659697864  0.08684198136421631  1.0000
  Br  Br8       1.0  0.5690052961593537  0.7168467636259448  0.41317255647613393  1.0000
