data_image0
_chemical_formula_structural       Cd6H44C36N16O32
_chemical_formula_sum              "Cd6 H44 C36 N16 O32"
_cell_length_a       11.381516689238408
_cell_length_b       11.273261180350856
_cell_length_c       12.8688
_cell_angle_alpha    106.73507122972624
_cell_angle_beta     106.57127892983017
_cell_angle_gamma    102.17895929927303

_space_group_name_H-M_alt    "P 1"
_space_group_IT_number       1

loop_
  _space_group_symop_operation_xyz
  'x, y, z'

loop_
  _atom_site_type_symbol
  _atom_site_label
  _atom_site_symmetry_multiplicity
  _atom_site_fract_x
  _atom_site_fract_y
  _atom_site_fract_z
  _atom_site_occupancy
  Cd  Cd1       1.0  0.17204300668061734  0.7250097234587258  0.5537347670530722  1.0000
  Cd  Cd2       1.0  0.7752820530311412  0.327532401540843  0.9465571691355594  1.0000
  Cd  Cd3       1.0  0.8279590847107627  0.2749901386219946  0.44626323906745574  1.0000
  Cd  Cd4       1.0  0.22472279839714562  0.6724703929130698  0.05344227287073274  1.0000
  Cd  Cd5       1.0  0.2530018783150966  0.2471306383482812  0.2506099762377616  1.0000
  Cd  Cd6       1.0  0.7469959285404643  0.7528672688169706  0.7493864560082318  1.0000
  H   H1        1.0  0.3441206442668091  0.7934405618090922  0.43552206060252985  1.0000
  H   H2        1.0  0.7068468750285178  0.1551450235753435  0.06438059804069246  1.0000
  H   H3        1.0  0.6558808492791499  0.20656321010254433  0.56448066631814  1.0000
  H   H4        1.0  0.29314848067463833  0.8448509286744468  0.9356154998670194  1.0000
  H   H5        1.0  0.37262404795426823  0.9088705002808978  0.5541074670156975  1.0000
  H   H6        1.0  0.5923093676704313  0.1260216704543211  0.9460783961617026  1.0000
  H   H7        1.0  0.6273780533988926  0.0911322941730148  0.4458951666622257  1.0000
  H   H8        1.0  0.40768783137792053  0.8739772141686543  0.053915798107340235  1.0000
  H   H9        1.0  0.9544316214956726  0.1712652564893133  0.14815783211567196  1.0000
  H   H10       1.0  0.3277441261600558  0.5470400843865235  0.3518219376376238  1.0000
  H   H11       1.0  0.045565577552686407  0.8287336281336692  0.8518402475195261  1.0000
  H   H12       1.0  0.6722549162334985  0.45296173260965833  0.6481804549447574  1.0000
  H   H13       1.0  0.9987050343150303  0.1928387260893842  0.04811629748733291  1.0000
  H   H14       1.0  0.3057344225905325  0.5022656780628267  0.4516651372879182  1.0000
  H   H15       1.0  0.001290630272620788  0.8071582036181368  0.9518816790410867  1.0000
  H   H16       1.0  0.6942667620709316  0.49773711639107887  0.5483357110120368  1.0000
  H   H17       1.0  0.2187465988746169  0.0330468684567364  0.6080875079658413  1.0000
  H   H18       1.0  0.46804617800049203  0.2809614279059716  0.8923763552565449  1.0000
  H   H19       1.0  0.7812609926669867  0.9669529936239769  0.3919111084704954  1.0000
  H   H20       1.0  0.5319580755823737  0.7190452763788642  0.10763013876958646  1.0000
  H   H21       1.0  0.9814855314398088  0.2800690089967759  0.6629375646646666  1.0000
  H   H22       1.0  0.2205952339143167  0.5175804858057447  0.8370020099471278  1.0000
  H   H23       1.0  0.01852115337187851  0.7199337854571297  0.33706311687787155  1.0000
  H   H24       1.0  0.779395249369401  0.4824203537327065  0.16299720000420595  1.0000
  H   H25       1.0  0.06908755752266421  0.0634624206992882  0.8828912059987175  1.0000
  H   H26       1.0  0.437343396744275  0.43161405574564776  0.6178510752805338  1.0000
  H   H27       1.0  0.9309099205248259  0.9365286442618412  0.1171026403173131  1.0000
  H   H28       1.0  0.5626583957243909  0.568387761250527  0.38215589636253366  1.0000
  H   H29       1.0  0.9830914794174181  0.495822276694355  0.3534960885863968  1.0000
  H   H30       1.0  0.0035582700320944015  0.5170057406593997  0.14639145177029894  1.0000
  H   H31       1.0  0.016910303089460402  0.5041766079286276  0.6465023701331063  1.0000
  H   H32       1.0  0.9964398457079613  0.4829931439635827  0.85360608202317  1.0000
  H   H33       1.0  0.12774299399174543  0.5033907319122051  0.35634966403418394  1.0000
  H   H34       1.0  0.9951612963657297  0.3708093426193173  0.14285216377896154  1.0000
  H   H35       1.0  0.8722554206710244  0.49660619779530896  0.6436490061887669  1.0000
  H   H36       1.0  0.004836211567123883  0.629190519461396  0.857147017403719  1.0000
  H   H37       1.0  0.4580755963135275  0.2615237034500382  0.4636990680842957  1.0000
  H   H38       1.0  0.23996662910885655  0.0430736298702428  0.03743524661442883  1.0000
  H   H39       1.0  0.5419194704287094  0.7384771360884059  0.5362997438781109  1.0000
  H   H40       1.0  0.7600290354787946  0.9569232998372783  0.9625619528407586  1.0000
  H   H41       1.0  0.5249601966383681  0.30884243224979  0.384065016150011  1.0000
  H   H42       1.0  0.19223136570122532  0.9744481395119421  0.11599505588655754  1.0000
  H   H43       1.0  0.4750397624468903  0.6911593847463919  0.6159360535174159  1.0000
  H   H44       1.0  0.8077642988864328  0.0255487901955789  0.8839998123489397  1.0000
  C   C1        1.0  0.09822592669869581  0.156766625952514  0.6206927662383849  1.0000
  C   C2        1.0  0.34419384222080407  0.40132361809278194  0.8796059836508833  1.0000
  C   C3        1.0  0.9017789247295911  0.8432361685013986  0.37930745284113254  1.0000
  C   C4        1.0  0.6558027490203459  0.5986762439879314  0.12039840581290658  1.0000
  C   C5        1.0  0.10373255019884202  0.187095184456922  0.5186261048923272  1.0000
  C   C6        1.0  0.31344832590870914  0.39530247846447253  0.981287709601901  1.0000
  C   C7        1.0  0.8962692323080361  0.8129037001660606  0.48137313090041545  1.0000
  C   C8        1.0  0.686546740833528  0.6046983610739716  0.01871421065342831  1.0000
  C   C9        1.0  0.15392313714839642  0.0413474395157607  0.7516246754661609  1.0000
  C   C10       1.0  0.4596820035728371  0.3462702662607597  0.7490217314088812  1.0000
  C   C11       1.0  0.8460807876263915  0.9586524225649526  0.2483722389709159  1.0000
  C   C12       1.0  0.540320396703038  0.6537305732776844  0.25098514699143953  1.0000
  C   C13       1.0  0.01644705787587951  0.1758690824064146  0.7776138591519202  1.0000
  C   C14       1.0  0.32484555588263225  0.48354052029342404  0.7227496917730535  1.0000
  C   C15       1.0  0.9835501212488964  0.8241239374701763  0.22237962780786807  1.0000
  C   C16       1.0  0.6751589766993646  0.5164583643295586  0.27725490015360077  1.0000
  C   C17       1.0  0.16257919298162452  0.0736504626385468  0.6561431406874761  1.0000
  C   C18       1.0  0.4274124995067866  0.3373294603873589  0.8443948240139253  1.0000
  C   C19       1.0  0.8374299330206867  0.9263513543576282  0.3438548017824063  1.0000
  C   C20       1.0  0.5725893029236744  0.6626752889820153  0.1556128898203752  1.0000
  C   C21       1.0  0.02773120739954041  0.210312737961992  0.684061778331632  1.0000
  C   C22       1.0  0.2904505448156983  0.4718100500532714  0.8161183136534547  1.0000
  C   C23       1.0  0.9722736340669514  0.7896871241187213  0.31593459026372295  1.0000
  C   C24       1.0  0.7095435952730471  0.5281878571119805  0.18388418732558895  1.0000
  C   C25       1.0  0.9381264012577406  0.2296331674900998  0.8419078055726104  1.0000
  C   C26       1.0  0.2706696637806658  0.56169706307589  0.658129336043949  1.0000
  C   C27       1.0  0.061872930096733114  0.7703637622174142  0.15808643344245615  1.0000
  C   C28       1.0  0.7293318198035053  0.4383037764625541  0.3418749799051711  1.0000
  C   C29       1.0  0.22099077298626923  0.9503538064213899  0.7886749710828199  1.0000
  C   C30       1.0  0.5504021110234305  0.2789957604071844  0.7119706267136864  1.0000
  C   C31       1.0  0.7790110095206091  0.0496450782015927  0.21131804812406338  1.0000
  C   C32       1.0  0.4495972302928379  0.7210041016735289  0.2880352335178601  1.0000
  C   C33       1.0  0.07840959384921582  0.0905946924204883  0.8103874988076428  1.0000
  C   C34       1.0  0.410207725471679  0.4219694803053073  0.690214285364249  1.0000
  C   C35       1.0  0.9215921886576695  0.9094041922024942  0.18960862869217016  1.0000
  C   C36       1.0  0.5898004838389284  0.5780323366908746  0.30979585904582774  1.0000
  N   N1        1.0  0.056418802360873606  0.253047189999279  0.3744488412543774  1.0000
  N   N2        1.0  0.24652056837680192  0.44267594489720347  0.12472492482145016  1.0000
  N   N3        1.0  0.9435820634543006  0.7469516946237036  0.6255478320871647  1.0000
  N   N4        1.0  0.7534790818239616  0.5573248946412406  0.875278151591424  1.0000
  N   N5        1.0  0.1560150978229871  0.2094779890589749  0.3780210076957005  1.0000
  N   N6        1.0  0.2907944230599782  0.3429517972610654  0.12190359412205966  1.0000
  N   N7        1.0  0.8439876113373899  0.7905238279372  0.6219776473733207  1.0000
  N   N8        1.0  0.7092040015645794  0.657048064819648  0.8780973724385962  1.0000
  N   N9        1.0  0.0216438537448056  0.23966188381907466  0.46221048531334225  1.0000
  N   N10       1.0  0.2600310628529172  0.4774812598135725  0.036947346535448886  1.0000
  N   N11       1.0  0.9783545708797591  0.7603379782616386  0.5377881500276162  1.0000
  N   N12       1.0  0.739969205116836  0.5225215346403331  0.9630579329723831  1.0000
  N   N13       1.0  0.18895671531119973  0.167741521365933  0.4666525075670904  1.0000
  N   N14       1.0  0.333166549609615  0.3099078611775212  0.033714348018598635  1.0000
  N   N15       1.0  0.8110456949264703  0.8322622505457106  0.5333457881456953  1.0000
  N   N16       1.0  0.6668306594005244  0.6900939558186536  0.966287582100769  1.0000
  O   O1        1.0  0.2824863174398402  0.8999521759353257  0.7299478126093036  1.0000
  O   O2        1.0  0.6006743484875159  0.21736705041288928  0.7707419003270888  1.0000
  O   O3        1.0  0.7175154650670379  0.1000467086876569  0.2700514231834319  1.0000
  O   O4        1.0  0.3993250027905333  0.7826357440410233  0.22926392502247248  1.0000
  O   O5        1.0  0.9019658959953887  0.1734850629983882  0.9069929039645291  1.0000
  O   O6        1.0  0.32650886400374196  0.5991581306497409  0.593546927893641  1.0000
  O   O7        1.0  0.09803740104861448  0.8265099117936642  0.09300184225957514  1.0000
  O   O8        1.0  0.6734913940042233  0.40084173143097246  0.40645760942295095  1.0000
  O   O9        1.0  0.3017386714166932  0.8418452461489493  0.4858150419018017  1.0000
  O   O10       1.0  0.6585629165923024  0.1977875945858329  0.014319014825375183  1.0000
  O   O11       1.0  0.6982612976303529  0.1581595032204248  0.5141859928836328  1.0000
  O   O12       1.0  0.34143183130365173  0.8022093351216881  0.9856771763250762  1.0000
  O   O13       1.0  0.21118360371493597  0.9281088233595298  0.8790218208561812  1.0000
  O   O14       1.0  0.5722820400889504  0.288537702785689  0.6214018483872294  1.0000
  O   O15       1.0  0.7888123896807928  0.0718949485521136  0.12097563330928567  1.0000
  O   O16       1.0  0.42771608561290014  0.7114641142104929  0.37860109003687387  1.0000
  O   O17       1.0  0.028351203003616415  0.21921933281478093  0.13415768904245343  1.0000
  O   O18       1.0  0.2793979325370728  0.47260179081608555  0.36558696614890357  1.0000
  O   O19       1.0  0.9716460060065233  0.7807824841814011  0.8658411327839846  1.0000
  O   O20       1.0  0.7206020165863976  0.527397093806897  0.6344133613272833  1.0000
  O   O21       1.0  0.07185881735129132  0.5551392991527848  0.37687725032526503  1.0000
  O   O22       1.0  0.944093384122546  0.4276749010862204  0.12326756642794132  1.0000
  O   O23       1.0  0.9281414406566743  0.4448605629279285  0.6231218474787074  1.0000
  O   O24       1.0  0.05590504050201873  0.5723249609944929  0.8767318459862496  1.0000
  O   O25       1.0  0.44293542160554017  0.2548398474795235  0.3826998324009808  1.0000
  O   O26       1.0  0.24804126757823752  0.0567785647287664  0.11858412228272643  1.0000
  O   O27       1.0  0.5570651452869272  0.7451609920589206  0.6173003669504737  1.0000
  O   O28       1.0  0.7519513480115947  0.9432203198942091  0.8814112470484687  1.0000
  O   O29       1.0  0.9065982484469972  0.3287336970933126  0.8324567786496361  1.0000
  O   O30       1.0  0.1714769023366216  0.5918301300339266  0.6668516252075565  1.0000
  O   O31       1.0  0.09340445075159211  0.67126518752967  0.16754191130137747  1.0000
  O   O32       1.0  0.828523654594058  0.40816777713132524  0.3331501631723486  1.0000
