data_image0
_chemical_formula_structural       Zn4H40C56N8O12
_chemical_formula_sum              "Zn4 H40 C56 N8 O12"
_cell_length_a       6.945041318
_cell_length_b       11.799941103707157
_cell_length_c       14.6548
_cell_angle_alpha    90.0
_cell_angle_beta     90.0
_cell_angle_gamma    102.41039493168533

_space_group_name_H-M_alt    "P 1"
_space_group_IT_number       1

loop_
  _space_group_symop_operation_xyz
  'x, y, z'

loop_
  _atom_site_type_symbol
  _atom_site_label
  _atom_site_symmetry_multiplicity
  _atom_site_fract_x
  _atom_site_fract_y
  _atom_site_fract_z
  _atom_site_occupancy
  Zn  Zn1       1.0  0.38693503645908567  0.8673970068701209  0.0340557360045821  1.0000
  Zn  Zn2       1.0  0.11306657695189407  0.6326027158008003  0.5340550536343045  1.0000
  Zn  Zn3       1.0  0.6130670837827309  0.1326033867358447  0.9659456287359802  1.0000
  Zn  Zn4       1.0  0.8869305899588085  0.3673959423291109  0.4659463111062578  1.0000
  H   H1        1.0  0.5668481704908003  0.2124856141096529  0.1866275895952185  1.0000
  H   H2        1.0  0.9331526998544247  0.2875145826933334  0.6866262248546562  1.0000
  H   H3        1.0  0.4331582693797529  0.7875147794963198  0.813373775145344  1.0000
  H   H4        1.0  0.06684415020508536  0.7124832076985541  0.3133724104047815  1.0000
  H   H5        1.0  0.3602435248777808  0.3036198004914326  0.2873781969047685  1.0000
  H   H6        1.0  0.13975897511937058  0.19638039631154666  0.7873754674236437  1.0000
  H   H7        1.0  0.6397669177703023  0.6963797253765023  0.7126245325763563  1.0000
  H   H8        1.0  0.860237068766281  0.8036191295563951  0.2126224854655163  1.0000
  H   H9        1.0  0.8436558379314362  0.058078573946382106  0.2006339219914324  1.0000
  H   H10       1.0  0.656346472290025  0.4419216228565972  0.70063255725087  1.0000
  H   H11       1.0  0.1563497957652585  0.941923555135638  0.7993674427491301  1.0000
  H   H12       1.0  0.34365245134811306  0.5580779030113447  0.29936744274913  1.0000
  H   H13       1.0  0.8526972579086304  0.9165847369824932  0.0994247618527737  1.0000
  H   H14       1.0  0.647304799429051  0.5834167211644896  0.599426126593336  1.0000
  H   H15       1.0  0.1473078864653985  0.0834199953136192  0.9005745557769488  1.0000
  H   H16       1.0  0.3526923674816587  0.4165819369654216  0.400575920517511  1.0000
  H   H17       1.0  0.8504186742853007  0.7836151647988672  0.9633983404754789  1.0000
  H   H18       1.0  0.6495816263249452  0.7163854256100848  0.4633983404754787  1.0000
  H   H19       1.0  0.1495771971288846  0.2163878320211907  0.0366030242650908  1.0000
  H   H20       1.0  0.3504163467596156  0.283611497043772  0.536600294783959  1.0000
  H   H21       1.0  0.8824294175540429  0.7118141816790313  0.066288178617242  1.0000
  H   H22       1.0  0.6175715167585876  0.788188144205975  0.5662874962469644  1.0000
  H   H23       1.0  0.11757365324135798  0.2881888151410195  0.933711821382758  1.0000
  H   H24       1.0  0.3824302866320366  0.2118113816619598  0.4337104566421957  1.0000
  H   H25       1.0  0.8160079973004952  0.5787639098588073  0.8944461882796093  1.0000
  H   H26       1.0  0.6839887898548721  0.9212349450740901  0.3944455059093244  1.0000
  H   H27       1.0  0.18398850781607473  0.4212408224372979  0.105551764609551  1.0000
  H   H28       1.0  0.3160096725523474  0.0787593743656885  0.6055524469798286  1.0000
  H   H29       1.0  0.001748620861945878  0.43917349652219434  0.829746567677482  1.0000
  H   H30       1.0  0.4982474859278482  0.0608249648047376  0.3297458853072045  1.0000
  H   H31       1.0  0.998247394931958  0.5608338389880032  0.1702493381008239  1.0000
  H   H32       1.0  0.5017519270329557  0.9391719578491191  0.6702547970630806  1.0000
  H   H33       1.0  0.36676758516463787  0.4697465104597285  0.8628756448399173  1.0000
  H   H34       1.0  0.1332285216251563  0.0302519508672034  0.3628763272101949  1.0000
  H   H35       1.0  0.6332242834720103  0.5302573540983531  0.1371188961978334  1.0000
  H   H36       1.0  0.8667729649142755  0.9697467072627078  0.6371270846412074  1.0000
  H   H37       1.0  0.5262973958223538  0.6432949837807698  0.9557967355405739  1.0000
  H   H38       1.0  0.9737005143580714  0.856703003414097  0.4557974179108584  1.0000
  H   H39       1.0  0.47370184466698345  0.3567054098251958  0.0442025820891416  1.0000
  H   H40       1.0  0.02629809242888109  0.1432956547158142  0.5442032644594264  1.0000
  C   C1        1.0  0.11727995282412709  0.0390638305406839  0.1381588285067039  1.0000
  C   C2        1.0  0.38272159661944727  0.4609337630482173  0.6381574637661347  1.0000
  C   C3        1.0  0.882725047170176  0.9609365630652889  0.8618432186041434  1.0000
  C   C4        1.0  0.6172763764651136  0.5390631596056394  0.3618425362338656  1.0000
  C   C5        1.0  0.3247589925819766  0.0873456421519023  0.1293371455086358  1.0000
  C   C6        1.0  0.1752414338365469  0.4126528191750225  0.6293350983977961  1.0000
  C   C7        1.0  0.6752474472885694  0.9126547514540633  0.8706669487130514  1.0000
  C   C8        1.0  0.82475397634672  0.587344971216865  0.3706662663427665  1.0000
  C   C9        1.0  0.4076195199980289  0.1816453368595248  0.18652728116384765  1.0000
  C   C10       1.0  0.09238473672655796  0.3183557276814923  0.6865265987935703  1.0000
  C   C11       1.0  0.5923883597487672  0.8183550567464479  0.8134761306875549  1.0000
  C   C12       1.0  0.90761418691158  0.6816437981864496  0.3134747659469923  1.0000
  C   C13       1.0  0.2913559615018997  0.23068989019728292  0.2446686409913497  1.0000
  C   C14       1.0  0.20864397559396505  0.2693111743437271  0.7446672762507873  1.0000
  C   C15       1.0  0.708648721641218  0.7693096356706591  0.7553340884897752  1.0000
  C   C16       1.0  0.7913538250191292  0.7306892192622385  0.2553320413789351  1.0000
  C   C17       1.0  0.08575321981489029  0.1887295501194188  0.2500068237028117  1.0000
  C   C18       1.0  0.4142489633310759  0.3112697789455368  0.7500061413325343  1.0000
  C   C19       1.0  0.914252586353278  0.8112691080104923  0.749995905778313  1.0000
  C   C20       1.0  0.5857499603070692  0.6887297469224052  0.24999454103775076  1.0000
  C   C21       1.0  0.002416461134203003  0.09308225825445501  0.19649602860496176  1.0000
  C   C22       1.0  0.49758540516056354  0.4069162030724769  0.6964946638643994  1.0000
  C   C23       1.0  0.9975870989838638  0.9069181353515177  0.8035073832464477  1.0000
  C   C24       1.0  0.5024143246514328  0.5930815873194106  0.3035067008761629  1.0000
  C   C25       1.0  0.013933785141638603  0.9367006399456203  0.0909033217785264  1.0000
  C   C26       1.0  0.4860695849967768  0.5632999504633318  0.5909040041488114  1.0000
  C   C27       1.0  0.986072482257441  0.0633032246124614  0.9090973605917512  1.0000
  C   C28       1.0  0.5139275819139256  0.4366987076665794  0.40909804296203595  1.0000
  C   C29       1.0  0.960567337941981  0.24098213094638513  0.31418784289106594  1.0000
  C   C30       1.0  0.5394332155520445  0.2590171981185705  0.8141864781505035  1.0000
  C   C31       1.0  0.039432708721207556  0.7590165271835261  0.6858121571089344  1.0000
  C   C32       1.0  0.4605639513586579  0.7409814600113407  0.1858128394792118  1.0000
  C   C33       1.0  0.9626087713608341  0.761404542236349  0.008919944318584803  1.0000
  C   C34       1.0  0.5373932859768471  0.7385969159106338  0.5089206266888695  1.0000
  C   C35       1.0  0.03739173653327298  0.2385993223217326  0.9910793733111307  1.0000
  C   C36       1.0  0.4626061269839567  0.2614000067432301  0.4910793733111305  1.0000
  C   C37       1.0  0.0728348949608346  0.6828004929776625  0.9599694298113947  1.0000
  C   C38       1.0  0.4271649617227097  0.817198361955235  0.4599694298113945  1.0000
  C   C39       1.0  0.9271656129332724  0.317203371580419  0.0400285230777655  1.0000
  C   C40       1.0  0.5728326945106587  0.18279769296059098  0.5400305701886055  1.0000
  C   C41       1.0  0.973719580189204  0.5900115301766462  0.9068578213281668  1.0000
  C   C42       1.0  0.5262789636936063  0.909988192494282  0.4068578213281668  1.0000
  C   C43       1.0  0.026276118753514797  0.4099949375955205  0.09313876682043093  1.0000
  C   C44       1.0  0.47371981556481296  0.0900069946835202  0.593140813931271  1.0000
  C   C45       1.0  0.07815936841193148  0.5124617826218767  0.8705188743619843  1.0000
  C   C46       1.0  0.4218372916679342  0.9875362045729972  0.3705181919916996  1.0000
  C   C47       1.0  0.9218377704070305  0.48754468515029  0.129476349046044  1.0000
  C   C48       1.0  0.5781614875904779  0.0124589826048052  0.6294818080083004  1.0000
  C   C49       1.0  0.27990463783235947  0.529082436808558  0.8892867865818701  1.0000
  C   C50       1.0  0.2200934621237494  0.9709155503863088  0.3892867865818701  1.0000
  C   C51       1.0  0.7200918672842106  0.47092229548754727  0.1107077544558805  1.0000
  C   C52       1.0  0.7799059508370547  0.029081372267548  0.6107138957884075  1.0000
  C   C53       1.0  0.3690068491452151  0.6248998053269972  0.9405157354586893  1.0000
  C   C54       1.0  0.13099093395970127  0.8750973141298458  0.4405157354586891  1.0000
  C   C55       1.0  0.6309920744929228  0.3750997205409448  0.05948085268990161  1.0000
  C   C56       1.0  0.8690081621499103  0.1248987407859872  0.5594849469115957  1.0000
  N   N1        1.0  0.09345013534908014  0.8655417829664387  0.04398490596937421  1.0000
  N   N2        1.0  0.4065532347893423  0.6344588074425133  0.5439849059693742  1.0000
  N   N3        1.0  0.9065526185951284  0.1344603461155813  0.9560157764009036  1.0000
  N   N4        1.0  0.593445055146411  0.3655389829493743  0.45601577640090346  1.0000
  N   N5        1.0  0.2683364037343381  0.7013718222511045  0.9737137320195401  1.0000
  N   N6        1.0  0.23166425912306465  0.7986252972057386  0.4737137320195401  1.0000
  N   N7        1.0  0.7316617137299417  0.298629439092899  0.026286267980459906  1.0000
  N   N8        1.0  0.7683348369865469  0.2013707577100874  0.5262869503507375  1.0000
  O   O1        1.0  0.4359700112090437  0.0470669783721434  0.069573791522231  1.0000
  O   O2        1.0  0.06403104891186467  0.452933218430843  0.5695717444113841  1.0000
  O   O3        1.0  0.5640332320578236  0.9529325474957986  0.9304289379588939  1.0000
  O   O4        1.0  0.9359670685524221  0.5470680429131534  0.4304289379588937  1.0000
  O   O5        1.0  0.057517437710302474  0.3173482838310804  0.3716318202909648  1.0000
  O   O6        1.0  0.4424821825343698  0.182651912971906  0.8716304555504024  1.0000
  O   O7        1.0  0.9424808522254579  0.6826495065608071  0.6283709091901601  1.0000
  O   O8        1.0  0.5575184978312108  0.8173484806340667  0.1283709091901599  1.0000
  O   O9        1.0  0.7769284184507581  0.2096212108795044  0.3117545104675585  1.0000
  O   O10       1.0  0.7230721350432746  0.2903781181854512  0.8117524633567186  1.0000
  O   O11       1.0  0.2230719450636299  0.7903783149884375  0.6882461719027191  1.0000
  O   O12       1.0  0.27692966834735694  0.7096214076824907  0.1882461719027191  1.0000
