data_image0
_chemical_formula_structural       Cd2H40C36N4O8
_chemical_formula_sum              "Cd2 H40 C36 N4 O8"
_cell_length_a       5.120576297135537
_cell_length_b       9.74747517855577
_cell_length_c       16.53494317578757
_cell_angle_alpha    97.31245290117816
_cell_angle_beta     89.99930319268583
_cell_angle_gamma    89.99952611971274

_space_group_name_H-M_alt    "P 1"
_space_group_IT_number       1

loop_
  _space_group_symop_operation_xyz
  'x, y, z'

loop_
  _atom_site_type_symbol
  _atom_site_label
  _atom_site_symmetry_multiplicity
  _atom_site_fract_x
  _atom_site_fract_y
  _atom_site_fract_z
  _atom_site_occupancy
  Cd  Cd1       1.0  0.11517030586139748  0.24849727064630403  0.008635011355281096  1.0000
  Cd  Cd2       1.0  0.6151926013912926  0.7515266992992409  0.99136386441252  1.0000
  H   H1        1.0  0.5129645259494495  0.41646875284564544  0.0744093978576146  1.0000
  H   H2        1.0  0.0129702194630994  0.5835393430273541  0.9255954449268058  1.0000
  H   H3        1.0  0.4372574200418882  0.3255610767429431  0.14802429573336437  1.0000
  H   H4        1.0  0.9372888388430667  0.67443449984345  0.8519739856832229  1.0000
  H   H5        1.0  0.7799195774220068  0.19443625727155478  0.8708673245949823  1.0000
  H   H6        1.0  0.279917963750286  0.8055734342237101  0.12912881613385707  1.0000
  H   H7        1.0  0.7502019928705367  0.0725602043010696  0.9304254095832147  1.0000
  H   H8        1.0  0.2501988788883764  0.927452830160966  0.06957468606795907  1.0000
  H   H9        1.0  0.32247681984525656  0.5888133316259213  0.16149937088128036  1.0000
  H   H10       1.0  0.8224702819000457  0.41119243060767724  0.8385120860689098  1.0000
  H   H11       1.0  0.9184241241445009  0.5396785437708117  0.24015463623619124  1.0000
  H   H12       1.0  0.41843301719805476  0.4603308721524755  0.7598561176276915  1.0000
  H   H13       1.0  0.9466478348465228  0.3624931118807879  0.2029390033317071  1.0000
  H   H14       1.0  0.44666974846725077  0.6375159592598789  0.7970637648367214  1.0000
  H   H15       1.0  0.4942869081071493  0.6074466449114766  0.27770359739209727  1.0000
  H   H16       1.0  0.9943129191867968  0.3925540164251514  0.7223020761875458  1.0000
  H   H17       1.0  0.7547805982537384  0.5814684115611826  0.40111084041350137  1.0000
  H   H18       1.0  0.25479306940568586  0.41852079811415177  0.5988870613697586  1.0000
  H   H19       1.0  0.6362251938330558  0.4062741609984002  0.48976289014339597  1.0000
  H   H20       1.0  0.1362091503288738  0.5937031039170719  0.5102304085749907  1.0000
  H   H21       1.0  0.2577289261973732  0.2468148851235981  0.451760262877805  1.0000
  H   H22       1.0  0.7577034572292192  0.753161788289603  0.5482325670001416  1.0000
  H   H23       1.0  0.004783296544182701  0.2685163223579393  0.32617385894774736  1.0000
  H   H24       1.0  0.5047743863034242  0.7314699676648856  0.6738247344767884  1.0000
  H   H25       1.0  0.19467070168847297  0.11570269558423259  0.8237617998391327  1.0000
  H   H26       1.0  0.6946508760397948  0.8843106252151993  0.17623911603310202  1.0000
  H   H27       1.0  0.088851419517546  0.861460423574599  0.7635234511067779  1.0000
  H   H28       1.0  0.5887810947634051  0.1385515036212297  0.23648379570023073  1.0000
  H   H29       1.0  0.7770754800473939  0.8913122580180612  0.8089629911410227  1.0000
  H   H30       1.0  0.2770166140737587  0.10868416241238066  0.19103833217852884  1.0000
  H   H31       1.0  0.184438417679452  0.9358531533772947  0.6361931588467654  1.0000
  H   H32       1.0  0.6844010908568946  0.06413623937304182  0.36379895542231816  1.0000
  H   H33       1.0  0.0628661891438398  0.06235388419889891  0.5211119943564099  1.0000
  H   H34       1.0  0.5628444355847718  0.9376267766581633  0.4788793686492808  1.0000
  H   H35       1.0  0.6721437612550074  0.2153650820164188  0.5313008569869451  1.0000
  H   H36       1.0  0.17212429426317746  0.7846171949724194  0.4686932504021539  1.0000
  H   H37       1.0  0.40216736850786816  0.23919139346340762  0.6582515255305451  1.0000
  H   H38       1.0  0.902148514279311  0.7607888251865376  0.34174526139783973  1.0000
  H   H39       1.0  0.52497055774694  0.11360602921757133  0.7725376310225653  1.0000
  H   H40       1.0  0.0249400049844724  0.8863780622872073  0.22745953619097747  1.0000
  C   C1        1.0  0.9799867671743101  0.5412870811247501  0.08916935455876998  1.0000
  C   C2        1.0  0.47997956406269543  0.45873232923880625  0.9108400267882572  1.0000
  C   C3        1.0  0.19917151138106698  0.49719179710301376  0.1447707256006083  1.0000
  C   C4        1.0  0.6991744410578491  0.5028237296195001  0.8552363684514857  1.0000
  C   C5        1.0  0.06048273137216139  0.457368262242113  0.22081206393971795  1.0000
  C   C6        1.0  0.5604960035813491  0.5426385840299728  0.7791931330990847  1.0000
  C   C7        1.0  0.23245616019692505  0.438583501630589  0.2926668079987138  1.0000
  C   C8        1.0  0.7324643302792637  0.5614110834178092  0.7073351567284047  1.0000
  C   C9        1.0  0.4444818698177854  0.5263252494769047  0.31481449631873193  1.0000
  C   C10       1.0  0.9445022170299566  0.47366833522170276  0.6851878620293801  1.0000
  C   C11       1.0  0.5893548248228484  0.5132334517629076  0.3847962702127105  1.0000
  C   C12       1.0  0.08935959927287482  0.4867565951847651  0.6152034817397405  1.0000
  C   C13       1.0  0.5229812296970665  0.4133185065440373  0.434621682527677  1.0000
  C   C14       1.0  0.022978605904086197  0.586663478336078  0.5653735380495987  1.0000
  C   C15       1.0  0.3121155291306223  0.3252867475312086  0.4133796653959435  1.0000
  C   C16       1.0  0.8120995317008947  0.6746949118139369  0.5866163254820476  1.0000
  C   C17       1.0  0.1697247409635807  0.3373676558406018  0.34264646112304575  1.0000
  C   C18       1.0  0.6697235444013429  0.6626189132127819  0.6573533817969376  1.0000
  C   C19       1.0  0.2659095464653802  0.9742035424952108  0.9071204161980047  1.0000
  C   C20       1.0  0.7658998990361852  0.025829256634672497  0.09288818688511208  1.0000
  C   C21       1.0  0.07107134403767648  0.042836422181252894  0.8523970318999047  1.0000
  C   C22       1.0  0.5710495425525933  0.9571753522094042  0.14760119485323028  1.0000
  C   C23       1.0  0.9457284659952521  0.942274740547809  0.7840810072394006  1.0000
  C   C24       1.0  0.445681129075453  0.057727032065855596  0.21591886308481625  1.0000
  C   C25       1.0  0.8642723378019568  0.015424658350099199  0.7130639263254537  1.0000
  C   C26       1.0  0.3642434830458399  0.9845660708217066  0.2869330836709309  1.0000
  C   C27       1.0  0.012955716202817798  0.002867320469285097  0.6412450110204517  1.0000
  C   C28       1.0  0.5129243483330229  0.9971177201779753  0.35874681768792976  1.0000
  C   C29       1.0  0.9449414157931955  0.07468143197169037  0.5764782347336064  1.0000
  C   C30       1.0  0.44492929031641637  0.9253015534116071  0.4235137447051612  1.0000
  C   C31       1.0  0.7257289175453608  0.16047541951818542  0.5822076325145886  1.0000
  C   C32       1.0  0.225706762964009  0.839504480363324  0.41778431384648224  1.0000
  C   C33       1.0  0.5758847986252605  0.17413839982540943  0.6531885862343285  1.0000
  C   C34       1.0  0.0758697695270811  0.8258443936263473  0.34680771030431845  1.0000
  C   C35       1.0  0.6449387727518427  0.10227181469642228  0.7177390346728599  1.0000
  C   C36       1.0  0.1449135326941686  0.897711612996659  0.2822546400737238  1.0000
  N   N1        1.0  0.3577941309044306  0.3811736187007213  0.10567252658199777  1.0000
  N   N2        1.0  0.8578129864130091  0.6188368713667813  0.8943288350194221  1.0000
  N   N3        1.0  0.8843979074459869  0.13050854421357627  0.9033293984190036  1.0000
  N   N4        1.0  0.38439072390069373  0.8695038209931029  0.09666957350012949  1.0000
  O   O1        1.0  0.870379852385412  0.44882078723784263  0.0387430644076687  1.0000
  O   O2        1.0  0.37037873036503305  0.5512167540002578  0.9612685064143134  1.0000
  O   O3        1.0  0.9087571381901823  0.6664236238055495  0.10165404326259159  1.0000
  O   O4        1.0  0.4087330421712991  0.33361374660341886  0.8983579854181086  1.0000
  O   O5        1.0  0.3619325827077517  0.0521777641909509  0.9676954954040297  1.0000
  O   O6        1.0  0.8619372764896269  0.9478387833412325  0.032301412652323266  1.0000
  O   O7        1.0  0.33421583652147996  0.8497454684976092  0.886759383329341  1.0000
  O   O8        1.0  0.8342051857171171  0.1502559403139756  0.11324569619398517  1.0000
