data_image0
_chemical_formula_structural       Mg6H28C24S4O28
_chemical_formula_sum              "Mg6 H28 C24 S4 O28"
_cell_length_a       6.4255778106719355
_cell_length_b       7.931844334182162
_cell_length_c       19.31100505253702
_cell_angle_alpha    89.99915483175474
_cell_angle_beta     89.99995667657281
_cell_angle_gamma    96.95657016120155

_space_group_name_H-M_alt    "P 1"
_space_group_IT_number       1

loop_
  _space_group_symop_operation_xyz
  'x, y, z'

loop_
  _atom_site_type_symbol
  _atom_site_label
  _atom_site_symmetry_multiplicity
  _atom_site_fract_x
  _atom_site_fract_y
  _atom_site_fract_z
  _atom_site_occupancy
  Mg  Mg1       1.0  0.9999949497119827  0.9999961546440801  0.49999980861887394  1.0000
  Mg  Mg2       1.0  4.833044229681149e-06  0.500001462610463  2.1045461977999994e-06  1.0000
  Mg  Mg3       1.0  0.47290739747523963  0.8101982076126718  0.48279471949322783  1.0000
  Mg  Mg4       1.0  0.5270945600057501  0.6898008281189121  0.9827933943745464  1.0000
  Mg  Mg5       1.0  0.5270832529572048  0.18979388629352908  0.5172075475294874  1.0000
  Mg  Mg6       1.0  0.4729156290274901  0.31020781465880287  0.017207319077059  1.0000
  H   H1        1.0  0.7069056879391908  0.04605415276952131  0.42203891203557475  1.0000
  H   H2        1.0  0.2930959701440372  0.453951815098506  0.9220401826958239  1.0000
  H   H3        1.0  0.29307643582165344  0.9539328437116906  0.5779597301276665  1.0000
  H   H4        1.0  0.7069050638486871  0.5460580771713736  0.0779615664320232  1.0000
  H   H5        1.0  0.8034245265690315  0.7337629452842479  0.4099447399859955  1.0000
  H   H6        1.0  0.19656739541836285  0.766251425497785  0.909947694485517  1.0000
  H   H7        1.0  0.19656263892825615  0.2662266016571735  0.5900539021688402  1.0000
  H   H8        1.0  0.8034297822506814  0.23375337956849046  0.0900540546582889  1.0000
  H   H9        1.0  0.5939943884341901  0.6340045382151445  0.3790259127548197  1.0000
  H   H10       1.0  0.4059951442508164  0.8660249228942263  0.8790292430424529  1.0000
  H   H11       1.0  0.4059871069657247  0.3659888052210718  0.6209753185863818  1.0000
  H   H12       1.0  0.5939981771105282  0.13397479504412504  0.12096836340180768  1.0000
  H   H13       1.0  0.27277335644297546  0.5142049076542535  0.5259570442204407  1.0000
  H   H14       1.0  0.7272291539883043  0.9857904980564245  0.025955165556531795  1.0000
  H   H15       1.0  0.7272134376777688  0.4857820991051085  0.47404211578160727  1.0000
  H   H16       1.0  0.2727763646850434  0.014218134443140702  0.97404503005626  1.0000
  H   H17       1.0  0.11440404598170767  0.6499262976579488  0.515418101248855  1.0000
  H   H18       1.0  0.8856030304122411  0.8500682332791669  0.0154180434106408  1.0000
  H   H19       1.0  0.8855899037225896  0.35006707324025405  0.4845815765723671  1.0000
  H   H20       1.0  0.11440615889352301  0.1499442163187865  0.9845831878689495  1.0000
  H   H21       1.0  0.17219185588485428  0.6417081500769583  0.6462973762556103  1.0000
  H   H22       1.0  0.827836349152136  0.858315929012839  0.1462972830229745  1.0000
  H   H23       1.0  0.8278062071295051  0.35828142089725645  0.35369971237945913  1.0000
  H   H24       1.0  0.17219037932742506  0.14172068322953632  0.8536961805893526  1.0000
  H   H25       1.0  0.1938657748151655  0.5976575162321396  0.7823328920843693  1.0000
  H   H26       1.0  0.8061481125464383  0.9023666420912589  0.2823304651145406  1.0000
  H   H27       1.0  0.8061288032440643  0.40232950768268694  0.2176657500771952  1.0000
  H   H28       1.0  0.19386281925985568  0.09764708114517619  0.7176640342482727  1.0000
  C   C1        1.0  0.8233393169652031  0.6407235811354467  0.8627769665172949  1.0000
  C   C2        1.0  0.1766433280718615  0.8592797950743998  0.36277547920552417  1.0000
  C   C3        1.0  0.176656075132243  0.3592583658633757  0.1372216756596103  1.0000
  C   C4        1.0  0.82334532292559  0.14071991256688673  0.6372226450787934  1.0000
  C   C5        1.0  0.8680128221496233  0.645919839530123  0.7877725630306287  1.0000
  C   C6        1.0  0.132006207550475  0.8540863559086347  0.287774225687059  1.0000
  C   C7        1.0  0.1319724151758308  0.35406716376219555  0.2122286683293808  1.0000
  C   C8        1.0  0.8680176211919105  0.14591977754982827  0.7122270056098827  1.0000
  C   C9        1.0  0.8449207622407969  0.6804941183161544  0.6609965631839856  1.0000
  C   C10       1.0  0.1550882334792191  0.8195052577838806  0.160996358897016  1.0000
  C   C11       1.0  0.15507485864095116  0.31951068332092086  0.3390051859600192  1.0000
  C   C12       1.0  0.8449244407776814  0.18050973885453203  0.8390043545349498  1.0000
  C   C13       1.0  0.7788551479043803  0.7260874589059937  0.5908162431277545  1.0000
  C   C14       1.0  0.22116250136407697  0.7738954540199784  0.090818370736983  1.0000
  C   C15       1.0  0.22113394575274728  0.2739046316277722  0.4091829168585406  1.0000
  C   C16       1.0  0.7788643265567572  0.22609925895883978  0.9091823427548674  1.0000
  C   C17       1.0  0.04256756801227366  0.6475227648120593  0.6822053973321403  1.0000
  C   C18       1.0  0.957427810051236  0.852479615629413  0.18221359204318324  1.0000
  C   C19       1.0  0.9574173261247408  0.35242995646611774  0.317794280613839  1.0000
  C   C20       1.0  0.04258602143631409  0.14756458612605883  0.8177876391392758  1.0000
  C   C21       1.0  0.05496542578968189  0.6260772416977859  0.7544911859319469  1.0000
  C   C22       1.0  0.9450428205654758  0.8739504603424066  0.2544878608285046  1.0000
  C   C23       1.0  0.9450372793864901  0.37394408133934587  0.24551108100036595  1.0000
  C   C24       1.0  0.054966882697073095  0.12604421492465429  0.745512334826195  1.0000
  S   S1        1.0  0.6760195035778835  0.6850674764699817  0.7299215177383118  1.0000
  S   S2        1.0  0.3239831759788601  0.8149217505048371  0.2299228519210601  1.0000
  S   S3        1.0  0.3239662908013941  0.3149233370433961  0.2700817849677861  1.0000
  S   S4        1.0  0.6760338685525155  0.18508055897791556  0.7700783793883659  1.0000
  O   O1        1.0  0.9244536538167124  0.7630366419089256  0.5460820346148623  1.0000
  O   O2        1.0  0.0755625267448181  0.7369567891424184  0.04608753090247569  1.0000
  O   O3        1.0  0.07553736799626169  0.2369579921982563  0.45391867888177023  1.0000
  O   O4        1.0  0.9244662724488747  0.26306205205637667  0.9539126646763165  1.0000
  O   O5        1.0  0.6970498294678931  0.0172289201004716  0.47098052404290053  1.0000
  O   O6        1.0  0.3029514510932856  0.48277525961433554  0.9709810990714516  1.0000
  O   O7        1.0  0.30294082097253744  0.9827631738435725  0.5290196716220663  1.0000
  O   O8        1.0  0.697057552521208  0.517235919878395  0.029021167890903095  1.0000
  O   O9        1.0  0.5860986913798384  0.7341699155208516  0.5792244072111856  1.0000
  O   O10       1.0  0.413918090704982  0.7658388124468588  0.0792223922281536  1.0000
  O   O11       1.0  0.4138942585929826  0.26582726217867503  0.4207768241169063  1.0000
  O   O12       1.0  0.5861089660241277  0.23417875528372892  0.920775214157544  1.0000
  O   O13       1.0  0.6716985616556385  0.657766789392305  0.4219961471865901  1.0000
  O   O14       1.0  0.32829719498459287  0.8422420710222982  0.9219986060954072  1.0000
  O   O15       1.0  0.3282903463062254  0.34222403101731663  0.5780050841613473  1.0000
  O   O16       1.0  0.6717029105817643  0.1577614708633774  0.07800055385467179  1.0000
  O   O17       1.0  0.24041986579619126  0.6073056620529655  0.4951416938149649  1.0000
  O   O18       1.0  0.7595911514804853  0.8926916730542872  0.9951401114890501  1.0000
  O   O19       1.0  0.7595694135462095  0.3926876985576371  0.5048579840068896  1.0000
  O   O20       1.0  0.24042196544208136  0.10731570650498412  0.0048600841265909  1.0000
  O   O21       1.0  0.6370635445459596  0.6521615397479151  0.8820659566103118  1.0000
  O   O22       1.0  0.36290594032784174  0.8478372939558412  0.3820675986038466  1.0000
  O   O23       1.0  0.36293986027427394  0.34784327904462486  0.1179352746932238  1.0000
  O   O24       1.0  0.6370741839760468  0.15215731615639072  0.6179325970548035  1.0000
  O   O25       1.0  0.9775075063653201  0.6246353430613283  0.9036448842939037  1.0000
  O   O26       1.0  0.022496775959247338  0.8753995999539157  0.403642302517909  1.0000
  O   O27       1.0  0.02249415598434009  0.3753682022346326  0.0963553113348468  1.0000
  O   O28       1.0  0.97749735943232  0.12459504103058801  0.5963573752994336  1.0000
