data_image0
_chemical_formula_structural       Rb4U2H24C28N4O26
_chemical_formula_sum              "Rb4 U2 H24 C28 N4 O26"
_cell_length_a       7.614020891259967
_cell_length_b       12.11993319525599
_cell_length_c       12.119984818423573
_cell_angle_alpha    74.88967894906476
_cell_angle_beta     73.51095674457106
_cell_angle_gamma    73.51070669062631

_space_group_name_H-M_alt    "P 1"
_space_group_IT_number       1

loop_
  _space_group_symop_operation_xyz
  'x, y, z'

loop_
  _atom_site_type_symbol
  _atom_site_label
  _atom_site_symmetry_multiplicity
  _atom_site_fract_x
  _atom_site_fract_y
  _atom_site_fract_z
  _atom_site_occupancy
  Rb  Rb1       1.0  0.03963375806665677  0.6311946440654881  0.2636192848776773  1.0000
  Rb  Rb2       1.0  0.460366187670715  0.7363824893458427  0.36880369964045917  1.0000
  Rb  Rb3       1.0  0.9603680401305753  0.36880601798866763  0.7363781877273183  1.0000
  Rb  Rb4       1.0  0.5396323006814042  0.2636234198807657  0.6311971365129736  1.0000
  U   U1        1.0  2.043700391073858e-06  0.49999817329150903  2.4744741864184673e-06  1.0000
  U   U2        1.0  0.5000068645701319  8.347014315007214e-07  0.5000013675748605  1.0000
  H   H1        1.0  0.4316068587112054  0.5021553987189125  0.25309502283325  1.0000
  H   H2        1.0  0.0683918500508368  0.7469027937161888  0.49784664448637966  1.0000
  H   H3        1.0  0.5683925995755813  0.49784788106934724  0.7469054923683062  1.0000
  H   H4        1.0  0.9316119627143918  0.25309611323791614  0.5021517468428202  1.0000
  H   H5        1.0  0.5721080391021687  0.5855641921207209  0.18645965247576157  1.0000
  H   H6        1.0  0.9278838281591959  0.8135354979061662  0.4144406971120062  1.0000
  H   H7        1.0  0.42789408139117313  0.41443558653128315  0.813539640313678  1.0000
  H   H8        1.0  0.07211314081985169  0.1864633920628833  0.5855597394301881  1.0000
  H   H9        1.0  0.7549562308694244  0.47333570047116785  0.44091811703344774  1.0000
  H   H10       1.0  0.7450461457546849  0.5590814180037003  0.5266661381133558  1.0000
  H   H11       1.0  0.24504661196112923  0.5266658359212856  0.5590805952476289  1.0000
  H   H12       1.0  0.2549556528777328  0.44091924701732693  0.47333050856232006  1.0000
  H   H13       1.0  0.9518802180322296  0.11157264239948013  0.3856559126766825  1.0000
  H   H14       1.0  0.5481222459713706  0.6143436765094422  0.8884270007418992  1.0000
  H   H15       1.0  0.04811200164956384  0.8884280148635711  0.6143391372788758  1.0000
  H   H16       1.0  0.4518836586716403  0.3856569969224922  0.11156891436358046  1.0000
  H   H17       1.0  0.1742484057288466  0.9529136634642087  0.28491040631494263  1.0000
  H   H18       1.0  0.32573027660301074  0.7150924476487717  0.04708385563435511  1.0000
  H   H19       1.0  0.8257307731487555  0.04708520785877821  0.715088244788909  1.0000
  H   H20       1.0  0.6742765962339163  0.28490558447732894  0.9529150422365048  1.0000
  H   H21       1.0  0.3498553377040281  0.009245551051151301  0.07506460927656627  1.0000
  H   H22       1.0  0.15012955899591415  0.9249393464913996  0.9907425056583107  1.0000
  H   H23       1.0  0.6501356844656102  0.990747200585311  0.9249326871815172  1.0000
  H   H24       1.0  0.8498718382898431  0.0750586684864061  0.009259019498124065  1.0000
  C   C1        1.0  0.9958631954402508  0.24647033857787193  0.23110961101347977  1.0000
  C   C2        1.0  0.5041360436570129  0.7688918540001314  0.7535294511304756  1.0000
  C   C3        1.0  0.004134819477684496  0.7535294346300888  0.7688895874168511  1.0000
  C   C4        1.0  0.49586164722405357  0.23110879074250337  0.24647123083267536  1.0000
  C   C5        1.0  0.026521246966325403  0.13138332052685803  0.294389697677758  1.0000
  C   C6        1.0  0.47347905999002643  0.70561228720959  0.8686149777824639  1.0000
  C   C7        1.0  0.9734791834310811  0.8686173446574021  0.7056063669253377  1.0000
  C   C8        1.0  0.5265237828405277  0.2943892491828635  0.13138373449861257  1.0000
  C   C9        1.0  0.1523820081510223  0.04365735397956171  0.23778956100392892  1.0000
  C   C10       1.0  0.34761050384415176  0.7622114742151354  0.9563405708487451  1.0000
  C   C11       1.0  0.8476176986036065  0.9563415445636282  0.7622095618954746  1.0000
  C   C12       1.0  0.652390247108613  0.23778829569948806  0.04366061765606593  1.0000
  C   C13       1.0  0.24591952714092  0.074301903608756  0.12136740375257922  1.0000
  C   C14       1.0  0.25407223175287913  0.8786337119241878  0.9256946795099735  1.0000
  C   C15       1.0  0.7540770444081628  0.9256943630189131  0.8786304779065192  1.0000
  C   C16       1.0  0.7459281955981965  0.12136693249197349  0.0743071665983379  1.0000
  C   C17       1.0  0.2044449284633529  0.1914674538979355  0.06442082410805482  1.0000
  C   C18       1.0  0.29555628371162607  0.9355824523936465  0.8085297715281075  1.0000
  C   C19       1.0  0.7955574400626447  0.8085279405421278  0.9355779023085516  1.0000
  C   C20       1.0  0.7044400371936703  0.06441818064473642  0.19147363207972753  1.0000
  C   C21       1.0  0.8721055664393161  0.34957410060938815  0.2823866982546619  1.0000
  C   C22       1.0  0.6278983955834075  0.7176114663460712  0.6504284200313748  1.0000
  C   C23       1.0  0.12789486265252484  0.6504265556742653  0.7176118441363853  1.0000
  C   C24       1.0  0.3720989716959764  0.2823900528981014  0.3495729195352766  1.0000
  C   C25       1.0  0.2952429258443486  0.23527504959195517  0.9397559271316211  1.0000
  C   C26       1.0  0.2047635355947861  0.06025274090720962  0.7647249229570434  1.0000
  C   C27       1.0  0.7047587928671389  0.7647220760499566  0.06024907006788985  1.0000
  C   C28       1.0  0.7952351986140371  0.9397487692731092  0.23527947647013997  1.0000
  N   N1        1.0  0.08045658901828291  0.27576579503011084  0.11758576164055509  1.0000
  N   N2        1.0  0.41954565468780897  0.8824144161641457  0.7242322463629949  1.0000
  N   N3        1.0  0.9195413512009978  0.7242304744011964  0.8824118761618108  1.0000
  N   N4        1.0  0.5804534048634551  0.11758623138211993  0.275768191743424  1.0000
  O   O1        1.0  0.8561975862760178  0.44736055820824566  0.2088382575989911  1.0000
  O   O2        1.0  0.6438071094014572  0.7911596298000847  0.5526389558457937  1.0000
  O   O3        1.0  0.14380928743128144  0.5526374798515976  0.7911589884132368  1.0000
  O   O4        1.0  0.3561851814974659  0.208844507504658  0.44736426217225767  1.0000
  O   O5        1.0  0.2036127918237511  0.6627555211384717  0.6095331971057334  1.0000
  O   O6        1.0  0.2963851129600101  0.3904686749748124  0.3372413880485254  1.0000
  O   O7        1.0  0.7963900523123685  0.3372460241545951  0.39046303738739857  1.0000
  O   O8        1.0  0.703615392571244  0.6095354969529795  0.6627554112532225  1.0000
  O   O9        1.0  0.22749000742256698  0.3459971479022102  0.9016896915798469  1.0000
  O   O10       1.0  0.2725189260341452  0.09831702543744573  0.6540004475680377  1.0000
  O   O11       1.0  0.7725164645028784  0.6539982371475405  0.09831325884245246  1.0000
  O   O12       1.0  0.7274801317763534  0.9016836102413421  0.3460032942556381  1.0000
  O   O13       1.0  0.5758425160641708  0.8301271631803788  0.11837342397721064  1.0000
  O   O14       1.0  0.924158781910762  0.8816217501209852  0.16987716445195386  1.0000
  O   O15       1.0  0.424177888855155  0.16986385382632826  0.881629825222177  1.0000
  O   O16       1.0  0.07584204112951906  0.11838150576907225  0.8301305402567181  1.0000
  O   O17       1.0  0.18880466289076037  0.5312375937821656  0.042093663548001814  1.0000
  O   O18       1.0  0.3111872064885262  0.9579075331077223  0.46877293710144835  1.0000
  O   O19       1.0  0.8111930279902992  0.4687630509604689  0.9579070184151419  1.0000
  O   O20       1.0  0.6888140205095611  0.0420983906267764  0.5312249335505683  1.0000
  O   O21       1.0  0.4391851581988532  0.5846587181170408  0.22326845807256038  1.0000
  O   O22       1.0  0.06081093704628423  0.7767321308812855  0.4153457157967964  1.0000
  O   O23       1.0  0.560818407404099  0.4153445789827402  0.7767288477708405  1.0000
  O   O24       1.0  0.9391881233753522  0.22326852259872254  0.5846530704509832  1.0000
  O   O25       1.0  0.7499996777456771  0.5541920736094356  0.44580987552374307  1.0000
  O   O26       1.0  0.25000075091097057  0.4458085797073468  0.554189492796624  1.0000
