data_image0
_chemical_formula_structural       Li2H4C10O8
_chemical_formula_sum              "Li2 H4 C10 O8"
_cell_length_a       5.077430685047243
_cell_length_b       7.156884465558344
_cell_length_c       7.19253753212514
_cell_angle_alpha    83.87749548316457
_cell_angle_beta     76.55302583586663
_cell_angle_gamma    81.85755694489241

_space_group_name_H-M_alt    "P 1"
_space_group_IT_number       1

loop_
  _space_group_symop_operation_xyz
  'x, y, z'

loop_
  _atom_site_type_symbol
  _atom_site_label
  _atom_site_symmetry_multiplicity
  _atom_site_fract_x
  _atom_site_fract_y
  _atom_site_fract_z
  _atom_site_occupancy
  Li  Li1       1.0  0.745532674663508  0.5350697438322668  0.38691170291861715  1.0000
  Li  Li2       1.0  0.254461863528185  0.4649291131087948  0.6130893796971293  1.0000
  H   H1        1.0  0.8495647045898309  0.9389829991333583  0.3294251056596735  1.0000
  H   H2        1.0  0.15043338605273246  0.0610186974550899  0.670576470647184  1.0000
  H   H3        1.0  0.32653157698729274  0.33656157386458563  0.9581921247305516  1.0000
  H   H4        1.0  0.6734670151725412  0.6634372755163581  0.04180690648170333  1.0000
  C   C1        1.0  0.9908224778405381  0.1797270372170345  0.2283836989617285  1.0000
  C   C2        1.0  0.009180833381343227  0.820256280499798  0.7716232454831697  1.0000
  C   C3        1.0  0.2491293613242078  0.07412876892936988  0.1177964674930081  1.0000
  C   C4        1.0  0.7508755525060237  0.925868665470858  0.8822016893628728  1.0000
  C   C5        1.0  0.4038640961144537  0.18738128242580396  0.9748909927617788  1.0000
  C   C6        1.0  0.596143340192846  0.8126133129647855  0.025105678475455313  1.0000
  C   C7        1.0  0.6499205958807011  0.11965435096132639  0.8552612192086003  1.0000
  C   C8        1.0  0.3500835777221666  0.880347330294306  0.14473658493378855  1.0000
  C   C9        1.0  0.7797283993794863  0.2650588915759755  0.7076788741016884  1.0000
  C   C10       1.0  0.22025626067475915  0.7349385486836935  0.2923239792977839  1.0000
  O   O1        1.0  0.964685632361757  0.3552147283383673  0.21753280020631385  1.0000
  O   O2        1.0  0.03532212866360853  0.6448011496661151  0.7824697868892303  1.0000
  O   O3        1.0  0.7942973165820463  0.08661425733078691  0.33134781653984646  1.0000
  O   O4        1.0  0.2057099079544216  0.9133931107797436  0.6686530263882631  1.0000
  O   O5        1.0  0.6263571339775567  0.3966968074967383  0.6417229320572773  1.0000
  O   O6        1.0  0.3736295550688523  0.6033006249902327  0.3582782005812177  1.0000
  O   O7        1.0  0.04109020735192099  0.2531608793731337  0.6583341797705914  1.0000
  O   O8        1.0  0.9589119493073357  0.7468407856993337  0.3416611747773715  1.0000
