data_image0
_chemical_formula_structural       Zn2H15C28Br2N3O10
_chemical_formula_sum              "Zn2 H15 C28 Br2 N3 O10"
_cell_length_a       9.719748773843968
_cell_length_b       11.069737422486421
_cell_length_c       11.061571606976253
_cell_angle_alpha    96.02199145425872
_cell_angle_beta     89.96693347728346
_cell_angle_gamma    92.07433671542402

_space_group_name_H-M_alt    "P 1"
_space_group_IT_number       1

loop_
  _space_group_symop_operation_xyz
  'x, y, z'

loop_
  _atom_site_type_symbol
  _atom_site_label
  _atom_site_symmetry_multiplicity
  _atom_site_fract_x
  _atom_site_fract_y
  _atom_site_fract_z
  _atom_site_occupancy
  Zn  Zn1       1.0  0.35723076381738395  0.504443080535367  0.49998197848416476  1.0000
  Zn  Zn2       1.0  0.6431893638754146  0.5141998648026059  0.5012780146839333  1.0000
  H   H1        1.0  0.5210868388423506  0.161777030770601  0.6653430729993558  1.0000
  H   H2        1.0  0.4899572648862359  0.7921430773233596  0.08865791672602089  1.0000
  H   H3        1.0  0.5171249336072563  0.7375917335135612  0.29758341463612936  1.0000
  H   H4        1.0  0.5240942167223251  0.942650578694625  0.6951254205536657  1.0000
  H   H5        1.0  0.7164194581001055  0.5115978555317966  0.8909431791429014  1.0000
  H   H6        1.0  0.7130466017894506  0.5145351676926992  0.11649241688400017  1.0000
  H   H7        1.0  0.1650030321838543  0.46236284483545387  0.10991037061771888  1.0000
  H   H8        1.0  0.1683356355478338  0.4521428624995139  0.8791763469134537  1.0000
  H   H9        1.0  0.18232154229782793  0.6148276023501252  0.8922100314297834  1.0000
  H   H10       1.0  0.8815093667190865  0.6619843384133403  0.405562371290543  1.0000
  H   H11       1.0  0.1402145356160887  0.6577703711295583  0.4075942675658482  1.0000
  H   H12       1.0  0.111127439758441  0.2315497513049536  0.5636637726843929  1.0000
  H   H13       1.0  0.11768998946230622  0.3236721621665382  0.7064067750820229  1.0000
  H   H14       1.0  0.8495576071766281  0.2371614417788805  0.5653718178829407  1.0000
  H   H15       1.0  0.8569592801764755  0.3313962788561113  0.7067522156383389  1.0000
  C   C1        1.0  0.4995950543153144  0.5097502461761749  0.7358504557944767  1.0000
  C   C2        1.0  0.49434562746952077  0.2699105764058202  0.4731221283299192  1.0000
  C   C3        1.0  0.49338146030756047  0.5205355407831577  0.26704486972695207  1.0000
  C   C4        1.0  0.5134972159319489  0.7496165399700485  0.5181052207259497  1.0000
  C   C5        1.0  0.4621424821986153  0.07178161590657339  0.24551775882226679  1.0000
  C   C6        1.0  0.4626604134517933  0.9826971630773117  0.14802582911632098  1.0000
  C   C7        1.0  0.48581577182245184  0.8610967384907016  0.16614782017520469  1.0000
  C   C8        1.0  0.5009654674972808  0.8314885211981746  0.2826649152888621  1.0000
  C   C9        1.0  0.497994923925603  0.9198544448076618  0.3849454655933116  1.0000
  C   C10       1.0  0.48476870920894294  0.0463232863047693  0.3678457353636658  1.0000
  C   C11       1.0  0.4959835392460831  0.13347012653824208  0.47266346819129973  1.0000
  C   C12       1.0  0.5117421997281326  0.09384276341384627  0.5865319222884438  1.0000
  C   C13       1.0  0.5151708697293387  0.9698705754797173  0.6036112726821016  1.0000
  C   C14       1.0  0.5093407259937165  0.8835292208447642  0.5042602049332174  1.0000
  C   C15       1.0  0.37560306411957367  0.5279278208666368  0.9378235051198799  1.0000
  C   C16       1.0  0.49706072272252305  0.5177157297784021  0.8712174136276116  1.0000
  C   C17       1.0  0.6190465613117269  0.5161569803028954  0.9398186762231404  1.0000
  C   C18       1.0  0.6173410128825125  0.5189680073781773  0.0662509465146144  1.0000
  C   C19       1.0  0.4937588104143487  0.5254723506801895  0.13282168033870073  1.0000
  C   C20       1.0  0.3742557806070366  0.5329803866365735  0.06460572349109128  1.0000
  C   C21       1.0  0.21951073302239618  0.536533647568639  0.0697278139404673  1.0000
  C   C22       1.0  0.220498801413278  0.5330063240886602  0.9271555625445558  1.0000
  C   C23       1.0  0.9226759040073348  0.42557970684703855  0.5494151821254006  1.0000
  C   C24       1.0  0.9342997320314765  0.5922500824879791  0.4481039605699024  1.0000
  C   C25       1.0  0.07769147185275929  0.5902796797779856  0.44969066486349607  1.0000
  C   C26       1.0  0.06591769643723211  0.423085521600882  0.5502937922447869  1.0000
  C   C27       1.0  0.068077936236655  0.31061794744092447  0.6166823612578154  1.0000
  C   C28       1.0  0.9043889064657052  0.3143178452060127  0.6167726021267156  1.0000
  Br  Br1       1.0  0.14119725653041829  0.687184556511113  0.1501510665529722  1.0000
  Br  Br2       1.0  0.4357321083296526  0.019480766967411984  0.9859437359756453  1.0000
  N   N1        1.0  0.8534781244596134  0.5089823913934737  0.4993328522228991  1.0000
  N   N2        1.0  0.14659333036054534  0.5044812165236083  0.5018603049135635  1.0000
  N   N3        1.0  0.4395475113853777  0.19696961880607225  0.21731835082905349  1.0000
  O   O1        1.0  0.3832760762777028  0.49587651111654907  0.6817023969190997  1.0000
  O   O2        1.0  0.6165904056281876  0.5170738106255683  0.6849580589103396  1.0000
  O   O3        1.0  0.3776377793986113  0.3168990154439584  0.46690470471809675  1.0000
  O   O4        1.0  0.6102891884585161  0.3262047692056242  0.48756226892066923  1.0000
  O   O5        1.0  0.3761018953082882  0.517608969894667  0.3181250688439831  1.0000
  O   O6        1.0  0.6097845983827241  0.5213893717107183  0.32012852095221683  1.0000
  O   O7        1.0  0.3978665216907089  0.6934956122699276  0.5255009079717964  1.0000
  O   O8        1.0  0.6314589409499121  0.7038594599649883  0.517894383647409  1.0000
  O   O9        1.0  0.5433180449326258  0.2647981193667803  0.21486332434993466  1.0000
  O   O10       1.0  0.3205249756582731  0.22332510342469197  0.19511773391958093  1.0000
