data_image0
_chemical_formula_structural       Er2H40C42N8O18
_chemical_formula_sum              "Er2 H40 C42 N8 O18"
_cell_length_a       9.832925473888189
_cell_length_b       11.671177145888814
_cell_length_c       13.404
_cell_angle_alpha    66.86431676076337
_cell_angle_beta     86.97106162646853
_cell_angle_gamma    76.69769651993465

_space_group_name_H-M_alt    "P 1"
_space_group_IT_number       1

loop_
  _space_group_symop_operation_xyz
  'x, y, z'

loop_
  _atom_site_type_symbol
  _atom_site_label
  _atom_site_symmetry_multiplicity
  _atom_site_fract_x
  _atom_site_fract_y
  _atom_site_fract_z
  _atom_site_occupancy
  Er  Er1       1.0  0.7634368447528814  0.4723166444798039  0.49672821144038454  1.0000
  Er  Er2       1.0  0.23654427144465728  0.5276842088231746  0.5032978925988729  1.0000
  H   H1        1.0  0.7058846676155213  0.1686625062764264  0.8313436867262922  1.0000
  H   H2        1.0  0.2941068064473242  0.8313335623289005  0.16865231880510834  1.0000
  H   H3        1.0  0.5515709988603205  0.9938343349630756  0.1849403549616468  1.0000
  H   H4        1.0  0.4484388509740214  0.006149293428343599  0.8150524798564334  1.0000
  H   H5        1.0  0.9467895890314609  0.22524059912692707  0.54431000103029  1.0000
  H   H6        1.0  0.05319297811762169  0.7747707805108917  0.4556826037018311  1.0000
  H   H7        1.0  0.03662291883564  0.29738331345456  0.5864446987009729  1.0000
  H   H8        1.0  0.9633347295199783  0.7026299800623264  0.4135638841471376  1.0000
  H   H9        1.0  0.003944154581354608  0.8704838724347752  0.038333672179788884  1.0000
  H   H10       1.0  0.996040040791101  0.1294882726822664  0.9616402122137588  1.0000
  H   H11       1.0  0.9632044619198015  0.7457276657349539  0.2318892886195343  1.0000
  H   H12       1.0  0.03680480203791351  0.2542664889913056  0.7680925072230238  1.0000
  H   H13       1.0  0.5114993792957848  0.6074891379781846  0.5589586700017861  1.0000
  H   H14       1.0  0.4884802824028399  0.3925461651479266  0.44102586274860306  1.0000
  H   H15       1.0  0.5970114361259959  0.7109591817430498  0.49025047248679227  1.0000
  H   H16       1.0  0.4029747925272673  0.2890579395319648  0.5097355497347211  1.0000
  H   H17       1.0  0.2694151300395333  0.3061833293846945  0.9916067823336621  1.0000
  H   H18       1.0  0.7305841678197427  0.6937936004300056  0.008410388529362909  1.0000
  H   H19       1.0  0.29570333358709894  0.417861043509795  0.7914544746453842  1.0000
  H   H20       1.0  0.7042997755681525  0.5821455514303722  0.20856582839886068  1.0000
  H   H21       1.0  0.258509125311427  0.5628211145346427  0.2398854459155046  1.0000
  H   H22       1.0  0.7414815040617952  0.4371701693730259  0.7601569920366771  1.0000
  H   H23       1.0  0.3290766637763837  0.602364726787897  0.04863349859205364  1.0000
  H   H24       1.0  0.6709299570912391  0.3976236863011735  0.9514130318692652  1.0000
  H   H25       1.0  0.8984951200763901  0.4526467524132655  0.16729429124612247  1.0000
  H   H26       1.0  0.1015068412582707  0.5473521870106524  0.8327212149046943  1.0000
  H   H27       1.0  0.7574012329703662  0.3658896575631232  0.2931867627580901  1.0000
  H   H28       1.0  0.24258794190394184  0.6341360761676711  0.7068051513537412  1.0000
  H   H29       1.0  0.5834657911892833  0.2095917669710516  0.201749208767275  1.0000
  H   H30       1.0  0.4165753024180817  0.7904176987877136  0.7982104481605248  1.0000
  H   H31       1.0  0.7197218967658685  0.295667520874879  0.17469350462504005  1.0000
  H   H32       1.0  0.2803029873046725  0.7043620406140434  0.8252837790304782  1.0000
  H   H33       1.0  0.7620041587809112  0.12498491524781488  0.22423498497958153  1.0000
  H   H34       1.0  0.23804696562815045  0.875045603180638  0.7757349857781719  1.0000
  H   H35       1.0  0.6560181909093501  0.0140459584408958  0.4024879514973706  1.0000
  H   H36       1.0  0.3439790665743914  0.9859759475317702  0.5974631802740403  1.0000
  H   H37       1.0  0.6879778525829039  0.07411592364123719  0.5022753625610434  1.0000
  H   H38       1.0  0.3120851285083432  0.9258629200525235  0.49768795387564085  1.0000
  H   H39       1.0  0.5222514218779892  0.1267782199295269  0.43248371172816047  1.0000
  H   H40       1.0  0.4777799644439397  0.8732293319501707  0.5675172627300925  1.0000
  C   C1        1.0  0.7183093818778801  0.7862837200123565  0.33840843301193496  1.0000
  C   C2        1.0  0.2817022220389732  0.21371330553250087  0.6615819885723866  1.0000
  C   C3        1.0  0.7531200785415493  0.8604206963232811  0.2237375693246406  1.0000
  C   C4        1.0  0.2468852207810315  0.1395648459471985  0.7762540410691514  1.0000
  C   C5        1.0  0.607684639283768  0.2018013222464674  0.8636218809527563  1.0000
  C   C6        1.0  0.3923137252499701  0.7981957032983826  0.13637353010131661  1.0000
  C   C7        1.0  0.6534340843418535  0.9643299753330297  0.1555784666378627  1.0000
  C   C8        1.0  0.3465681597384744  0.0356555669374501  0.844410278001483  1.0000
  C   C9        1.0  0.685550406506323  0.0296345034063066  0.047895373242660404  1.0000
  C   C10       1.0  0.3144499744702856  0.9703462541665147  0.9520943344905889  1.0000
  C   C11       1.0  0.9039703013059041  0.8950590365389246  0.07306987545528897  1.0000
  C   C12       1.0  0.0960236660552383  0.1049188502152987  0.926910618396093  1.0000
  C   C13       1.0  0.8817119843936254  0.8251345080449254  0.18154863132963336  1.0000
  C   C14       1.0  0.11829684702662752  0.17484912034648656  0.8184352904134401  1.0000
  C   C15       1.0  0.5817397498344192  0.1412203513364005  0.9737731601558579  1.0000
  C   C16       1.0  0.4182616495562783  0.8587604062364205  0.02622769879027952  1.0000
  C   C17       1.0  0.36478727043400744  0.277592847007071  0.9533148542221854  1.0000
  C   C18       1.0  0.6352133489703107  0.72238695362622  0.046700537215677795  1.0000
  C   C19       1.0  0.3796361500585093  0.34144942193289296  0.8423947152147023  1.0000
  C   C20       1.0  0.6203634713170203  0.6585466466724341  0.15762260983774473  1.0000
  C   C21       1.0  0.5047169427168682  0.3038359567143374  0.7970034890501267  1.0000
  C   C22       1.0  0.49527873440882075  0.6961677674072391  0.20300465540488233  1.0000
  C   C23       1.0  0.020476825681313923  0.4848056623032234  0.3299565239297095  1.0000
  C   C24       1.0  0.979507931635105  0.5151846646649076  0.6700715481042111  1.0000
  C   C25       1.0  0.07242249683316258  0.504472683551171  0.21836243675925007  1.0000
  C   C26       1.0  0.9275687388019807  0.4955243419936792  0.7816720450197963  1.0000
  C   C27       1.0  0.19569344717314863  0.546409601572293  0.1845225748025427  1.0000
  C   C28       1.0  0.804297008475615  0.4535864670330341  0.8155137566869682  1.0000
  C   C29       1.0  0.23381456181960664  0.5685110769879458  0.07787023385305496  1.0000
  C   C30       1.0  0.766186077970012  0.4314849916173742  0.9221754014692678  1.0000
  C   C31       1.0  0.041134694870137926  0.5096640805086493  0.039676974334426525  1.0000
  C   C32       1.0  0.9588811564275093  0.4903281603385494  0.9603596822883702  1.0000
  C   C33       1.0  0.9947825062524274  0.48538556765921465  0.14476000362594021  1.0000
  C   C34       1.0  0.005221188779444204  0.5146105009461124  0.8552661160721301  1.0000
  C   C35       1.0  0.7237000581557353  0.2910273210874479  0.3632380964189252  1.0000
  C   C36       1.0  0.2762925194097434  0.7089888432480365  0.6367330861667785  1.0000
  C   C37       1.0  0.6874466626354305  0.20859942067705356  0.22897128888948262  1.0000
  C   C38       1.0  0.3125877993140521  0.791424399174673  0.7709986352554239  1.0000
  C   C39       1.0  0.6354549869339152  0.0974805592382495  0.424329664844315  1.0000
  C   C40       1.0  0.36456998577254046  0.90252412182285  0.5756404603993275  1.0000
  C   C41       1.0  0.5268843379816346  0.37487340588327095  0.6790420188296552  1.0000
  C   C42       1.0  0.47308888971622315  0.6251427584522061  0.32096124773899254  1.0000
  N   N1        1.0  0.8091741609008524  0.9952142417672576  0.006928415948877398  1.0000
  N   N2        1.0  0.19081590652840666  0.0047588602893143  0.9930523739033674  1.0000
  N   N3        1.0  0.15937046682213213  0.5514421465675667  0.006035158005140299  1.0000
  N   N4        1.0  0.8406456876064752  0.44855296509822296  0.9940019968068229  1.0000
  N   N5        1.0  0.6852306151592416  0.20173242260021598  0.3400322811421931  1.0000
  N   N6        1.0  0.31478664277199186  0.7982827847957381  0.6599427484262534  1.0000
  N   N7        1.0  0.46283124757908933  0.1801103738897538  0.01831308047410831  1.0000
  N   N8        1.0  0.5371670318660975  0.8198665559249391  0.9816929391760284  1.0000
  O   O1        1.0  0.607726780614243  0.8301507850681702  0.375899766465885  1.0000
  O   O2        1.0  0.39227819164472066  0.1698605945696556  0.6240815251406816  1.0000
  O   O3        1.0  0.8050427666371008  0.6791715643912397  0.3916650700606327  1.0000
  O   O4        1.0  0.1949630946294434  0.3208321597303296  0.6083389493999649  1.0000
  O   O5        1.0  0.9008437696829004  0.4593453291325957  0.35128130232108395  1.0000
  O   O6        1.0  0.09912447496573411  0.540662222747109  0.6487243578156949  1.0000
  O   O7        1.0  0.7241226449928817  0.2922742132967713  0.4567984168199288  1.0000
  O   O8        1.0  0.2758552422379381  0.7077314247038657  0.5432015559452241  1.0000
  O   O9        1.0  0.9412647601094406  0.2829019475269021  0.5812252283311778  1.0000
  O   O10       1.0  0.058698089337809706  0.7171027335342046  0.41877341658513256  1.0000
  O   O11       1.0  0.6485273104174567  0.3562283960547886  0.6439553406524254  1.0000
  O   O12       1.0  0.3514513124817853  0.6437906390992865  0.3560407662635257  1.0000
  O   O13       1.0  0.0974850367194833  0.4970851103692837  0.3959919115666041  1.0000
  O   O14       1.0  0.9025073502836067  0.50287459453385  0.6040418647385906  1.0000
  O   O15       1.0  0.6050398711270262  0.6250317534665726  0.552689135438726  1.0000
  O   O16       1.0  0.39494672536044817  0.3749920663851611  0.447302041294762  1.0000
  O   O17       1.0  0.4208150715521555  0.4557615905877554  0.6214465467208754  1.0000
  O   O18       1.0  0.5791717429777279  0.544245004352419  0.378562451211458  1.0000
