data_image0
_chemical_formula_structural       Cu4P4H16C16S4Br4O16
_chemical_formula_sum              "Cu4 P4 H16 C16 S4 Br4 O16"
_cell_length_a       7.893931140002285
_cell_length_b       7.68150906512392
_cell_length_c       13.317399119030641
_cell_angle_alpha    94.88395926409285
_cell_angle_beta     89.99983261861652
_cell_angle_gamma    89.9998746529192

_space_group_name_H-M_alt    "P 1"
_space_group_IT_number       1

loop_
  _space_group_symop_operation_xyz
  'x, y, z'

loop_
  _atom_site_type_symbol
  _atom_site_label
  _atom_site_symmetry_multiplicity
  _atom_site_fract_x
  _atom_site_fract_y
  _atom_site_fract_z
  _atom_site_occupancy
  Cu  Cu1       1.0  0.10426041860236523  0.7059330104313872  0.4770770804080088  1.0000
  Cu  Cu2       1.0  0.6042593745093042  0.7940737880073314  0.522916735056711  1.0000
  Cu  Cu3       1.0  0.8957358992004743  0.2940756113277345  0.5229205758856139  1.0000
  Cu  Cu4       1.0  0.3957407437063766  0.2059325472875955  0.4770762452758319  1.0000
  P   P1        1.0  0.655517573960978  0.47797966178889323  0.3826574540546304  1.0000
  P   P2        1.0  0.15551910399883442  0.02203653528329848  0.6173422462933047  1.0000
  P   P3        1.0  0.34448634460946453  0.5220355412984146  0.6173399305620535  1.0000
  P   P4        1.0  0.844486081350567  0.9779783974340434  0.382658876316107  1.0000
  H   H1        1.0  0.7250070686787567  0.35568805290088784  0.0035278033914423017  1.0000
  H   H2        1.0  0.22500599269245922  0.144281203678041  0.9964662086330165  1.0000
  H   H3        1.0  0.27499178274868535  0.6442821700090776  0.9964745685361649  1.0000
  H   H4        1.0  0.7749865248382052  0.8556796030226366  0.003521197446126205  1.0000
  H   H5        1.0  0.016086255989044704  0.4700324164448516  0.2976934903121986  1.0000
  H   H6        1.0  0.5160842954825496  0.02996566380680579  0.7023056629439565  1.0000
  H   H7        1.0  0.9839214629739459  0.529976151231736  0.7023049135784588  1.0000
  H   H8        1.0  0.48392595705875147  0.9700426875726438  0.2976957313406743  1.0000
  H   H9        1.0  0.8632817972909307  0.8547829022930101  0.6359799965667534  1.0000
  H   H10       1.0  0.3632789981130955  0.6452230667908908  0.36401972929374443  1.0000
  H   H11       1.0  0.1367208544928573  0.14522305448337391  0.3640182169555217  1.0000
  H   H12       1.0  0.6367198532533607  0.35478376285004737  0.6359845602022318  1.0000
  H   H13       1.0  0.7051196330350039  0.7731335466359679  0.6945818432896259  1.0000
  H   H14       1.0  0.2051120792425962  0.726866407831217  0.305413711638991  1.0000
  H   H15       1.0  0.2948830187533886  0.22686979923633288  0.3054161798635775  1.0000
  H   H16       1.0  0.7948855053245083  0.27314036773689304  0.6945913254557395  1.0000
  C   C1        1.0  0.7440836980672572  0.4504420371147758  0.2579664940100912  1.0000
  C   C2        1.0  0.24408779084060236  0.049563526600820806  0.7420331683905701  1.0000
  C   C3        1.0  0.2559164201121363  0.5495650628941887  0.7420340574928018  1.0000
  C   C4        1.0  0.755919928135093  0.950435848837678  0.2579653168069242  1.0000
  C   C5        1.0  0.6561368773406572  0.41349588484745675  0.1642722686061404  1.0000
  C   C6        1.0  0.15613492668578743  0.08650578908490299  0.8357286273398259  1.0000
  C   C7        1.0  0.34386704124299433  0.5864900034831279  0.8357312455351787  1.0000
  C   C8        1.0  0.8438651915082005  0.913506911248831  0.1642670717111372  1.0000
  C   C9        1.0  0.7598422850415292  0.38463147434578104  0.0818925380258761  1.0000
  C   C10       1.0  0.25983821954739034  0.1153567699179092  0.9181103682858023  1.0000
  C   C11       1.0  0.24016163358420783  0.615348373388798  0.9181037718055478  1.0000
  C   C12       1.0  0.7401618986305252  0.8846194395132939  0.08189995555011362  1.0000
  C   C13       1.0  0.9166479874555336  0.4479935566085658  0.24188458914235872  1.0000
  C   C14       1.0  0.41667599284630086  0.052002063854565996  0.7581218360520837  1.0000
  C   C15       1.0  0.08333439557626579  0.5520040808068885  0.7581197816626926  1.0000
  C   C16       1.0  0.5833443940489076  0.9480100957256498  0.2418813389819405  1.0000
  S   S1        1.0  0.9679259953640624  0.4027342050665085  0.11775553863634511  1.0000
  S   S2        1.0  0.4679210479919647  0.09725464739322828  0.8822526395000451  1.0000
  S   S3        1.0  0.0320614548676375  0.5972542941807716  0.882248165876284  1.0000
  S   S4        1.0  0.5320600682337898  0.9027388032980709  0.11775518374448521  1.0000
  Br  Br1       1.0  0.4169810831391345  0.404824416250193  0.1497898701865665  1.0000
  Br  Br2       1.0  0.916971227977527  0.09518365575948448  0.8502076928017459  1.0000
  Br  Br3       1.0  0.5830076339030014  0.595173707824614  0.850207772230398  1.0000
  Br  Br4       1.0  0.08300988829340382  0.904815881920783  0.14978854960362042  1.0000
  O   O1        1.0  0.5551832281542133  0.6535245174711902  0.39479487100236105  1.0000
  O   O2        1.0  0.055185214692734505  0.8464831208550833  0.6052065289697951  1.0000
  O   O3        1.0  0.44481308965552563  0.34648018793181024  0.6052024997376577  1.0000
  O   O4        1.0  0.9448212374596212  0.1535238710014326  0.394795517729399  1.0000
  O   O5        1.0  0.8012114002682652  0.4889090490065655  0.4601806889455275  1.0000
  O   O6        1.0  0.30121621578427243  0.01108837819351289  0.5398213772168106  1.0000
  O   O7        1.0  0.19878365072983684  0.5110886965467927  0.5398221866606434  1.0000
  O   O8        1.0  0.6987877028036708  0.9889069727441606  0.4601783176247594  1.0000
  O   O9        1.0  0.5387293258828976  0.32031214350993764  0.386987394468477  1.0000
  O   O10       1.0  0.03872284681649771  0.1797084732621101  0.6130081375816943  1.0000
  O   O11       1.0  0.461279659878045  0.6797071922248108  0.6130072853067929  1.0000
  O   O12       1.0  0.961274737775291  0.8203080893558906  0.3869885946217977  1.0000
  O   O13       1.0  0.7363563697697446  0.8623732368002522  0.6495922225104778  1.0000
  O   O14       1.0  0.23635625237033508  0.6376253643611491  0.35040322874351665  1.0000
  O   O15       1.0  0.2636412148348413  0.13763010907592846  0.350405800643415  1.0000
  O   O16       1.0  0.7636476661879215  0.36237890844562065  0.6496001227841148  1.0000
