data_image0
_chemical_formula_structural       Hg4H54C30S4N2Cl4
_chemical_formula_sum              "Hg4 H54 C30 S4 N2 Cl4"
_cell_length_a       9.956134627996896
_cell_length_b       9.956157891220478
_cell_length_c       11.914386289663547
_cell_angle_alpha    78.45997367783868
_cell_angle_beta     78.45978146567052
_cell_angle_gamma    68.51239680038432

_space_group_name_H-M_alt    "P 1"
_space_group_IT_number       1

loop_
  _space_group_symop_operation_xyz
  'x, y, z'

loop_
  _atom_site_type_symbol
  _atom_site_label
  _atom_site_symmetry_multiplicity
  _atom_site_fract_x
  _atom_site_fract_y
  _atom_site_fract_z
  _atom_site_occupancy
  Hg  Hg1       1.0  0.002624599794380276  0.9973750381369728  0.9999995389643456  1.0000
  Hg  Hg2       1.0  0.9648305112229493  0.20053050118386306  0.7191852757921493  1.0000
  Hg  Hg3       1.0  0.7994700189655576  0.03516829651989181  0.28081307730232646  1.0000
  Hg  Hg4       1.0  0.023373718759302116  0.9766223699733205  0.5000020493195052  1.0000
  H   H1        1.0  0.2664081159400168  0.8192616155525416  0.8219046309305323  1.0000
  H   H2        1.0  0.1807358548593001  0.7335959364997108  0.17809573412670682  1.0000
  H   H3        1.0  0.49570755402326955  0.5983386285645694  0.8146031203175494  1.0000
  H   H4        1.0  0.40165861264706143  0.5042983583645866  0.1853997973282587  1.0000
  H   H5        1.0  0.5622466979371126  0.43775407699060764  2.554948181873805e-06  1.0000
  H   H6        1.0  0.1799010825626581  0.703113981108203  0.6745688532997816  1.0000
  H   H7        1.0  0.29688103982903163  0.820100274350004  0.3254331890782324  1.0000
  H   H8        1.0  0.4029426055812522  0.47619112752005327  0.6821757794837067  1.0000
  H   H9        1.0  0.5238077109720504  0.5970617115661982  0.3178212280598912  1.0000
  H   H10       1.0  0.5774124002024478  0.42259135123248376  0.49999842095911606  1.0000
  H   H11       1.0  0.8237573480781462  0.3612778624835258  0.9409471995759869  1.0000
  H   H12       1.0  0.6387208409448206  0.17624199608228255  0.05905172472462543  1.0000
  H   H13       1.0  0.9347992486156542  0.3379810400506287  0.048499187292272004  1.0000
  H   H14       1.0  0.662018222148255  0.06519927683621769  0.9515004628547526  1.0000
  H   H15       1.0  0.8823119260271923  0.2996490507852698  0.3857576980730497  1.0000
  H   H16       1.0  0.70034997367339  0.11768774432208319  0.6142426541219095  1.0000
  H   H17       1.0  0.8331468296699499  0.3908235161649572  0.5101138829519343  1.0000
  H   H18       1.0  0.6091770602346996  0.166852825374022  0.48988637319092726  1.0000
  H   H19       1.0  0.9428882351726317  0.6529652026950432  0.7411188681036263  1.0000
  H   H20       1.0  0.34703159532654126  0.0571124343219793  0.2588820356541817  1.0000
  H   H21       1.0  0.8405146099409677  0.5350367898125372  0.7543351556554041  1.0000
  H   H22       1.0  0.46496236839757893  0.15948686594556702  0.24566603202754314  1.0000
  H   H23       1.0  0.034564075031873566  0.4666427988189882  0.7236741492769737  1.0000
  H   H24       1.0  0.5333577211875846  0.9654364473876957  0.2763261556083733  1.0000
  H   H25       1.0  0.8373007650606185  0.7308999067276645  0.9332399276298912  1.0000
  H   H26       1.0  0.2690996130744879  0.16269900088631323  0.06675836497664277  1.0000
  H   H27       1.0  0.8307395406534396  0.601934524050641  0.05930704432277168  1.0000
  H   H28       1.0  0.39806420902854706  0.16925977037563203  0.9406938333131406  1.0000
  H   H29       1.0  0.720674076152022  0.6268124900511084  0.9509972273034533  1.0000
  H   H30       1.0  0.37318468479320194  0.27932632215407693  0.04900137052579368  1.0000
  H   H31       1.0  0.10880112197789055  0.6138143913403484  0.8915866565517373  1.0000
  H   H32       1.0  0.38618314138840043  0.8911993204604869  0.1084142541923399  1.0000
  H   H33       1.0  0.1902422825257517  0.4247426039945879  0.879025770121643  1.0000
  H   H34       1.0  0.5752569896299845  0.8097597467990384  0.12097420453786611  1.0000
  H   H35       1.0  0.10979948613638868  0.4813130218720617  0.016372791667343678  1.0000
  H   H36       1.0  0.518686362014364  0.8902003329663659  0.9836277542065869  1.0000
  H   H37       1.0  0.05204032110283658  0.35350955474075363  0.21832514874598258  1.0000
  H   H38       1.0  0.6464907715902651  0.9479587134860029  0.7816736095233663  1.0000
  H   H39       1.0  0.19035927129613125  0.327582636324742  0.30193456179414097  1.0000
  H   H40       1.0  0.672419697658256  0.8096404728295071  0.6980618642421131  1.0000
  H   H41       1.0  0.12353825532257189  0.4955283718272484  0.21117332151597162  1.0000
  H   H42       1.0  0.5044717550817663  0.8764609456271589  0.7888255250799926  1.0000
  H   H43       1.0  0.0677889419816679  0.629010616683978  0.38959736216146706  1.0000
  H   H44       1.0  0.3709881800317447  0.9322126497258694  0.6104015264911238  1.0000
  H   H45       1.0  0.13034661033397296  0.4597604684730357  0.47952538415525925  1.0000
  H   H46       1.0  0.5402386422381013  0.8696564669107758  0.520472927337046  1.0000
  H   H47       1.0  0.951474489675  0.5847090260189632  0.5137766961091472  1.0000
  H   H48       1.0  0.41528938956793854  0.048527752445913605  0.4862227370273187  1.0000
  H   H49       1.0  0.7935803852949307  0.5372652927251951  0.26876538651774934  1.0000
  H   H50       1.0  0.46273421861448577  0.2064183828682928  0.7312370975727374  1.0000
  H   H51       1.0  0.8725469109505325  0.6732771232073561  0.26120698243836654  1.0000
  H   H52       1.0  0.3267229720116092  0.1274520179983085  0.7387946029170177  1.0000
  H   H53       1.0  0.7570861111902046  0.6347506732689185  0.38815500265115316  1.0000
  H   H54       1.0  0.3652489175127442  0.24291258808178637  0.611847636802217  1.0000
  C   C1        1.0  0.9298255932264965  0.36014353055324483  0.9549775440531433  1.0000
  C   C2        1.0  0.6398565169782771  0.0701744637856123  0.04502174490288976  1.0000
  C   C3        1.0  0.9220982870016242  0.34837795408340366  0.4413988452952323  1.0000
  C   C4        1.0  0.6516247884547113  0.07790029898335152  0.5585993919674621  1.0000
  C   C5        1.0  0.30254487647854217  0.7473394857385927  0.9002510756462951  1.0000
  C   C6        1.0  0.2526601679240769  0.6974564081034914  0.09975094048203197  1.0000
  C   C7        1.0  0.4279575042793696  0.6244098536134858  0.8966772198796417  1.0000
  C   C8        1.0  0.37558900691526287  0.5720444765245958  0.10332368206645971  1.0000
  C   C9        1.0  0.46496369506689217  0.5350398363600349  5.228119447425593e-07  1.0000
  C   C10       1.0  0.25966679743638105  0.6740681550444453  0.5980945249648851  1.0000
  C   C11       1.0  0.3259295362736551  0.7403352909638629  0.40190933069329277  1.0000
  C   C12       1.0  0.3830018716943115  0.5491915054748588  0.6013707440929821  1.0000
  C   C13       1.0  0.4508093826946364  0.617001594544071  0.39862784776886423  1.0000
  C   C14       1.0  0.48018459109778167  0.5198185429141662  0.4999994790653444  1.0000
  C   C15       1.0  0.951581914406674  0.5065925320497086  0.902956747238704  1.0000
  C   C16       1.0  0.4934066942642802  0.04841883075296491  0.09704354987783857  1.0000
  C   C17       1.0  0.9415935216860944  0.5418349891456274  0.7728594017544236  1.0000
  C   C18       1.0  0.4581635272975292  0.058407242468383906  0.2271402262846322  1.0000
  C   C19       1.0  0.8275063175489165  0.6231613000386248  0.9656220345163856  1.0000
  C   C20       1.0  0.37683810783319427  0.17249376186298804  0.03437862700027947  1.0000
  C   C21       1.0  0.09878167992992103  0.5061555798270022  0.9238666557986475  1.0000
  C   C22       1.0  0.49384339425157014  0.901217859694768  0.07613404906362572  1.0000
  C   C23       1.0  0.9748989649205271  0.47026537106835076  0.36835102093567657  1.0000
  C   C24       1.0  0.5297347340696489  0.025102789332592603  0.6316488859679551  1.0000
  C   C25       1.0  0.09196178830826093  0.4082270630781153  0.2691656530155626  1.0000
  C   C26       1.0  0.5917734322325502  0.9080373571415308  0.7308330751387613  1.0000
  C   C27       1.0  0.034445672909988886  0.5394479140481607  0.44239855713338716  1.0000
  C   C28       1.0  0.4605508128381856  0.9655571485917069  0.5576000688087602  1.0000
  C   C29       1.0  0.8413482260079306  0.5854981143328786  0.31887381735706544  1.0000
  C   C30       1.0  0.4145031500651228  0.15865179393102122  0.6811281575601098  1.0000
  S   S1        1.0  0.07164406553849999  0.20509351062119663  0.8919586618354811  1.0000
  S   S2        1.0  0.7949063329255495  0.9283554624392143  0.10803989755512322  1.0000
  S   S3        1.0  0.0705838564091081  0.20264083141280761  0.5104223606954219  1.0000
  S   S4        1.0  0.7973552479434217  0.9294181848234047  0.4895780879194972  1.0000
  N   N1        1.0  0.2168754503336601  0.7831244082833566  5.975092136366279e-07  1.0000
  N   N2        1.0  0.23250299592469056  0.7674965475663812  0.5000028966351806  1.0000
  Cl  Cl1       1.0  0.9816619383952628  0.9158799170209452  0.7662065265469165  1.0000
  Cl  Cl2       1.0  0.08411971258887259  0.018337657441314503  0.23379182393301784  1.0000
  Cl  Cl3       1.0  0.6919595705943278  0.33154859274071674  0.7499135055087648  1.0000
  Cl  Cl4       1.0  0.6684509475752591  0.30803944557363394  0.2500871308423029  1.0000
