data_image0
_chemical_formula_structural       K4H44C40O12F48
_chemical_formula_sum              "K4 H44 C40 O12 F48"
_cell_length_a       8.003859897125785
_cell_length_b       13.789118829399563
_cell_length_c       14.490419210001182
_cell_angle_alpha    89.9999594157345
_cell_angle_beta     89.99998036313045
_cell_angle_gamma    93.48720183200227

_space_group_name_H-M_alt    "P 1"
_space_group_IT_number       1

loop_
  _space_group_symop_operation_xyz
  'x, y, z'

loop_
  _atom_site_type_symbol
  _atom_site_label
  _atom_site_symmetry_multiplicity
  _atom_site_fract_x
  _atom_site_fract_y
  _atom_site_fract_z
  _atom_site_occupancy
  K   K1        1.0  0.6555383525477936  0.39559674068220113  0.5349277379867416  1.0000
  K   K2        1.0  0.3444611941646727  0.1044038226709105  0.03492714811616791  1.0000
  K   K3        1.0  0.3444588369614224  0.6044032304804929  0.46507119503267097  1.0000
  K   K4        1.0  0.6555364441846406  0.8956005078172281  0.9650738552352183  1.0000
  H   H1        1.0  0.6883778159214272  0.0714339193683173  0.4714645317027718  1.0000
  H   H2        1.0  0.3116225994665243  0.42856558215476787  0.9714644743864725  1.0000
  H   H3        1.0  0.31162187254252416  0.9285660533403117  0.5285350914275568  1.0000
  H   H4        1.0  0.6883783384751537  0.5714343913272302  0.028534458632584907  1.0000
  H   H5        1.0  0.6327907285707751  0.08874921968251212  0.5893355171471056  1.0000
  H   H6        1.0  0.3672074557192886  0.41125057445924534  0.08933609655726833  1.0000
  H   H7        1.0  0.36721020937066146  0.911250753799223  0.4106641059831091  1.0000
  H   H8        1.0  0.6327909832671778  0.5887493974762846  0.9106635265731882  1.0000
  H   H9        1.0  0.9445455153374598  0.10992440455646603  0.5641740276306566  1.0000
  H   H10       1.0  0.05545393606750791  0.3900754097280982  0.0641739902250436  1.0000
  H   H11       1.0  0.05545542260397701  0.8900755689252692  0.4358255954995586  1.0000
  H   H12       1.0  0.9445457523964366  0.6099245629805382  0.9358256329052923  1.0000
  H   H13       1.0  0.8654847794656887  0.21872309165441808  0.6054819821465287  1.0000
  H   H14       1.0  0.1345146429840227  0.2812766908310209  0.10548200303563961  1.0000
  H   H15       1.0  0.13451740795348147  0.7812768826006861  0.39451695087240785  1.0000
  H   H16       1.0  0.8654851202869762  0.7187240084322539  0.8945169299832828  1.0000
  H   H17       1.0  0.9146885853268145  0.20679453232077089  0.486126566389153  1.0000
  H   H18       1.0  0.08531181978358401  0.29320495791534285  0.9861266430817894  1.0000
  H   H19       1.0  0.08531235261462207  0.7932054411609646  0.5138730567410619  1.0000
  H   H20       1.0  0.9146877938735613  0.7067942882389175  0.0138729800487951  1.0000
  H   H21       1.0  0.3514694669513077  0.1328892645954198  0.531136384522668  1.0000
  H   H22       1.0  0.6485300076117826  0.3671105751217425  0.0311362502730717  1.0000
  H   H23       1.0  0.6485302963192083  0.8671114346673222  0.4688639287185765  1.0000
  H   H24       1.0  0.35146968085216906  0.6328893975868866  0.9688633728572569  1.0000
  H   H25       1.0  0.4321682707429559  0.10820890393011952  0.4193080124915127  1.0000
  H   H26       1.0  0.5678322560114637  0.39179136429773814  0.9193079314220968  1.0000
  H   H27       1.0  0.5678327420050453  0.8917917961057287  0.5806923007496111  1.0000
  H   H28       1.0  0.4321674324522391  0.608208608410628  0.0806923818193965  1.0000
  H   H29       1.0  0.19847903242933282  0.2223295054122971  0.4127298566223558  1.0000
  H   H30       1.0  0.8015214241292979  0.2776700413250737  0.9127298081502815  1.0000
  H   H31       1.0  0.801521905511862  0.777670468069168  0.5872704566190238  1.0000
  H   H32       1.0  0.1984795138118969  0.7223299321563915  0.0872705050910909  1.0000
  H   H33       1.0  0.38802810695675294  0.2779709107782082  0.3691506804519378  1.0000
  H   H34       1.0  0.6119723801491332  0.22202866950664202  0.8691507053436069  1.0000
  H   H35       1.0  0.6119715815071983  0.722029061930428  0.630848942678398  1.0000
  H   H36       1.0  0.3880286325991166  0.7779720305294691  0.13084891778635924  1.0000
  H   H37       1.0  0.31569040317461367  0.30704527970647894  0.48210669184627625  1.0000
  H   H38       1.0  0.6843088300826494  0.1929549394051762  0.9821074127296541  1.0000
  H   H39       1.0  0.6843093600963854  0.692955419556789  0.5178922411726461  1.0000
  H   H40       1.0  0.3156909331881011  0.8070457598578288  0.0178922104004329  1.0000
  H   H41       1.0  0.12175815655866272  0.41223405732574037  0.5571907689244711  1.0000
  H   H42       1.0  0.8782401250705975  0.0877664881158182  0.0571907792888382  1.0000
  H   H43       1.0  0.8782402824278037  0.5877659146097898  0.4428088542059783  1.0000
  H   H44       1.0  0.12175956339311263  0.912233484592548  0.9428095339526552  1.0000
  C   C1        1.0  0.27243572530422705  0.4480213120731165  0.6723012839821223  1.0000
  C   C2        1.0  0.7275649745918358  0.05197914630162608  0.1723020370902404  1.0000
  C   C3        1.0  0.7275639631597244  0.5519786606355126  0.3276983391482133  1.0000
  C   C4        1.0  0.27243861191843166  0.9480222818353283  0.827696895928071  1.0000
  C   C5        1.0  0.32268571395618295  0.34534230868095517  0.7096204549592217  1.0000
  C   C6        1.0  0.677314884973832  0.15465739441092552  0.20962114843815982  1.0000
  C   C7        1.0  0.677315223985012  0.6546576648005171  0.2903798582821508  1.0000
  C   C8        1.0  0.3226860529671214  0.8453425790702769  0.7903798549143773  1.0000
  C   C9        1.0  0.36760258076675717  0.5293015972361701  0.7318550802083195  1.0000
  C   C10       1.0  0.6323987372090016  0.9706986916874103  0.2318548792564599  1.0000
  C   C11       1.0  0.6323970328899052  0.47069764891755744  0.26814592314458  1.0000
  C   C12       1.0  0.36760227553875774  0.029302008348167905  0.7681461240958216  1.0000
  C   C13       1.0  0.06313198074327893  0.45404387691937853  0.6749885946262282  1.0000
  C   C14       1.0  0.9368686424625352  0.04595585283256299  0.17498862204398344  1.0000
  C   C15       1.0  0.9368677077206725  0.5459560957892506  0.32501102850410046  1.0000
  C   C16       1.0  0.06313089638756252  0.9540426667670658  0.8250116911980073  1.0000
  C   C17       1.0  0.004786596448575201  0.5606250206226165  0.6668687163636094  1.0000
  C   C18       1.0  0.995213517602096  0.9393753175542301  0.16686984802249333  1.0000
  C   C19       1.0  0.9952131668219407  0.4393756786401254  0.3331315968776281  1.0000
  C   C20       1.0  0.004784771770275103  0.060623201272022705  0.8331311553307827  1.0000
  C   C21       1.0  0.9647489628326369  0.4032143420274324  0.7566197050748826  1.0000
  C   C22       1.0  0.03525035367546539  0.09678532411125221  0.2566198689996995  1.0000
  C   C23       1.0  0.03524947615382249  0.5967856299080977  0.24337991805556672  1.0000
  C   C24       1.0  0.9647492599816798  0.9032139220430082  0.743379754130885  1.0000
  C   C25       1.0  0.6870957298234472  0.1256255222124096  0.527525693604673  1.0000
  C   C26       1.0  0.3129024977930825  0.37437431951116207  0.027525618020092707  1.0000
  C   C27       1.0  0.31290403344706874  0.8743751770503252  0.4724746196365715  1.0000
  C   C28       1.0  0.6870971906711106  0.6256256531977372  0.9724733149990856  1.0000
  C   C29       1.0  0.8623447164236921  0.16822740629220337  0.5468874213530484  1.0000
  C   C30       1.0  0.13765467229169556  0.3317716947453064  0.04688740764344601  1.0000
  C   C31       1.0  0.1376562215177515  0.8317725671895317  0.4531122017771737  1.0000
  C   C32       1.0  0.8623450161722559  0.6682282779633297  0.9531122154868896  1.0000
  C   C33       1.0  0.4193629764704169  0.16577382055224632  0.47141345718344513  1.0000
  C   C34       1.0  0.5806362642828873  0.3342264067916859  0.971412722342933  1.0000
  C   C35       1.0  0.580638036277584  0.8342268794835946  0.5285868560576787  1.0000
  C   C36       1.0  0.4193634241810643  0.6657735659169434  0.028586900787402707  1.0000
  C   C37       1.0  0.32619410292036116  0.24838627024795565  0.4315243230692616  1.0000
  C   C38       1.0  0.6738063404640755  0.2516132620213085  0.9315243163290532  1.0000
  C   C39       1.0  0.6738068350210754  0.7516137032337795  0.5684753000609533  1.0000
  C   C40       1.0  0.3261945974773611  0.7483867114604265  0.06847530680116172  1.0000
  O   O1        1.0  0.31671809725030897  0.4539545299377964  0.5829912322197474  1.0000
  O   O2        1.0  0.6832814905778762  0.0460467229696064  0.08299199770879538  1.0000
  O   O3        1.0  0.6832828406911347  0.5460454435439387  0.4170083909104677  1.0000
  O   O4        1.0  0.31671702321490613  0.9539539755197666  0.9170090056437205  1.0000
  O   O5        1.0  0.012037195570293606  0.4075978718641764  0.5932428779481073  1.0000
  O   O6        1.0  0.9879622354585605  0.09240192004300948  0.09324286441308523  1.0000
  O   O7        1.0  0.987962492893658  0.59240210084446  0.4067567451822285  1.0000
  O   O8        1.0  0.012037378198591912  0.907597326111251  0.9067567587174992  1.0000
  O   O9        1.0  0.5835144292004486  0.20218334477558392  0.4999281323735901  1.0000
  O   O10       1.0  0.4164860410424324  0.2978168613904018  0.9999281432474662  1.0000
  O   O11       1.0  0.41648665835435855  0.7978180818146258  0.500072180867285  1.0000
  O   O12       1.0  0.5835148968990109  0.7021831120913335  7.14798827488e-05  1.0000
  F   F1        1.0  0.48948179702964006  0.3335373241820961  0.6936609324708698  1.0000
  F   F2        1.0  0.5105175636093904  0.16646239042187722  0.19366302980822783  1.0000
  F   F3        1.0  0.5105179662408759  0.6664633750806459  0.3063393807703747  1.0000
  F   F4        1.0  0.4894821248535878  0.8335375822856932  0.8063393537667453  1.0000
  F   F5        1.0  0.299157298813256  0.3308440501179106  0.8015957169377188  1.0000
  F   F6        1.0  0.7008444851229996  0.16915558294371638  0.3015970863089522  1.0000
  F   F7        1.0  0.7008411401734449  0.6691559218178823  0.198403216081573  1.0000
  F   F8        1.0  0.299158876966132  0.8308436655293149  0.6984039170435992  1.0000
  F   F9        1.0  0.23992451859399472  0.2721353872426207  0.6628778784016307  1.0000
  F   F10       1.0  0.7600736889525663  0.2278650768401604  0.16287850691002606  1.0000
  F   F11       1.0  0.7600777436319747  0.7278653135668592  0.3371210546170573  1.0000
  F   F12       1.0  0.23992592470433752  0.7721341693138372  0.837121806331716  1.0000
  F   F13       1.0  0.5340212276439474  0.5141827675699631  0.7373428334807387  1.0000
  F   F14       1.0  0.46598008648486194  0.9858175171288437  0.23734334397297377  1.0000
  F   F15       1.0  0.4659798599113429  0.4858186590207866  0.2626560995378142  1.0000
  F   F16       1.0  0.534019527172532  0.014181729025679603  0.7626555890464533  1.0000
  F   F17       1.0  0.3588997267377538  0.6185077879370553  0.6927671549324402  1.0000
  F   F18       1.0  0.6410990448755314  0.8814918029763061  0.19276632229424712  1.0000
  F   F19       1.0  0.641098712248464  0.38149218399821183  0.3072331583091739  1.0000
  F   F20       1.0  0.3589006435881785  0.11850816973205981  0.8072339909472461  1.0000
  F   F21       1.0  0.31107721648427866  0.5353075034895056  0.8201920723752992  1.0000
  F   F22       1.0  0.688922715286452  0.9646919901042779  0.32019186476426154  1.0000
  F   F23       1.0  0.688923646650359  0.4646917434378538  0.17980755075517155  1.0000
  F   F24       1.0  0.31107579850681333  0.03530870838562811  0.6798077583659392  1.0000
  F   F25       1.0  0.8401858960689951  0.5596118996264039  0.6406533849974423  1.0000
  F   F26       1.0  0.1598129120737184  0.9403877314041508  0.1406532939487661  1.0000
  F   F27       1.0  0.15981254291698124  0.4403880723085934  0.3593476183553292  1.0000
  F   F28       1.0  0.8401865519695804  0.059610061641102205  0.8593470192934873  1.0000
  F   F29       1.0  0.0889568169347612  0.6119620584673556  0.5991832787140156  1.0000
  F   F30       1.0  0.9110419454696056  0.8880368779322653  0.09918446088341433  1.0000
  F   F31       1.0  0.911041622051705  0.3880379134681746  0.400816344416434  1.0000
  F   F32       1.0  0.0889576681872981  0.11196236822173232  0.900815852358335  1.0000
  F   F33       1.0  0.019790914010243906  0.6119213857708559  0.7460851774268562  1.0000
  F   F34       1.0  0.9802103939905393  0.8880788921980527  0.24608565635931265  1.0000
  F   F35       1.0  0.9802125228856865  0.38807858925655125  0.2539158259254393  1.0000
  F   F36       1.0  0.019785396426854607  0.11191962508200251  0.7539153469941982  1.0000
  F   F37       1.0  0.7971047998351749  0.415883355294156  0.7494798266279616  1.0000
  F   F38       1.0  0.2028957711551982  0.08411631711395982  0.24947996733791206  1.0000
  F   F39       1.0  0.2028948886287765  0.5841166174144804  0.2505197965023669  1.0000
  F   F40       1.0  0.7971051667859966  0.9158836563675052  0.7505203459034604  1.0000
  F   F41       1.0  0.013504688688406905  0.4384760048876899  0.8405945794681458  1.0000
  F   F42       1.0  0.9864933942860007  0.06152432238798162  0.340594587004631  1.0000
  F   F43       1.0  0.9864949997755444  0.5615239678209392  0.1594050436621828  1.0000
  F   F44       1.0  0.013508793132679425  0.9384756518665897  0.659405726236628  1.0000
  F   F45       1.0  0.9781917263631144  0.3060325871321509  0.7571338693373804  1.0000
  F   F46       1.0  0.021807589784842207  0.1939670786110241  0.2571332802534272  1.0000
  F   F47       1.0  0.021807887294031  0.6939666590221093  0.24286575379321115  1.0000
  F   F48       1.0  0.9781920238723033  0.8060321675432363  0.7428663428771571  1.0000
