data_image0
_chemical_formula_structural       Cd6H32C32S4N8O30
_chemical_formula_sum              "Cd6 H32 C32 S4 N8 O30"
_cell_length_a       6.622306306723274
_cell_length_b       13.101453532836175
_cell_length_c       13.5933
_cell_angle_alpha    104.2514712531001
_cell_angle_beta     96.63258376113117
_cell_angle_gamma    97.66309953554334

_space_group_name_H-M_alt    "P 1"
_space_group_IT_number       1

loop_
  _space_group_symop_operation_xyz
  'x, y, z'

loop_
  _atom_site_type_symbol
  _atom_site_label
  _atom_site_symmetry_multiplicity
  _atom_site_fract_x
  _atom_site_fract_y
  _atom_site_fract_z
  _atom_site_occupancy
  Cd  Cd1       1.0  0.6078870585864565  0.48005556145707107  0.3695192553806095  1.0000
  Cd  Cd2       1.0  0.3921119454437233  0.5199431570750264  0.630479795996507  1.0000
  Cd  Cd3       1.0  0.8454405122357471  0.24382321367027518  0.31310646082032884  1.0000
  Cd  Cd4       1.0  0.15455875094343702  0.7561763037321609  0.6868935303440722  1.0000
  Cd  Cd5       1.0  0.17595858549250212  0.31965198547192836  0.1081893251810868  1.0000
  Cd  Cd6       1.0  0.8240376372418369  0.6803475319305078  0.8918104948985998  1.0000
  H   H1        1.0  0.9443883497748973  0.5678074729462494  0.08238162218836466  1.0000
  H   H2        1.0  0.05560965233087237  0.4321928433265184  0.9176192232209742  1.0000
  H   H3        1.0  0.05352060048851836  0.9405803410662017  0.03873479004404604  1.0000
  H   H4        1.0  0.9464822214335273  0.0594207740768908  0.9612643091534991  1.0000
  H   H5        1.0  0.20555824419743374  0.06513030033128328  0.36763359022608466  1.0000
  H   H6        1.0  0.7944430575021855  0.9348708148118163  0.6323661590856418  1.0000
  H   H7        1.0  0.16120630585255213  0.8800163835459003  0.3923281979359743  1.0000
  H   H8        1.0  0.8387934756246481  0.11998473159719228  0.6076722014899332  1.0000
  H   H9        1.0  0.6693185318094095  0.8852250181028649  0.4832148353146549  1.0000
  H   H10       1.0  0.3306809905187863  0.11477529816990277  0.5167853599804956  1.0000
  H   H11       1.0  0.7168455055100084  0.0641460920837105  0.4460298703286441  1.0000
  H   H12       1.0  0.2831537576691758  0.9358534253187256  0.5539701208357569  1.0000
  H   H13       1.0  0.5463011304880326  0.723154199737287  0.1591867851719684  1.0000
  H   H14       1.0  0.45369913461556177  0.2768437199244786  0.8408143545863567  1.0000
  H   H15       1.0  0.06055870243513085  0.6592014342736405  0.2698151190849103  1.0000
  H   H16       1.0  0.9394425992644957  0.3407996808694519  0.7301853658833579  1.0000
  H   H17       1.0  0.561315294264503  0.870751884319354  0.040387804426451616  1.0000
  H   H18       1.0  0.43868041017181986  0.129246035342419  0.9596116073917216  1.0000
  H   H19       1.0  0.653603971849414  0.0796945053325047  0.0793841960760631  1.0000
  H   H20       1.0  0.34639199173592067  0.9203042131995998  0.9206154198728669  1.0000
  H   H21       1.0  0.111886986273781  0.24878419842467983  0.49204629647226733  1.0000
  H   H22       1.0  0.8881107566829841  0.7512153189777564  0.5079528734932381  1.0000
  H   H23       1.0  0.9201748591001291  0.2953080098807774  0.5244199061141543  1.0000
  H   H24       1.0  0.07982466322806656  0.7046923063919832  0.4755795535244687  1.0000
  H   H25       1.0  0.318454292488525  0.5257453522877924  0.026506792504584098  1.0000
  H   H26       1.0  0.6815454889886754  0.47425576285529997  0.9734936069213234  1.0000
  H   H27       1.0  0.40590739233809364  0.5362920383953096  0.1442492203089429  1.0000
  H   H28       1.0  0.5940906097676831  0.4637082778774583  0.8557508894438541  1.0000
  H   H29       1.0  0.5018343290330378  0.3039741552295395  0.4555180471999165  1.0000
  H   H30       1.0  0.4981661952195609  0.6960245633025649  0.5444810897195467  1.0000
  H   H31       1.0  0.4056699749009454  0.2647224603949141  0.3383152097602533  1.0000
  H   H32       1.0  0.5943295474272503  0.7352778558778466  0.6616849855349045  1.0000
  C   C1        1.0  0.9846974003880006  0.6535685995710168  0.112173259637494  1.0000
  C   C2        1.0  0.015302381089199483  0.34643251557208277  0.8878278754449482  1.0000
  C   C3        1.0  0.08082004297661882  0.9274517060494671  0.11477426457005176  1.0000
  C   C4        1.0  0.9191812587230076  0.0725494090936252  0.8852254847416745  1.0000
  C   C5        1.0  0.04832188136256116  0.8247353555233301  0.12812880375787464  1.0000
  C   C6        1.0  0.9516761207432085  0.17526496074943754  0.8718713059949222  1.0000
  C   C7        1.0  0.16564388473704383  0.9954739169783264  0.3019350276706446  1.0000
  C   C8        1.0  0.834357676111587  0.0045279970350975  0.6980649257718383  1.0000
  C   C9        1.0  0.14141235258735924  0.8936562955743594  0.3163203486450071  1.0000
  C   C10       1.0  0.8585889491122602  0.10634481956873289  0.6836801363232611  1.0000
  C   C11       1.0  0.08521674159744208  0.808808277737725  0.22799646158046724  1.0000
  C   C12       1.0  0.9147845601021772  0.19119283740536727  0.7720040233878009  1.0000
  C   C13       1.0  0.1400074463173979  0.013209320920147096  0.2030599054462812  1.0000
  C   C14       1.0  0.8599953756046548  0.9867917942229454  0.796939929407806  1.0000
  C   C15       1.0  0.6522045992949117  0.8909305500055992  0.40431432775288556  1.0000
  C   C16       1.0  0.34779618410669844  0.10906896739683697  0.595686484610404  1.0000
  C   C17       1.0  0.6039693304591013  0.6908702519280965  0.35042325246676853  1.0000
  C   C18       1.0  0.3960311937934975  0.3091284666040011  0.6495766201092366  1.0000
  C   C19       1.0  0.607852580080241  0.7946698706228331  0.324471815993057  1.0000
  C   C20       1.0  0.3921482033213621  0.2053296467796031  0.6755282607136976  1.0000
  C   C21       1.0  0.676946383933732  0.9904314474501773  0.3846358237967634  1.0000
  C   C22       1.0  0.3230541403188667  0.009567271081927198  0.6153633131227068  1.0000
  C   C23       1.0  0.579432285439367  0.7962124892316493  0.22134064080309193  1.0000
  C   C24       1.0  0.42057001818466944  0.2037870281707796  0.7786602571025654  1.0000
  C   C25       1.0  0.6022284898553425  0.8961407823032204  0.20210943962405992  1.0000
  C   C26       1.0  0.3977750748421017  0.1038579362288843  0.7978906040366596  1.0000
  C   C27       1.0  0.6543173734878921  0.9925340741609003  0.2816080734571996  1.0000
  C   C28       1.0  0.3456849301361374  0.007465443241535799  0.7183928244484578  1.0000
  C   C29       1.0  0.16867202770818326  0.125055960457253  0.1937783714100902  1.0000
  C   C30       1.0  0.8313274946200054  0.8749443558155078  0.8062210882285257  1.0000
  C   C31       1.0  0.6412131178510309  0.0336995460354075  0.1353643617035374  1.0000
  C   C32       1.0  0.3587856270301373  0.9662983736263653  0.8646352211993572  1.0000
  S   S1        1.0  0.6607347173739981  0.3341890288819016  0.11406844396230299  1.0000
  S   S2        1.0  0.33926454580518584  0.6658104885205345  0.8859315472020981  1.0000
  S   S3        1.0  0.12721074228972643  0.49424509627313984  0.3632456415821749  1.0000
  S   S4        1.0  0.8727887800384693  0.5057552199996279  0.6367552893695176  1.0000
  N   N1        1.0  0.9813865035600247  0.7250451258103467  0.05775749572385539  1.0000
  N   N2        1.0  0.018613277917175708  0.2749559893327458  0.942242903702052  1.0000
  N   N3        1.0  0.04591539187646282  0.6998303815585984  0.21382722040198127  1.0000
  N   N4        1.0  0.9540861689721751  0.30017153245482575  0.7861734686970365  1.0000
  N   N5        1.0  0.5939342795967023  0.9263165113093661  0.11136262898006774  1.0000
  N   N6        1.0  0.4060665038049081  0.0736830060930629  0.8886381833832286  1.0000
  N   N7        1.0  0.6772209757494425  0.0770806016100494  0.23693194440416224  1.0000
  N   N8        1.0  0.32278080957657107  0.9229173180517236  0.7630678095834469  1.0000
  O   O1        1.0  0.824652062377055  0.2747642604533524  0.1498336009002728  1.0000
  O   O2        1.0  0.1753456805797029  0.7252352569490836  0.8501663047217676  1.0000
  O   O3        1.0  0.5331131933972417  0.35981279474302136  0.19994072659913084  1.0000
  O   O4        1.0  0.46688277018809293  0.6401859237890761  0.8000588893498061  1.0000
  O   O5        1.0  0.759893550442939  0.43101131410723065  0.0917299199677686  1.0000
  O   O6        1.0  0.2401041925138259  0.5689882032952056  0.9082699856542789  1.0000
  O   O7        1.0  0.5728124646951401  0.604295076436223  0.2784067593439302  1.0000
  O   O8        1.0  0.4271865393350396  0.39570364209587433  0.7215922920331863  1.0000
  O   O9        1.0  0.6410540754632734  0.6891095417189631  0.445008595691327  1.0000
  O   O10       1.0  0.3589444102688901  0.31088757907247094  0.554990783080811  1.0000
  O   O11       1.0  0.9322915921685822  0.4296108944173014  0.3792869352409483  1.0000
  O   O12       1.0  0.06770818930861822  0.5703902207257981  0.6207164068111055  1.0000
  O   O13       1.0  0.0945504361526659  0.606249113265413  0.37634798747404113  1.0000
  O   O14       1.0  0.9054493453245342  0.3937520018776794  0.6236531476084083  1.0000
  O   O15       1.0  0.17776947035785895  0.4504861750320187  0.2609714746693895  1.0000
  O   O16       1.0  0.8222252321540608  0.5495133423704174  0.7390282598679433  1.0000
  O   O17       1.0  0.5195097258787982  0.2634506588282477  0.023531673437716432  1.0000
  O   O18       1.0  0.48048953730039307  0.7365488585741884  0.9764668464136149  1.0000
  O   O19       1.0  0.3000311881495605  0.4883310592140616  0.44233711564803  1.0000
  O   O20       1.0  0.6999698544010544  0.5116692570587063  0.5576624295329466  1.0000
  O   O21       1.0  0.18352460393276712  0.14158938082395167  0.10661378999643739  1.0000
  O   O22       1.0  0.8164751775444332  0.8584117343191409  0.8933858737729352  1.0000
  O   O23       1.0  0.17428467011670526  0.20225399600593613  0.27544575611599237  1.0000
  O   O24       1.0  0.8257133319890644  0.7977463202668318  0.7245528823237278  1.0000
  O   O25       1.0  0.9586314502869444  0.23341872648164494  0.4750811915562352  1.0000
  O   O26       1.0  0.041368072041251466  0.7665815897911228  0.5249190037389154  1.0000
  O   O27       1.0  0.3057327102056888  0.4936802949492502  0.08446330166822238  1.0000
  O   O28       1.0  0.6942683323449261  0.5063200213235176  0.9155362435127543  1.0000
  O   O29       1.0  0.5379010042327793  0.30066842980059494  0.3856854906767353  1.0000
  O   O30       1.0  0.46209825894640494  0.6993310876018413  0.6143145004876656  1.0000
