data_image0
_chemical_formula_structural       K8H24C24S8O36
_chemical_formula_sum              "K8 H24 C24 S8 O36"
_cell_length_a       7.312094483744351
_cell_length_b       11.492253068006496
_cell_length_c       14.731383194754857
_cell_angle_alpha    89.99991452487303
_cell_angle_beta     101.02742022962808
_cell_angle_gamma    90.00010074649137

_space_group_name_H-M_alt    "P 1"
_space_group_IT_number       1

loop_
  _space_group_symop_operation_xyz
  'x, y, z'

loop_
  _atom_site_type_symbol
  _atom_site_label
  _atom_site_symmetry_multiplicity
  _atom_site_fract_x
  _atom_site_fract_y
  _atom_site_fract_z
  _atom_site_occupancy
  K   K1        1.0  0.656243646530811  0.1329781663988925  0.4992108458252674  1.0000
  K   K2        1.0  0.34375772199760485  0.6329874697038634  0.000791378254568495  1.0000
  K   K3        1.0  0.34376068504306556  0.8670203018746533  0.5007905968901909  1.0000
  K   K4        1.0  0.6562368513484172  0.36701708962549884  0.9992084763188203  1.0000
  K   K5        1.0  0.9293938452510843  0.0255487665700116  0.27945339858792556  1.0000
  K   K6        1.0  0.07061002033404408  0.525547775950109  0.22054511041929456  1.0000
  K   K7        1.0  0.07060628122341228  0.9744523121589663  0.720544258141267  1.0000
  K   K8        1.0  0.9293831747857625  0.47445156246832443  0.7794566522103565  1.0000
  H   H1        1.0  0.03558181279762349  0.3045552580848678  0.3776228944737099  1.0000
  H   H2        1.0  0.9644213431528429  0.8045554494592865  0.12237658090364795  1.0000
  H   H3        1.0  0.9644211153992401  0.6954440803407067  0.6223770598142693  1.0000
  H   H4        1.0  0.03558019172923111  0.1954438889656345  0.877623243549614  1.0000
  H   H5        1.0  0.4880367951807258  0.6594578052575456  0.6527734216841878  1.0000
  H   H6        1.0  0.5119630116220791  0.15945646184395196  0.8472240685034933  1.0000
  H   H7        1.0  0.5119633413570243  0.34054327347014623  0.3472255936373614  1.0000
  H   H8        1.0  0.4880343433145526  0.8405420064276184  0.15277536644602213  1.0000
  H   H9        1.0  0.7583037266995803  0.2847389980402966  0.20377017973309114  1.0000
  H   H10       1.0  0.2416952115273716  0.7847397942177209  0.29623028336804674  1.0000
  H   H11       1.0  0.24169501149069106  0.7152612105359919  0.7962280264579747  1.0000
  H   H12       1.0  0.7583049401042105  0.2152604143566492  0.7037707698424356  1.0000
  H   H13       1.0  0.9214119515024563  0.26271299446136714  0.15353439831042695  1.0000
  H   H14       1.0  0.0785855351985134  0.7627126432929144  0.3464652763743388  1.0000
  H   H15       1.0  0.07858539840569992  0.7372880842650246  0.8464643573416808  1.0000
  H   H16       1.0  0.9214132180876932  0.23728843543283765  0.653534967704843  1.0000
  H   H17       1.0  0.23569340800974453  0.583497139750058  0.4311263658997859  1.0000
  H   H18       1.0  0.7643078058205147  0.0834957367711411  0.06887114964544593  1.0000
  H   H19       1.0  0.7643067234953235  0.41650306882688437  0.568871970125997  1.0000
  H   H20       1.0  0.23569233574781384  0.9165044718045154  0.9311285449726869  1.0000
  H   H21       1.0  0.31473269872454773  0.28506982518532453  0.6805615594276446  1.0000
  H   H22       1.0  0.6852702181029288  0.7850675904933482  0.8194387894848916  1.0000
  H   H23       1.0  0.6852660545616587  0.7149312535404282  0.31943868465153  1.0000
  H   H24       1.0  0.3147299284949271  0.21493087777888323  0.1805615844302366  1.0000
  C   C1        1.0  0.2038766639259961  0.3213186669071959  0.5367998703450496  1.0000
  C   C2        1.0  0.7961207671600548  0.8213171522647754  0.9631999251386675  1.0000
  C   C3        1.0  0.7961220843285872  0.678682411819203  0.4631996944379537  1.0000
  C   C4        1.0  0.2038752045229373  0.17867957570206983  0.036800738569297706  1.0000
  C   C5        1.0  0.177677629040808  0.4068267565926504  0.46603723498517985  1.0000
  C   C6        1.0  0.8223188072492605  0.9068234773660749  0.03396149504071395  1.0000
  C   C7        1.0  0.8223266874402739  0.5931734519856064  0.5339621698409331  1.0000
  C   C8        1.0  0.17767716443583484  0.09317499090355598  0.9660391686664342  1.0000
  C   C9        1.0  0.24917664946194412  0.5184271740025039  0.48598438883225015  1.0000
  C   C10       1.0  0.7508160524115581  0.0184267305343013  0.014013088194346292  1.0000
  C   C11       1.0  0.750820695412486  0.4815721644217417  0.5140136875245035  1.0000
  C   C12       1.0  0.24917851589548695  0.981571737735969  0.9859860870857274  1.0000
  C   C13       1.0  0.3402561790394287  0.5478347765405117  0.574911209744478  1.0000
  C   C14       1.0  0.6597475331774946  0.04783083907445729  0.9250860956263908  1.0000
  C   C15       1.0  0.6597453457814881  0.45216630218848053  0.42508725611561005  1.0000
  C   C16       1.0  0.34025122513614287  0.9521667590450845  0.0749148277506038  1.0000
  C   C17       1.0  0.35867611225663154  0.46384422548171494  0.6467980815931185  1.0000
  C   C18       1.0  0.6413202796856796  0.9638453582216968  0.8532028086112362  1.0000
  C   C19       1.0  0.6413226410295749  0.5361568532440372  0.3532021624860633  1.0000
  C   C20       1.0  0.3586770853163089  0.036154850351373106  0.1467979849298118  1.0000
  C   C21       1.0  0.2935743093626613  0.3512074617662435  0.6263880764002395  1.0000
  C   C22       1.0  0.706423188851339  0.8512042774053514  0.873611011679671  1.0000
  C   C23       1.0  0.7064272255225603  0.6487944871128518  0.3736117480517933  1.0000
  C   C24       1.0  0.293574171116923  0.14879419086557277  0.1263891025660158  1.0000
  S   S1        1.0  0.4558599701454682  0.5049875381705249  0.7620735464130775  1.0000
  S   S2        1.0  0.5441366519099446  0.0049725161257825  0.7379204328996709  1.0000
  S   S3        1.0  0.5441373646741  0.4950187614661417  0.23792317134805074  1.0000
  S   S4        1.0  0.4558620913046028  0.9950216013901282  0.26207845259042983  1.0000
  S   S5        1.0  0.13204940752435593  0.17577103570420868  0.5140871546941597  1.0000
  S   S6        1.0  0.8679560421139172  0.6757704279763602  0.9859149152676069  1.0000
  S   S7        1.0  0.8679535357673982  0.8242283027194334  0.48591483748234765  1.0000
  S   S8        1.0  0.1320469011778371  0.3242289104472817  0.014087076908900497  1.0000
  O   O1        1.0  0.9988524896407255  0.17922958548226828  0.4241309140445111  1.0000
  O   O2        1.0  0.0011615001895677  0.6792322734084167  0.0758683592774858  1.0000
  O   O3        1.0  0.0011573950647659006  0.8207680126450683  0.5758683308255287  1.0000
  O   O4        1.0  0.9988428162936173  0.32076967547262564  0.92413104554781  1.0000
  O   O5        1.0  0.036167885272249095  0.13927850207248582  0.5889191582412465  1.0000
  O   O6        1.0  0.9638305046565278  0.6392790136330361  0.9110816175690106  1.0000
  O   O7        1.0  0.9638308730476909  0.8607243169554053  0.41108176513329653  1.0000
  O   O8        1.0  0.03616545696636561  0.360720324789277  0.08891768754537571  1.0000
  O   O9        1.0  0.2962533367690198  0.10453357643515203  0.5104667513119239  1.0000
  O   O10       1.0  0.703753364379267  0.604530168529152  0.9895395912569925  1.0000
  O   O11       1.0  0.7037538166579439  0.8954666321379818  0.4895397061453863  1.0000
  O   O12       1.0  0.2962482057231526  0.3954682997398749  0.010464988269909303  1.0000
  O   O13       1.0  0.5894710405524819  0.5991197302244302  0.7512727195413049  1.0000
  O   O14       1.0  0.410525833947581  0.0991210717340039  0.7487245677195986  1.0000
  O   O15       1.0  0.4105249160408846  0.40088134850130064  0.2487259062760856  1.0000
  O   O16       1.0  0.5894757009376406  0.9008808771450841  0.2512752567324341  1.0000
  O   O17       1.0  0.5464845505222441  0.40287440698460836  0.8100906094938694  1.0000
  O   O18       1.0  0.4535284039349535  0.9028773816141323  0.6899105374719312  1.0000
  O   O19       1.0  0.4535211643031688  0.5971240612908771  0.1899096044639563  1.0000
  O   O20       1.0  0.5464759276410193  0.09712282696219177  0.31009090524270994  1.0000
  O   O21       1.0  0.30083102933716793  0.5499838111613826  0.8033977104795369  1.0000
  O   O22       1.0  0.6991782814618832  0.04998644338797932  0.6966028293908054  1.0000
  O   O23       1.0  0.6991732921723964  0.450013786962053  0.19660237364398372  1.0000
  O   O24       1.0  0.30082604005083624  0.9500137651896381  0.303397254731486  1.0000
  O   O25       1.0  0.08707497830906161  0.3855768222769313  0.378518610885628  1.0000
  O   O26       1.0  0.912922799994398  0.8855760878669443  0.1214802689579315  1.0000
  O   O27       1.0  0.9129251582255408  0.614421645996586  0.6214804044371434  1.0000
  O   O28       1.0  0.08707316666011879  0.11442325055472219  0.8785197154526331  1.0000
  O   O29       1.0  0.4082616757418336  0.6572467668129248  0.5890166734607121  1.0000
  O   O30       1.0  0.5917311591519123  0.1572480013672575  0.9109801696315003  1.0000
  O   O31       1.0  0.5917356691346926  0.3427543119141064  0.41098140289522433  1.0000
  O   O32       1.0  0.408264802470974  0.8427513370550487  0.08901913548288581  1.0000
  O   O33       1.0  0.8305749696551246  0.22117101802447073  0.18325933118978813  1.0000
  O   O34       1.0  0.16942241674973962  0.7211708245548039  0.31674038256235804  1.0000
  O   O35       1.0  0.1694223903162921  0.7788300607006349  0.8167407830546765  1.0000
  O   O36       1.0  0.8305749432206256  0.27882938401890556  0.6832597316825186  1.0000
