data_image0
_chemical_formula_structural       Cu4H20C36N16O4
_chemical_formula_sum              "Cu4 H20 C36 N16 O4"
_cell_length_a       7.152291855730075
_cell_length_b       12.517991887165365
_cell_length_c       15.572331838966047
_cell_angle_alpha    90.0012452284975
_cell_angle_beta     89.99962939770076
_cell_angle_gamma    90.97480385254498

_space_group_name_H-M_alt    "P 1"
_space_group_IT_number       1

loop_
  _space_group_symop_operation_xyz
  'x, y, z'

loop_
  _atom_site_type_symbol
  _atom_site_label
  _atom_site_symmetry_multiplicity
  _atom_site_fract_x
  _atom_site_fract_y
  _atom_site_fract_z
  _atom_site_occupancy
  Cu  Cu1       1.0  0.7363082590979604  0.35369795370513674  0.8774087809535231  1.0000
  Cu  Cu2       1.0  0.263698938100312  0.14629826833574813  0.37741127984963185  1.0000
  Cu  Cu3       1.0  0.26369946040927067  0.6463029765207438  0.12258230836686579  1.0000
  Cu  Cu4       1.0  0.7362993952814777  0.8536908315635403  0.6225868731914588  1.0000
  H   H1        1.0  0.9156638940649419  0.40939227816291174  0.5841208677628273  1.0000
  H   H2        1.0  0.08435883493141462  0.0906039175161695  0.0841197330463359  1.0000
  H   H3        1.0  0.0843478815535619  0.5906069808436173  0.41587856967607456  1.0000
  H   H4        1.0  0.915647823058727  0.9094010302788932  0.9158662189944807  1.0000
  H   H5        1.0  0.8071768820766823  0.437028490255969  0.4840649749047756  1.0000
  H   H6        1.0  0.19283482929962056  0.0629736690347258  0.9840712440218411  1.0000
  H   H7        1.0  0.19280936091445977  0.5629832172392855  0.5159370313421476  1.0000
  H   H8        1.0  0.8071802761032816  0.9370319292550138  0.0159326886198841  1.0000
  H   H9        1.0  0.7402232720987957  0.602530992041416  0.6028612081672406  1.0000
  H   H10       1.0  0.25978621211768876  0.8974693048160206  0.10286750899845032  1.0000
  H   H11       1.0  0.25975651242234227  0.3974704326799526  0.3971350185177869  1.0000
  H   H12       1.0  0.7402098640617754  0.10252623324333143  0.8971344970904696  1.0000
  H   H13       1.0  0.7454140047792565  0.521937127825126  0.6964733156174532  1.0000
  H   H14       1.0  0.25461332071803616  0.9780589283030994  0.1964669270482062  1.0000
  H   H15       1.0  0.25457343380426073  0.47807215927601027  0.3035344700875057  1.0000
  H   H16       1.0  0.7453810905228053  0.0219334402130258  0.8035402163320242  1.0000
  H   H17       1.0  0.5299044733917739  0.580139385709039  0.6632100400634898  1.0000
  H   H18       1.0  0.4700957375503308  0.919861070174811  0.16321094206286801  1.0000
  H   H19       1.0  0.4700702493707143  0.419851731594072  0.3367861865385038  1.0000
  H   H20       1.0  0.529894226382041  0.08014497312493768  0.8367949171157818  1.0000
  C   C1        1.0  0.7577661182581112  0.21087249015324971  0.6143768736841294  1.0000
  C   C2        1.0  0.24224232981219276  0.28912555765895587  0.1143903078842285  1.0000
  C   C3        1.0  0.2422288294412951  0.7891262667294895  0.3856077939911771  1.0000
  C   C4        1.0  0.7577701832466134  0.7108824857548157  0.8856084874664418  1.0000
  C   C5        1.0  0.7656625081879939  0.273884640727843  0.5301832186463072  1.0000
  C   C6        1.0  0.23437016202066735  0.2261371460838149  0.0301840068584198  1.0000
  C   C7        1.0  0.23434209371476566  0.7261291409856058  0.46980722862774377  1.0000
  C   C8        1.0  0.7656664980070077  0.7738752685237177  0.9698115776701995  1.0000
  C   C9        1.0  0.7540045929720806  0.2623501061606959  0.692883880631598  1.0000
  C   C10       1.0  0.24599420828694463  0.2376301925112045  0.1929041005981986  1.0000
  C   C11       1.0  0.245998992307122  0.737634901714479  0.307097576086008  1.0000
  C   C12       1.0  0.7539968731331614  0.7623558367987046  0.8071043270604719  1.0000
  C   C13       1.0  0.7485041092410258  0.10010912880847657  0.61288929991953  1.0000
  C   C14       1.0  0.2514709027199232  0.39989027106768293  0.1128879634088449  1.0000
  C   C15       1.0  0.2515020123753118  0.8998894304403253  0.3871056423699315  1.0000
  C   C16       1.0  0.7485309616298326  0.600107563727697  0.8871044102225412  1.0000
  C   C17       1.0  0.599539092766726  0.24664568432901043  0.4773183225890918  1.0000
  C   C18       1.0  0.4004767595793768  0.25335462390916064  0.9773273027295559  1.0000
  C   C19       1.0  0.40047155429098785  0.7533567936720047  0.5226766197278891  1.0000
  C   C20       1.0  0.599530624664972  0.746642313537329  0.0226740611894698  1.0000
  C   C21       1.0  0.9281154662445773  0.2389291180726048  0.4798825469388177  1.0000
  C   C22       1.0  0.07189801860878482  0.2610601029383659  0.9798836986802327  1.0000
  C   C23       1.0  0.07189258846095467  0.7610758050695451  0.5201085424162741  1.0000
  C   C24       1.0  0.9281127624999856  0.738943972289036  0.020115738802715596  1.0000
  C   C25       1.0  0.7883386883265757  0.3955403676753093  0.5460110448989326  1.0000
  C   C26       1.0  0.21164653946474493  0.10445228574555192  0.04600975710793159  1.0000
  C   C27       1.0  0.21163776633345324  0.6044547179253784  0.45399288771037755  1.0000
  C   C28       1.0  0.7883569897469374  0.8955487187555993  0.9539896803592498  1.0000
  C   C29       1.0  0.6183130581880435  0.44601498725793215  0.588346455842391  1.0000
  C   C30       1.0  0.3816927226358688  0.05398002048519151  0.0883443887464281  1.0000
  C   C31       1.0  0.38169392370127053  0.553977158937123  0.4116735308079384  1.0000
  C   C32       1.0  0.6183010963130188  0.946021955794116  0.9116659655424115  1.0000
  C   C33       1.0  0.6591264259945292  0.5438465495304641  0.6408493473269914  1.0000
  C   C34       1.0  0.34088244655961836  0.9561531622599659  0.1408512931345811  1.0000
  C   C35       1.0  0.3408665995958985  0.45616263865103696  0.3591558697100438  1.0000
  C   C36       1.0  0.6590955388870584  0.04384349587143529  0.859159061132054  1.0000
  N   N1        1.0  0.7506459989284198  0.30364657898978464  0.7607989344748347  1.0000
  N   N2        1.0  0.24932082891971422  0.19634807642388102  0.26080942515124406  1.0000
  N   N3        1.0  0.2493582566949115  0.6963464148291434  0.2391908704517718  1.0000
  N   N4        1.0  0.750653301583107  0.8036526485739729  0.7391848750426887  1.0000
  N   N5        1.0  0.7411593118541404  0.006268571916813  0.6127812419905467  1.0000
  N   N6        1.0  0.25882874144579665  0.49373619272682845  0.1127841070520077  1.0000
  N   N7        1.0  0.25882851795887524  0.9937287115516115  0.387214342480803  1.0000
  N   N8        1.0  0.74116894371376  0.5062785112707432  0.8872134040514013  1.0000
  N   N9        1.0  0.4822129897952579  0.2087692011494369  0.4346444084592492  1.0000
  N   N10       1.0  0.517806728836014  0.29123630941324313  0.9346613966446498  1.0000
  N   N11       1.0  0.5178090324194714  0.791235474710753  0.5653415435551779  1.0000
  N   N12       1.0  0.48219919160482766  0.7087598542055674  0.06534253592817411  1.0000
  N   N13       1.0  0.055317210647949415  0.2071180661873626  0.4414866817728083  1.0000
  N   N14       1.0  0.9447087354211093  0.29287951698491105  0.9414843856035162  1.0000
  N   N15       1.0  0.9446953024350719  0.7928899771750795  0.558508260590358  1.0000
  N   N16       1.0  0.0553174099485929  0.7071242862306306  0.0585092723717864  1.0000
  O   O1        1.0  0.46076425315048664  0.40899637071343886  0.5757888467407426  1.0000
  O   O2        1.0  0.5392468032514303  0.0909926135124124  0.0757895095564081  1.0000
  O   O3        1.0  0.539234583022605  0.5909487335159866  0.4242523309385575  1.0000
  O   O4        1.0  0.46074509367324623  0.9090197938860031  0.9242279086378885  1.0000
