data_image0
_chemical_formula_structural       FeP2H38C36O4
_chemical_formula_sum              "Fe1 P2 H38 C36 O4"
_cell_length_a       8.305716683857423
_cell_length_b       9.874781416181257
_cell_length_c       10.295119823225434
_cell_angle_alpha    75.90698914034074
_cell_angle_beta     86.55656937526102
_cell_angle_gamma    65.95676555002862

_space_group_name_H-M_alt    "P 1"
_space_group_IT_number       1

loop_
  _space_group_symop_operation_xyz
  'x, y, z'

loop_
  _atom_site_type_symbol
  _atom_site_label
  _atom_site_symmetry_multiplicity
  _atom_site_fract_x
  _atom_site_fract_y
  _atom_site_fract_z
  _atom_site_occupancy
  Fe  Fe1       1.0  0.5000000581960222  0.5000016466552849  0.49999904696001357  1.0000
  P   P1        1.0  0.22689396433164447  0.5315948831993891  0.5847518343645817  1.0000
  P   P2        1.0  0.7731125678340333  0.46840494000056027  0.41524683384695754  1.0000
  H   H1        1.0  0.6280295404089741  0.5750981991491386  0.8795389001381579  1.0000
  H   H2        1.0  0.371967497696673  0.4249062811309442  0.12046485706996182  1.0000
  H   H3        1.0  0.5526495052198539  0.9042630959473357  0.6087880843916905  1.0000
  H   H4        1.0  0.4473398532228785  0.09574257224584666  0.39121081036821437  1.0000
  H   H5        1.0  0.5995315556584091  0.8226123781144705  0.7839733015025133  1.0000
  H   H6        1.0  0.40045829232115443  0.177400111434217  0.2160240067269044  1.0000
  H   H7        1.0  0.37868657677898193  0.9015176454047944  0.7161585995488268  1.0000
  H   H8        1.0  0.6213059128317936  0.09848912882236498  0.283838959893096  1.0000
  H   H9        1.0  0.6130012368993221  0.21798049394422486  0.9276134199746905  1.0000
  H   H10       1.0  0.3869918207447256  0.7820251303000345  0.07238244125684194  1.0000
  H   H11       1.0  0.6930385212490647  0.3291280280477409  0.9972955333308633  1.0000
  H   H12       1.0  0.30695915106822713  0.6708752907184418  0.002703611578695599  1.0000
  H   H13       1.0  0.8336083631776104  0.20034029985066576  0.9031019624771376  1.0000
  H   H14       1.0  0.16638828337045192  0.7996652996629975  0.0968957220396121  1.0000
  H   H15       1.0  0.051232026396562005  0.6045357433014259  0.38203208250669723  1.0000
  H   H16       1.0  0.9487703919720757  0.39545959165177186  0.6179745623710958  1.0000
  H   H17       1.0  0.16745699733267821  0.4064439834095522  0.4343048110058518  1.0000
  H   H18       1.0  0.8325444614450956  0.5935536207601261  0.565697459390968  1.0000
  H   H19       1.0  0.9986585265450072  0.543803709941365  0.8208720349052284  1.0000
  H   H20       1.0  0.0013493700658529111  0.45619042027403367  0.17912983842038702  1.0000
  H   H21       1.0  0.9960312531887677  0.34575922173508633  0.02065770050705851  1.0000
  H   H22       1.0  0.00397766042861033  0.6542303270419936  0.979339362515816  1.0000
  H   H23       1.0  0.21905491792832524  0.0786767897428149  0.05281896982508269  1.0000
  H   H24       1.0  0.7809486056846708  0.9213139483974043  0.9471789792990961  1.0000
  H   H25       1.0  0.4406765307737501  0.009297782200874799  0.8799610642648404  1.0000
  H   H26       1.0  0.5593236076777612  0.9907055072660285  0.1200360582924702  1.0000
  H   H27       1.0  0.4440916520407184  0.2074357095911452  0.6786409358702556  1.0000
  H   H28       1.0  0.5559177290540304  0.7925606643851068  0.3213555119848551  1.0000
  H   H29       1.0  0.25909930060322495  0.6700935016910206  0.7938157595431863  1.0000
  H   H30       1.0  0.7408993313049307  0.3299075478586815  0.20618775984734578  1.0000
  H   H31       1.0  0.09072301249637589  0.9214129107048594  0.8461313316445852  1.0000
  H   H32       1.0  0.9092737654297663  0.0785870104738891  0.15387056916236472  1.0000
  H   H33       1.0  0.8186362126493448  0.11146194157105775  0.7052797182570245  1.0000
  H   H34       1.0  0.18135966212291518  0.888532281329418  0.2947186677517736  1.0000
  H   H35       1.0  0.723927340238319  0.04751200842212461  0.516734186089117  1.0000
  H   H36       1.0  0.2760713393440921  0.9524787729419941  0.4832639222886854  1.0000
  H   H37       1.0  0.8920645166140986  0.798130888019351  0.4610720037856169  1.0000
  H   H38       1.0  0.1079401297686999  0.20185985468955883  0.5389297909760346  1.0000
  C   C1        1.0  0.6361287624084185  0.40461338907307004  0.782611726585678  1.0000
  C   C2        1.0  0.3638723135744896  0.5953876350210194  0.21739074181532198  1.0000
  C   C3        1.0  0.540052032683228  0.6849255731401341  0.675583854470986  1.0000
  C   C4        1.0  0.4599473745560659  0.3150765925245054  0.3244154951402153  1.0000
  C   C5        1.0  0.6009726317061634  0.555969010853708  0.7847842060957504  1.0000
  C   C6        1.0  0.3990359837988607  0.44403420297136614  0.21521263776771352  1.0000
  C   C7        1.0  0.517824307564588  0.8366177731295464  0.6979158799877041  1.0000
  C   C8        1.0  0.48216690486016495  0.16338902343458264  0.3020846333557898  1.0000
  C   C9        1.0  0.6975143624469736  0.281542855993969  0.9109368415003303  1.0000
  C   C10       1.0  0.302484520877968  0.718460451966237  0.08906226359582803  1.0000
  C   C11       1.0  0.08293688179846008  0.5076054875910144  0.4699897504068531  1.0000
  C   C12       1.0  0.9170680468233102  0.4923898103755632  0.5300129293932514  1.0000
  C   C13       1.0  0.22460379327928587  0.39024225504871163  0.7377147845755303  1.0000
  C   C14       1.0  0.7754022899131455  0.6097609996066423  0.2622869957283456  1.0000
  C   C15       1.0  0.09819560507705921  0.4274206660628579  0.8345971935462373  1.0000
  C   C16       1.0  0.9018169600673785  0.572579106950883  0.16540224696098701  1.0000
  C   C17       1.0  0.09602380034476708  0.31576296804986725  0.9469621895693122  1.0000
  C   C18       1.0  0.9039882973223001  0.6842299797646942  0.05303786610568305  1.0000
  C   C19       1.0  0.22001790456759812  0.16525146887575198  0.9641676865006303  1.0000
  C   C20       1.0  0.7799905821360011  0.8347415075130725  0.035831517251864446  1.0000
  C   C21       1.0  0.3440447133666069  0.1266751797193493  0.8669468962507523  1.0000
  C   C22       1.0  0.6559586876310274  0.8733235374466162  0.1330531072787693  1.0000
  C   C23       1.0  0.3464599288301429  0.23773718449034215  0.7538856693094402  1.0000
  C   C24       1.0  0.6535423493976893  0.7622615281069328  0.24611048858260892  1.0000
  C   C25       1.0  0.08782799783057263  0.7140514010155599  0.6247685611077499  1.0000
  C   C26       1.0  0.9121751209280974  0.2859427608927375  0.37523055738332545  1.0000
  C   C27       1.0  0.14064962973436923  0.7520065483592475  0.7332716449550389  1.0000
  C   C28       1.0  0.8593466463368812  0.2479945112714077  0.2667290399741447  1.0000
  C   C29       1.0  0.04544226731291453  0.8933952714055237  0.7628053782289897  1.0000
  C   C30       1.0  0.9545520444790156  0.10660467907251099  0.2371985449302159  1.0000
  C   C31       1.0  0.8939460420419534  0.9992518540858271  0.6855545707903374  1.0000
  C   C32       1.0  0.1060484893658966  0.0007424026826256996  0.3144496832081813  1.0000
  C   C33       1.0  0.8397052597722661  0.962536827127053  0.5783215233039628  1.0000
  C   C34       1.0  0.1602912138554444  0.03745854263768679  0.4216804638272649  1.0000
  C   C35       1.0  0.9359533660829765  0.8219034727367429  0.5474118734461584  1.0000
  C   C36       1.0  0.06404322660475964  0.1780941785005012  0.4525915275670087  1.0000
  O   O1        1.0  0.6216355902292888  0.35811447523091283  0.679411291526165  1.0000
  O   O2        1.0  0.37836407718950943  0.6418922495350614  0.3205899144862059  1.0000
  O   O3        1.0  0.49494489322476903  0.6882079949810845  0.5571642050944376  1.0000
  O   O4        1.0  0.5050522992970983  0.3117964583933386  0.44283275257464544  1.0000
