data_image0
_chemical_formula_structural       Cu2H34C40N6O8
_chemical_formula_sum              "Cu2 H34 C40 N6 O8"
_cell_length_a       8.231285759603352
_cell_length_b       8.012447331203939
_cell_length_c       14.283512025991298
_cell_angle_alpha    90.61521575760703
_cell_angle_beta     80.42609645654649
_cell_angle_gamma    77.32085720420312

_space_group_name_H-M_alt    "P 1"
_space_group_IT_number       1

loop_
  _space_group_symop_operation_xyz
  'x, y, z'

loop_
  _atom_site_type_symbol
  _atom_site_label
  _atom_site_symmetry_multiplicity
  _atom_site_fract_x
  _atom_site_fract_y
  _atom_site_fract_z
  _atom_site_occupancy
  Cu  Cu1       1.0  0.9999975529260897  0.5000039563384959  0.9999995839650139  1.0000
  Cu  Cu2       1.0  0.500004867623076  0.4999989580555138  0.4999970271883001  1.0000
  H   H1        1.0  0.27715156223990794  0.20890991634468753  0.9166078610820633  1.0000
  H   H2        1.0  0.722845612215828  0.7910948209732639  0.08339147222371678  1.0000
  H   H3        1.0  0.021189869462773514  0.6791010345823738  0.8175214878218853  1.0000
  H   H4        1.0  0.9788175561102576  0.3208957723488198  0.18247557713397103  1.0000
  H   H5        1.0  0.10899927437824897  0.9322022445957004  0.7537625552045455  1.0000
  H   H6        1.0  0.8910124465839716  0.0677918327771323  0.24623204233573398  1.0000
  H   H7        1.0  0.27397639615616504  0.006230697485285901  0.021356952538504004  1.0000
  H   H8        1.0  0.7260135620723391  0.9937792970625525  0.978642993082488  1.0000
  H   H9        1.0  0.17173236112699905  0.7489944541779822  0.07540618176035709  1.0000
  H   H10       1.0  0.8282513159962548  0.25102210866640473  0.924595688112518  1.0000
  H   H11       1.0  0.40288712832227713  0.5859200201969655  0.7015846149082207  1.0000
  H   H12       1.0  0.5971143871434564  0.4140819293684928  0.2984108465279576  1.0000
  H   H13       1.0  0.31072561636829493  0.44452122687120277  0.849209697765751  1.0000
  H   H14       1.0  0.6892653910342192  0.5554899332579597  0.15078804865684248  1.0000
  H   H15       1.0  0.2942181022173785  0.010774214388426599  0.6699861163961031  1.0000
  H   H16       1.0  0.705808455650477  0.9892122889330466  0.3300170118111295  1.0000
  H   H17       1.0  0.38229313903126194  0.17210669707002071  0.5318540528371969  1.0000
  H   H18       1.0  0.6177323924729949  0.8278786115730554  0.4681505723414218  1.0000
  H   H19       1.0  0.016811622419687915  0.1670030809287653  0.4317404518044085  1.0000
  H   H20       1.0  0.9831876336051126  0.8330030565396883  0.5682628931922765  1.0000
  H   H21       1.0  0.10924098247318167  0.8590481105820376  0.37496975607859895  1.0000
  H   H22       1.0  0.8907522736227664  0.14095697052276535  0.6250362247318647  1.0000
  H   H23       1.0  0.3118436762554  0.7780896419774876  0.22228246217520817  1.0000
  H   H24       1.0  0.6881442092756559  0.22190536153825496  0.7777240404663671  1.0000
  H   H25       1.0  0.4284861984361754  0.0015667720507437006  0.1330417135848307  1.0000
  H   H26       1.0  0.5715050473620951  0.998424190839984  0.8669610097044965  1.0000
  H   H27       1.0  0.9926998016479731  0.4542311864702172  0.4037687886602298  1.0000
  H   H28       1.0  0.007304286468254913  0.5457696319889251  0.596231353420869  1.0000
  H   H29       1.0  0.09846954388445542  0.5317472647168985  0.3017368282021948  1.0000
  H   H30       1.0  0.9015302214208136  0.4682509571206951  0.6982602060862177  1.0000
  H   H31       1.0  0.5032849064390775  0.2877250304945703  0.14890647732450898  1.0000
  H   H32       1.0  0.49671194405959807  0.7122747589053449  0.8510964097242208  1.0000
  H   H33       1.0  0.3508396661504635  0.4590071589603398  0.21553111553947696  1.0000
  H   H34       1.0  0.6491482635813244  0.5409941017474581  0.7844725522226597  1.0000
  C   C1        1.0  0.07882145468721553  0.7541317179741611  0.8606153072589533  1.0000
  C   C2        1.0  0.9211817895486548  0.24586767303004822  0.13938071397740262  1.0000
  C   C3        1.0  0.13242845491476635  0.8962426786801887  0.8241953142143501  1.0000
  C   C4        1.0  0.8675724782279064  0.10376191853036688  0.1758022871758627  1.0000
  C   C5        1.0  0.20313493855692855  0.993994430245202  0.8819987739921017  1.0000
  C   C6        1.0  0.7968662059108526  0.006008944982539803  0.11800021521564473  1.0000
  C   C7        1.0  0.21880178717562876  0.9365310338526315  0.9739272171514485  1.0000
  C   C8        1.0  0.7811914158479781  0.06348138094170962  0.02607102982696572  1.0000
  C   C9        1.0  0.16204819239762  0.7937955671365773  0.004533912376224715  1.0000
  C   C10       1.0  0.837934482592523  0.20621345654616624  0.9954701826664234  1.0000
  C   C11       1.0  0.37433486287871187  0.4598826817334967  0.6984220406714029  1.0000
  C   C12       1.0  0.6256695734250572  0.5401167401604284  0.3015752758651402  1.0000
  C   C13       1.0  0.32246415532213035  0.3814050757280186  0.779739856927101  1.0000
  C   C14       1.0  0.6775367550101381  0.6185995505796029  0.22025844669013142  1.0000
  C   C15       1.0  0.2903175158398669  0.2161873744974301  0.7736222080502272  1.0000
  C   C16       1.0  0.7096889321816706  0.78381985022439  0.2263797964328589  1.0000
  C   C17       1.0  0.31083493462608663  0.1395908179444021  0.6819955111888303  1.0000
  C   C18       1.0  0.689176068570717  0.8603997662697439  0.3180068700929937  1.0000
  C   C19       1.0  0.3642290869760815  0.22791974001156495  0.6038015723306813  1.0000
  C   C20       1.0  0.6357896235293838  0.7720630557158685  0.3962008655899538  1.0000
  C   C21       1.0  0.29137199291105287  0.20932368938488116  0.2317942259755839  1.0000
  C   C22       1.0  0.7086207461017652  0.7906722814106646  0.7682069410979935  1.0000
  C   C23       1.0  0.17252409300144222  0.2566141198087664  0.3161622756684395  1.0000
  C   C24       1.0  0.8274674525234007  0.743388135483251  0.6838361656795513  1.0000
  C   C25       1.0  0.10760241841761341  0.12869219255821918  0.3660351096409116  1.0000
  C   C26       1.0  0.8923914884326153  0.8713101536102955  0.6339666245344658  1.0000
  C   C27       1.0  0.15681432719239302  0.9571492323994023  0.3335070297775147  1.0000
  C   C28       1.0  0.8431760080655126  0.042858376376941  0.666497095932577  1.0000
  C   C29       1.0  0.2714148220105345  0.9115702231565593  0.24870331803036547  1.0000
  C   C30       1.0  0.7285706565743271  0.0884247476768252  0.7513012962378552  1.0000
  C   C31       1.0  0.33747316981455106  0.03715709614355232  0.1987031986042282  1.0000
  C   C32       1.0  0.6625156462271065  0.9628338631618832  0.801298338538757  1.0000
  C   C33       1.0  0.11595361145983672  0.4379661663319467  0.3570593504812649  1.0000
  C   C34       1.0  0.8840482796152217  0.5620397128482041  0.6429388606186066  1.0000
  C   C35       1.0  0.23439177138525483  0.4928352096864331  0.4174293747994681  1.0000
  C   C36       1.0  0.7656181979964103  0.5071614553447221  0.5825653651676532  1.0000
  C   C37       1.0  0.367761406638195  0.3392837347506728  0.1736456739645291  1.0000
  C   C38       1.0  0.6322335279957091  0.6607134907100446  0.8263559936648689  1.0000
  C   C39       1.0  0.28288265045096483  0.3743127129875178  0.08642304248670742  1.0000
  C   C40       1.0  0.7171204797328772  0.6256868235020292  0.9135764898847255  1.0000
  N   N1        1.0  0.09095929722905538  0.7017975421044654  0.9493468603455355  1.0000
  N   N2        1.0  0.9090371976305394  0.2982109193560589  0.05064971396166838  1.0000
  N   N3        1.0  0.2512119233362854  0.14406059284737444  0.8592743470989461  1.0000
  N   N4        1.0  0.7487819820938669  0.8559480687073204  0.1407259566510248  1.0000
  N   N5        1.0  0.3975571753530077  0.38453171185346957  0.6107688362790354  1.0000
  N   N6        1.0  0.6024490139513933  0.615458806995953  0.38922976825607236  1.0000
  O   O1        1.0  0.1880125628871312  0.6321814687385585  0.4650229450041721  1.0000
  O   O2        1.0  0.8119947197920113  0.3678164728842504  0.5349706254531056  1.0000
  O   O3        1.0  0.3498627522531947  0.2937764913059412  0.008759130902262801  1.0000
  O   O4        1.0  0.650143064633177  0.7062217685919449  0.9912415709790209  1.0000
  O   O5        1.0  0.1384832184431204  0.4832123293184267  0.10171594090780191  1.0000
  O   O6        1.0  0.8615237160484812  0.5167870088695922  0.8982804550940314  1.0000
  O   O7        1.0  0.380057726559784  0.38862823520828726  0.4156705075359922  1.0000
  O   O8        1.0  0.6199468480265014  0.6113646967170537  0.5843240260638608  1.0000
