data_image0
_chemical_formula_structural       Zn4H20C74S12O52F12
_chemical_formula_sum              "Zn4 H20 C74 S12 O52 F12"
_cell_length_a       16.268336583135973
_cell_length_b       16.416576107657
_cell_length_c       28.760422393621802
_cell_angle_alpha    89.58073015422273
_cell_angle_beta     89.81660538109968
_cell_angle_gamma    90.17253530952279

_space_group_name_H-M_alt    "P 1"
_space_group_IT_number       1

loop_
  _space_group_symop_operation_xyz
  'x, y, z'

loop_
  _atom_site_type_symbol
  _atom_site_label
  _atom_site_symmetry_multiplicity
  _atom_site_fract_x
  _atom_site_fract_y
  _atom_site_fract_z
  _atom_site_occupancy
  Zn  Zn1       1.0  0.4963138481847764  0.08472479524446189  0.49818122902828316  1.0000
  Zn  Zn2       1.0  0.4999052472489112  0.9175457441939513  0.5008003815785571  1.0000
  Zn  Zn3       1.0  0.912701001164379  0.5058745985275267  0.00010074221973609957  1.0000
  Zn  Zn4       1.0  0.0814367797646582  0.5055278130582651  0.9997293218065408  1.0000
  H   H1        1.0  0.9466515787748618  0.39139054127715417  0.8635807416841531  1.0000
  H   H2        1.0  0.1273010925021438  0.7305668702941619  0.0740303543950915  1.0000
  H   H3        1.0  0.7373968526299634  0.8754116843907839  0.5710826029796223  1.0000
  H   H4        1.0  0.40124525202403316  0.019364040050341202  0.35280797468801234  1.0000
  H   H5        1.0  0.2811520792249667  0.1486122991772447  0.5798932566785382  1.0000
  H   H6        1.0  0.7333428548842847  0.9294771845323524  0.44160443488134143  1.0000
  H   H7        1.0  0.730852996420289  0.08494459571479501  0.6948026695832324  1.0000
  H   H8        1.0  0.1153743031510359  0.9284443179547565  0.3867249904056038  1.0000
  H   H9        1.0  0.6056473799571619  0.18023038812309977  0.6988941182893385  1.0000
  H   H10       1.0  0.08237737026006188  0.876205123980384  0.462259094079961  1.0000
  H   H11       1.0  0.9138832151071625  0.4106176993258117  0.7657846932221375  1.0000
  H   H12       1.0  0.26025566230749325  0.8228795998015173  0.1084964969510196  1.0000
  H   H13       1.0  0.2104963947865031  0.7853043488048854  0.8061160466042522  1.0000
  H   H14       1.0  0.7819883479966663  0.1545876901532353  0.0577235004824814  1.0000
  H   H15       1.0  0.24398526367068027  0.17057015121483943  0.9086833891661072  1.0000
  H   H16       1.0  0.7986023786488587  0.6539148272022784  0.184788569684045  1.0000
  H   H17       1.0  0.20757048280236745  0.2809033239706055  0.6225720251437679  1.0000
  H   H18       1.0  0.8205375254051573  0.793623142004691  0.4310964354918099  1.0000
  H   H19       1.0  0.1530082835018689  0.1096324741828312  0.9596862013960532  1.0000
  H   H20       1.0  0.8906637750842492  0.5870020676211923  0.22454441274364706  1.0000
  C   C1        1.0  0.3882603893114478  0.9638043441923045  0.4394329578929685  1.0000
  C   C2        1.0  0.6068666727425338  0.9718308088254942  0.562312544432352  1.0000
  C   C3        1.0  0.026083636008515  0.6720252719254063  0.8633869334007471  1.0000
  C   C4        1.0  0.9022592506845156  0.267055346886508  0.0961423697749737  1.0000
  C   C5        1.0  0.9249571310033958  0.8062789541262918  0.8678265497418423  1.0000
  C   C6        1.0  0.0375484917407931  0.24878654196820807  0.1522416912712501  1.0000
  C   C7        1.0  0.9167184019381764  0.7438524838203904  0.9005384452640328  1.0000
  C   C8        1.0  0.03304801634906339  0.3147033365851897  0.1216932598856815  1.0000
  C   C9        1.0  0.0789167068893519  0.1955606067174713  0.8740954701609452  1.0000
  C   C10       1.0  0.9593537918884607  0.7308568351001908  0.1707876434462392  1.0000
  C   C11       1.0  0.0787652378093213  0.2525641344936319  0.9104111256274549  1.0000
  C   C12       1.0  0.970507755767315  0.6619929513387532  0.1428107404934806  1.0000
  C   C13       1.0  0.800619356591369  0.9299826753191026  0.6285484296381796  1.0000
  C   C14       1.0  0.2790422858837046  0.0031555085597716  0.3268753839926575  1.0000
  C   C15       1.0  0.7358538250587329  0.9220739689656129  0.5977621415904508  1.0000
  C   C16       1.0  0.33960246454062576  0.9967579636662621  0.36037717744145675  1.0000
  C   C17       1.0  0.20930652723424  0.09371964814358338  0.6349260264665233  1.0000
  C   C18       1.0  0.8072073199337522  0.9634846859112115  0.3823095618888814  1.0000
  C   C19       1.0  0.2730103138745363  0.09631166521782572  0.6028453756501051  1.0000
  C   C20       1.0  0.7410850499088042  0.9711212387808602  0.4123907153764748  1.0000
  C   C21       1.0  0.9983129276772685  0.008096985032402396  0.7505784670668874  1.0000
  C   C22       1.0  0.0023063052273855  0.0017532346825746  0.247500409367909  1.0000
  C   C23       1.0  0.3915783582652139  0.0329178663547793  0.5613623242427649  1.0000
  C   C24       1.0  0.6107553195637224  0.0336582505683012  0.4390184899092232  1.0000
  C   C25       1.0  0.8013321306707796  0.989789055856221  0.6632262278612161  1.0000
  C   C26       1.0  0.1975340705608417  0.978799873797151  0.3354593817392982  1.0000
  C   C27       1.0  0.6693028441927709  0.9754452572450277  0.6003007876867628  1.0000
  C   C28       1.0  0.3205556877143252  0.9634039719587761  0.40402932242687933  1.0000
  C   C29       1.0  0.19752400665742442  0.024754395736906104  0.6642250230927259  1.0000
  C   C30       1.0  0.816151839415923  0.0159595476544538  0.3431367543456715  1.0000
  C   C31       1.0  0.3274825213850008  0.0307518202229531  0.5982730444927569  1.0000
  C   C32       1.0  0.6822015957279249  0.03252504920303069  0.4061787318921901  1.0000
  C   C33       1.0  0.023555015937532203  0.20410203877593605  0.8361066983543992  1.0000
  C   C34       1.0  0.0128901188826589  0.7992116284478428  0.1658223520347022  1.0000
  C   C35       1.0  0.03283370210942851  0.32479388749200666  0.9054289497118688  1.0000
  C   C36       1.0  0.0277577436520815  0.664802919769123  0.1058264099627948  1.0000
  C   C37       1.0  0.9843108981730708  0.8032261897280079  0.832197891722437  1.0000
  C   C38       1.0  0.975033896514887  0.1897566312586605  0.1550599433727911  1.0000
  C   C39       1.0  0.968540236677093  0.6760909986072221  0.8997230626974897  1.0000
  C   C40       1.0  0.9645954773246076  0.3258718856872989  0.092600161774989  1.0000
  C   C41       1.0  0.9257407028834947  0.006248109551222599  0.7201221104642881  1.0000
  C   C42       1.0  0.07772159657383781  0.9989745558146412  0.27571812043843374  1.0000
  C   C43       1.0  0.0015221136835065988  0.08152228568478388  0.7797038696584337  1.0000
  C   C44       1.0  0.0007779913954451005  0.9283199042845283  0.21838586312590277  1.0000
  C   C45       1.0  0.7323303938551291  0.04092133503634441  0.6667729983046938  1.0000
  C   C46       1.0  0.17894260498825082  0.9454194243415942  0.3794750766126285  1.0000
  C   C47       1.0  0.0727875190919889  0.0091978874434986  0.7214048270897351  1.0000
  C   C48       1.0  0.9322007023036889  0.003764893148051799  0.2801281093043428  1.0000
  C   C49       1.0  0.9949728091284058  0.9349599020694229  0.7805825760957106  1.0000
  C   C50       1.0  0.9978738327873984  0.0729094110207456  0.2161449913296067  1.0000
  C   C51       1.0  0.8683283788568943  0.997987116430863  0.6938344414403658  1.0000
  C   C52       1.0  0.13488364445935017  0.9895738310805984  0.3021095163751042  1.0000
  C   C53       1.0  0.9914320406150524  0.8720505864549963  0.8027901655567006  1.0000
  C   C54       1.0  0.9849935095632175  0.12551807657535363  0.1873624188538514  1.0000
  C   C55       1.0  0.0130851423785074  0.1402447849401653  0.8041302521011389  1.0000
  C   C56       1.0  0.0049481306329824  0.8685923386659765  0.1940240390990624  1.0000
  C   C57       1.0  0.131484861639116  0.0172904746306131  0.6957765152036332  1.0000
  C   C58       1.0  0.8793829673193869  0.008607727843006799  0.3097765141060336  1.0000
  C   C59       1.0  0.967275169219043  0.6132772386341188  0.9376898951288551  1.0000
  C   C60       1.0  0.9617682690568186  0.3946925689788543  0.0586466677562427  1.0000
  C   C61       1.0  0.032304667791621  0.39433223643465  0.9395293941898756  1.0000
  C   C62       1.0  0.0277621752018788  0.6056315307806769  0.0660816022744157  1.0000
  C   C63       1.0  0.6673628956947936  0.034376444621301495  0.6358103288312335  1.0000
  C   C64       1.0  0.23961509385590318  0.937341242093595  0.4132054614089853  1.0000
  C   C65       1.0  0.2538695334671388  0.9608745487542478  0.6601712336810905  1.0000
  C   C66       1.0  0.7572912435574892  0.07773920485798409  0.337763158432324  1.0000
  C   C67       1.0  0.317715063718218  0.963070404568633  0.6277124907614534  1.0000
  C   C68       1.0  0.6918313393235637  0.086656140385017  0.3689195185701308  1.0000
  C   C69       1.0  0.9763846495200427  0.2759490810048888  0.8329700014304606  1.0000
  C   C70       1.0  0.07640309252000319  0.7955570648027147  0.1322474134325304  1.0000
  C   C71       1.0  0.982750464095986  0.3358956977856876  0.8664520931944324  1.0000
  C   C72       1.0  0.0816387917265544  0.7307552071600438  0.10173512894645137  1.0000
  C   C73       1.0  0.0341280087137363  0.732532010276813  0.8292761303751844  1.0000
  C   C74       1.0  0.9059078532578652  0.19951094814357617  0.1256894935071955  1.0000
  S   S1        1.0  0.5794901865648684  0.09867190554329142  0.6435987793880783  1.0000
  S   S2        1.0  0.2128150962472333  0.8957999168271157  0.4688937236274313  1.0000
  S   S3        1.0  0.9047661962869995  0.2858991731415017  0.7858506961869054  1.0000
  S   S4        1.0  0.14785804857885407  0.8787796456135056  0.1285862868056284  1.0000
  S   S5        1.0  0.1063333003751552  0.71825390335907  0.7828196526706676  1.0000
  S   S6        1.0  0.820911678736998  0.12972584707957677  0.1270555767675177  1.0000
  S   S7        1.0  0.1494274911814202  0.11071764147410329  0.8656837391489985  1.0000
  S   S8        1.0  0.877290725995458  0.7510622726476797  0.2126488509754338  1.0000
  S   S9        1.0  0.13779123637250723  0.17531381748325003  0.6404599045155805  1.0000
  S   S10       1.0  0.8814095150952497  0.8847758040279315  0.3905847980018748  1.0000
  S   S11       1.0  0.1261697244136641  0.23516757090668963  0.9667813692054493  1.0000
  S   S12       1.0  0.9218742311017963  0.5643666043833306  0.1541697254031504  1.0000
  O   O1        1.0  0.4154032062399793  0.033577280998308395  0.4498397881618246  1.0000
  O   O2        1.0  0.5857199352236578  0.9010384580124934  0.5475249694513806  1.0000
  O   O3        1.0  0.4212248122417606  0.9656389979330696  0.5485255328590597  1.0000
  O   O4        1.0  0.5812633534742275  0.10276961929542239  0.4511356379646472  1.0000
  O   O5        1.0  0.4115196383017832  0.10321513115285802  0.5442980600504015  1.0000
  O   O6        1.0  0.5861849927570688  0.9642361525550598  0.4529067538506624  1.0000
  O   O7        1.0  0.4153986600236976  0.8953016303810203  0.4545969125207562  1.0000
  O   O8        1.0  0.5828412144631443  0.039601288948667  0.5463092440671176  1.0000
  O   O9        1.0  0.8968361555254559  0.5862404490718306  0.9510140347571294  1.0000
  O   O10       1.0  0.0299392506396288  0.4233069434565593  0.0451276368738505  1.0000
  O   O11       1.0  0.1020146133997812  0.4238589586850948  0.9519194262974439  1.0000
  O   O12       1.0  0.9581198666897706  0.5897023316819627  0.04884507191138709  1.0000
  O   O13       1.0  0.9622583615515978  0.42097097074902484  0.9507164723689314  1.0000
  O   O14       1.0  0.09793978108854871  0.5825212570809056  0.0505944409331818  1.0000
  O   O15       1.0  0.0364246182774437  0.5927234135252848  0.9538228438536933  1.0000
  O   O16       1.0  0.8909962553753205  0.4201026060669619  0.0448932144266507  1.0000
  O   O17       1.0  0.5875094848762502  0.17311926580772763  0.617199732890441  1.0000
  O   O18       1.0  0.5076369529251465  0.0480381015774753  0.6413621370916971  1.0000
  O   O19       1.0  0.5894044600277438  0.12276184034817561  0.6979567856454167  1.0000
  O   O20       1.0  0.218505001960061  0.8084244232722214  0.46733871441143277  1.0000
  O   O21       1.0  0.25429511234890606  0.94264123894515  0.5036270254479547  1.0000
  O   O22       1.0  0.11741640689665898  0.9204863992536615  0.4735586222180217  1.0000
  O   O23       1.0  0.9465144722067294  0.273650308851238  0.7424243560881151  1.0000
  O   O24       1.0  0.8321152488142401  0.24154642529363457  0.7987125513238096  1.0000
  O   O25       1.0  0.8810630384820898  0.381304054596079  0.7892027962518853  1.0000
  O   O26       1.0  0.1077126458033604  0.9459901364544124  0.1064668793052306  1.0000
  O   O27       1.0  0.18954613131289477  0.8856875162179917  0.17239282152007715  1.0000
  O   O28       1.0  0.21329957109831096  0.844311645360463  0.0910594098759958  1.0000
  O   O29       1.0  0.10200914539698401  0.6348460638328107  0.7691250002693051  1.0000
  O   O30       1.0  0.0989025323718238  0.7840966998884368  0.7500771114781628  1.0000
  O   O31       1.0  0.1928174001626388  0.7284318980452582  0.8097496158126845  1.0000
  O   O32       1.0  0.8460882204010787  0.0550451549529001  0.1482954019872622  1.0000
  O   O33       1.0  0.7502383932654838  0.1742585664306802  0.1426512002934857  1.0000
  O   O34       1.0  0.810052517378658  0.10867555900770748  0.0727999757941689  1.0000
  O   O35       1.0  0.10928134721171291  0.0346532191496607  0.8751097314253543  1.0000
  O   O36       1.0  0.1913511227149414  0.128179278145339  0.8228721083796131  1.0000
  O   O37       1.0  0.21588926716025006  0.1171633568631876  0.9074048926864577  1.0000
  O   O38       1.0  0.911958129784864  0.7564408614321109  0.2580617745448635  1.0000
  O   O39       1.0  0.8285789537848416  0.8138015621812686  0.1916675960565399  1.0000
  O   O40       1.0  0.8215378137802745  0.6692557675512774  0.21549400715860398  1.0000
  O   O41       1.0  0.06079400027583401  0.15005706767997398  0.6212799159372011  1.0000
  O   O42       1.0  0.1439987932268494  0.2084318085012598  0.6865530911609027  1.0000
  O   O43       1.0  0.17534474081583798  0.24203880975908018  0.6044121734623502  1.0000
  O   O44       1.0  0.8723348183631856  0.8253656149771731  0.3545136801858532  1.0000
  O   O45       1.0  0.9596959347284796  0.921001294133056  0.4009600742815564  1.0000
  O   O46       1.0  0.8504608983307093  0.8434942641267823  0.4389993587372061  1.0000
  O   O47       1.0  0.2132023739117628  0.2513682097397733  0.9622203310027116  1.0000
  O   O48       1.0  0.0766095956283905  0.27528321847364623  0.0006677047714732001  1.0000
  O   O49       1.0  0.11039011498075979  0.14104274167308256  0.9765165817777941  1.0000
  O   O50       1.0  0.8355125232693935  0.5706974563183139  0.14266091201159975  1.0000
  O   O51       1.0  0.9724282649548641  0.5024656285629375  0.1344918118395739  1.0000
  O   O52       1.0  0.9330875810486389  0.5533630387118649  0.2087100061795724  1.0000
  F   F1        1.0  0.2461103189508904  0.894851103475574  0.6879416117873234  1.0000
  F   F2        1.0  0.7629158185421616  0.1294614561044014  0.30143677138656244  1.0000
  F   F3        1.0  0.8757546323262843  0.8716847895937009  0.8713232028694123  1.0000
  F   F4        1.0  0.10401757710599212  0.2419501401799309  0.1797084042798147  1.0000
  F   F5        1.0  0.8651561739832019  0.8787944961558907  0.6249989089311185  1.0000
  F   F6        1.0  0.2982670361409633  0.035792800734824895  0.2849330365989857  1.0000
  F   F7        1.0  0.36822017189066264  0.8987262019403987  0.6267985443540738  1.0000
  F   F8        1.0  0.6373431240281348  0.14632370705876951  0.3605392189312369  1.0000
  F   F9        1.0  0.07505567639836391  0.6061176521967439  0.8616536400211602  1.0000
  F   F10       1.0  0.835517557951725  0.27445485262430946  0.0682339326910224  1.0000
  F   F11       1.0  0.8603401691687154  0.7521364280424478  0.9343852975321028  1.0000
  F   F12       1.0  0.09604059745047519  0.36725872379523133  0.1218391765034994  1.0000
