data_image0
_chemical_formula_structural       Zn8H68C104N32O8
_chemical_formula_sum              "Zn8 H68 C104 N32 O8"
_cell_length_a       14.858202928505
_cell_length_b       15.012511950169129
_cell_length_c       23.495984123161914
_cell_angle_alpha    87.69117226531193
_cell_angle_beta     89.964240646091
_cell_angle_gamma    102.21805838980701

_space_group_name_H-M_alt    "P 1"
_space_group_IT_number       1

loop_
  _space_group_symop_operation_xyz
  'x, y, z'

loop_
  _atom_site_type_symbol
  _atom_site_label
  _atom_site_symmetry_multiplicity
  _atom_site_fract_x
  _atom_site_fract_y
  _atom_site_fract_z
  _atom_site_occupancy
  Zn  Zn1       1.0  0.4179750108350646  0.5890878496501204  0.43720821219753964  1.0000
  Zn  Zn2       1.0  0.5368145585110895  0.4305625864935011  0.4425751063945499  1.0000
  Zn  Zn3       1.0  0.9313749278732644  0.0753016238536119  0.9215746165033993  1.0000
  Zn  Zn4       1.0  0.08547442516957912  0.9462030825727723  0.9272084147736024  1.0000
  Zn  Zn5       1.0  0.5298262424918647  0.41539885293276063  0.5834282898211144  1.0000
  Zn  Zn6       1.0  0.4206230247815911  0.5939412420401099  0.579037332223038  1.0000
  Zn  Zn7       1.0  0.0851177196638915  0.9265996746142946  0.0663970257911828  1.0000
  Zn  Zn8       1.0  0.9269792079493868  0.06135449270045259  0.061069282644858405  1.0000
  H   H1        1.0  0.3174530641446651  0.545605622908191  0.3081429188591401  1.0000
  H   H2        1.0  0.7353269904698649  0.5521606324702475  0.41969130744325883  1.0000
  H   H3        1.0  0.8439315066725968  0.018957208195551873  0.7958178051537245  1.0000
  H   H4        1.0  0.2710474798162679  0.1039158671127751  0.931745862478927  1.0000
  H   H5        1.0  0.911326843159138  0.5472974236217071  0.5944820557907777  1.0000
  H   H6        1.0  0.06660784975749579  0.4630696605037556  0.6444523063103562  1.0000
  H   H7        1.0  0.43697911241477533  0.9515047581650082  0.1010311324538051  1.0000
  H   H8        1.0  0.5913661286754461  0.8528851450117118  0.1336417422495231  1.0000
  H   H9        1.0  0.8964250371821479  0.4471822238070687  0.639697027858084  1.0000
  H   H10       1.0  0.08236765951900082  0.5644422464300335  0.5997538649243666  1.0000
  H   H11       1.0  0.4204085708252734  0.8380889968916564  0.1329703237192561  1.0000
  H   H12       1.0  0.605474363563843  0.9656212678449665  0.10283225136431891  1.0000
  H   H13       1.0  0.259949386278123  0.49926584435004884  0.8172501732750137  1.0000
  H   H14       1.0  0.7915955867578218  0.6206130084220619  0.7266456988169312  1.0000
  H   H15       1.0  0.8210791532808344  0.9540566964934458  0.3002034085195433  1.0000
  H   H16       1.0  0.2319570307227394  0.14424353796322725  0.2236308290078242  1.0000
  H   H17       1.0  0.7349334959985825  0.8703392099503945  0.3822642101961833  1.0000
  H   H18       1.0  0.31334341570101293  0.23956162827978741  0.29811865612282423  1.0000
  H   H19       1.0  0.1797441342031405  0.39810002950340373  0.8948515306447719  1.0000
  H   H20       1.0  0.8910088674088427  0.7275860717154502  0.7877725186339859  1.0000
  H   H21       1.0  0.7898341876689939  0.6188759642982191  0.32314227168670584  1.0000
  H   H22       1.0  0.31930265140928066  0.48022347736269216  0.19084735833512673  1.0000
  H   H23       1.0  0.36992932884700025  0.22007310125142968  0.8772840579104297  1.0000
  H   H24       1.0  0.8418720472989777  0.9538463723340059  0.6829367781960587  1.0000
  H   H25       1.0  0.4505964742442217  0.32228929317842875  0.8011448363912665  1.0000
  H   H26       1.0  0.7408413059940883  0.8472609515987417  0.62196520114086  1.0000
  H   H27       1.0  0.8775744770669576  0.7029544344810577  0.24182258277522103  1.0000
  H   H28       1.0  0.2375752388048937  0.3842997514368777  0.11573317654035264  1.0000
  H   H29       1.0  0.2644755436457586  0.9059006986405651  0.5879028852544084  1.0000
  H   H30       1.0  0.2732666955722252  0.07141989215645589  0.5906081144365276  1.0000
  H   H31       1.0  0.8806253454272763  0.4182281950788323  0.0831265376774653  1.0000
  H   H32       1.0  0.9010715820951917  0.5836692022178696  0.08426573396395302  1.0000
  H   H33       1.0  0.4179632057506523  0.32435540049777967  0.7065776470614794  1.0000
  H   H34       1.0  0.6081017521182447  0.7596364475269229  0.5937840470710612  1.0000
  H   H35       1.0  0.01815944985722239  0.8101087244536491  0.19835735271510657  1.0000
  H   H36       1.0  0.057045070062670795  0.25230011340326547  0.09407786324938883  1.0000
  H   H37       1.0  0.3773963368417269  0.2590780673535066  0.41798002658530464  1.0000
  H   H38       1.0  0.33250806130477867  0.7759013908348396  0.4109388211197925  1.0000
  H   H39       1.0  0.9454311692120639  0.753982426918384  0.901129483249882  1.0000
  H   H40       1.0  0.8680018002581845  0.2783963966472244  0.8974772948644374  1.0000
  H   H41       1.0  0.38077424362851536  0.22050300488114521  0.6016289636532122  1.0000
  H   H42       1.0  0.35998763165863307  0.7875125538153827  0.5939558401318338  1.0000
  H   H43       1.0  0.9331912782315116  0.741611248942398  0.0856292125933464  1.0000
  H   H44       1.0  0.8807012058333826  0.26404177068906176  0.0815379589885339  1.0000
  H   H45       1.0  0.23360183479756097  0.4436736961887818  0.41937150077163915  1.0000
  H   H46       1.0  0.7400706907079383  0.3703983121062394  0.4112650221829597  1.0000
  H   H47       1.0  0.7457369588853952  0.9197830190340429  0.897287087022548  1.0000
  H   H48       1.0  0.2849036431689528  0.8802802371990384  0.8987454945281003  1.0000
  H   H49       1.0  0.06928756410781031  0.3365231214658664  0.4323250047154445  1.0000
  H   H50       1.0  0.9023087148669263  0.31722769138593787  0.42791368759802856  1.0000
  H   H51       1.0  0.5868473387133689  0.8042487073494514  0.9058852708709683  1.0000
  H   H52       1.0  0.42005658600309903  0.7871561305929691  0.9056832582828422  1.0000
  H   H53       1.0  0.35670334499316425  0.10208312262225412  0.41391013801982984  1.0000
  H   H54       1.0  0.3481318945955252  0.9378253430606095  0.4114103243686671  1.0000
  H   H55       1.0  0.869346978117882  0.5960993268416886  0.9019807207169709  1.0000
  H   H56       1.0  0.8497484618900799  0.430435103326353  0.9007570859025692  1.0000
  H   H57       1.0  0.22807224242375665  0.45648229863029843  0.6032405881305536  1.0000
  H   H58       1.0  0.7500673892252152  0.39267880985610765  0.5936917508470927  1.0000
  H   H59       1.0  0.7501740430874619  0.8990324035912425  0.08160690239476052  1.0000
  H   H60       1.0  0.26771781148927704  0.8349054060293711  0.08156523328403863  1.0000
  H   H61       1.0  0.3870987345403094  0.7446866741926572  0.7041297223374487  1.0000
  H   H62       1.0  0.6516533952642192  0.3614489156831412  0.6788919921032956  1.0000
  H   H63       1.0  0.7667080391403899  0.09880811023938926  0.13547784274438612  1.0000
  H   H64       1.0  0.29849784413940483  0.9503861391415358  0.1428125346724229  1.0000
  H   H65       1.0  0.47185825648183766  0.33220973840685286  0.32498916898804003  1.0000
  H   H66       1.0  0.5774735379908407  0.764025521699182  0.40930389741628664  1.0000
  H   H67       1.0  0.04373639080547781  0.8476249866233732  0.8083300010030785  1.0000
  H   H68       1.0  0.0641677382080346  0.2687840629739569  0.9220623462191995  1.0000
  C   C1        1.0  0.36341911226661955  0.5005921301950808  0.31987927240447794  1.0000
  C   C2        1.0  0.684656839002983  0.5945569755974276  0.42177478322405904  1.0000
  C   C3        1.0  0.9007695192506803  0.9861635617107822  0.8060375309857124  1.0000
  C   C4        1.0  0.2096231903264041  0.13230756362845142  0.9319573965431334  1.0000
  C   C5        1.0  0.38539548137095636  0.4505412465473527  0.7422118876908783  1.0000
  C   C6        1.0  0.6862823390246502  0.6635927325256361  0.6375951951931997  1.0000
  C   C7        1.0  0.9019502957885096  0.8814297410435757  0.21321384388623701  1.0000
  C   C8        1.0  0.17900908100180865  0.1951180811255142  0.12212860786108592  1.0000
  C   C9        1.0  0.35541312820635806  0.19870314766446032  0.5079412178093892  1.0000
  C   C10       1.0  0.33097386623114733  0.8189119594073591  0.5018863656061187  1.0000
  C   C11       1.0  0.9207000147037903  0.7042037976477786  0.993172940565515  1.0000
  C   C12       1.0  0.8694982225797503  0.3135268783204382  0.9901865776966262  1.0000
  C   C13       1.0  0.1873328932657259  0.43299038983638394  0.5114714973118027  1.0000
  C   C14       1.0  0.7873851111164782  0.38128339293700725  0.5026144325039184  1.0000
  C   C15       1.0  0.7065187116418417  0.8858996432190765  0.9898605578094719  1.0000
  C   C16       1.0  0.31438265456896625  0.8444669163883847  0.9900892277678821  1.0000
  C   C17       1.0  0.0342748332492846  0.4376056093479833  0.5530184778917189  1.0000
  C   C18       1.0  0.9390773513669329  0.42755192256382923  0.5502147476350673  1.0000
  C   C19       1.0  0.5563765837068431  0.8577949450883439  0.041119197786919394  1.0000
  C   C20       1.0  0.4611276676540541  0.8486260944559734  0.0408149548879422  1.0000
  C   C21       1.0  0.08687706641676128  0.4081324592095613  0.5111751958568718  1.0000
  C   C22       1.0  0.8863533519917297  0.3858537966313735  0.5053904185012712  1.0000
  C   C23       1.0  0.6075128359117912  0.8488454141192961  0.9924678397146639  1.0000
  C   C24       1.0  0.4078499145174561  0.8290412568322837  0.9921482071791349  1.0000
  C   C25       1.0  0.03412446628814081  0.36338082717982456  0.46642458504891954  1.0000
  C   C26       1.0  0.9383080233981005  0.35265368266782104  0.4637255607567641  1.0000
  C   C27       1.0  0.5529147865341814  0.8178389322237368  0.9448521730282025  1.0000
  C   C28       1.0  0.45722936809731607  0.808352772480774  0.9446210447331681  1.0000
  C   C29       1.0  0.9345819333078681  0.48310621923604213  0.6025284597049139  1.0000
  C   C30       1.0  0.04248455050309019  0.4940404350648537  0.6057277266139424  1.0000
  C   C31       1.0  0.4583235241549204  0.8856080926275567  0.0999532896219861  1.0000
  C   C32       1.0  0.5661085752793227  0.8950385664383876  0.10053433407715323  1.0000
  C   C33       1.0  0.28362660346338237  0.43761715086600367  0.8300730779852544  1.0000
  C   C34       1.0  0.8015325966503537  0.6933912532600744  0.7168020422347468  1.0000
  C   C35       1.0  0.8151149208654828  0.8806399099559955  0.3053300703222348  1.0000
  C   C36       1.0  0.25256549063363565  0.21783738578184855  0.2157379301286397  1.0000
  C   C37       1.0  0.7661527338898964  0.8330782219345779  0.35155885748930166  1.0000
  C   C38       1.0  0.29836233005855217  0.27152638052756833  0.257694392241021  1.0000
  C   C39       1.0  0.2387565612419564  0.38014984536246044  0.8740636838797258  1.0000
  C   C40       1.0  0.8587363202331062  0.7541102874171062  0.7509278739932911  1.0000
  C   C41       1.0  0.7545028621745402  0.7377998924614462  0.3587129808910064  1.0000
  C   C42       1.0  0.3232935485660207  0.3670315610888083  0.2498319929195462  1.0000
  C   C43       1.0  0.26328498272988554  0.29661566909977216  0.8890788733999673  1.0000
  C   C44       1.0  0.8722226594922519  0.8489425602918816  0.7409209442965762  1.0000
  C   C45       1.0  0.4125319095002311  0.3952172457677677  0.7014122215781954  1.0000
  C   C46       1.0  0.6197472372376894  0.6914850490999955  0.6025517440864975  1.0000
  C   C47       1.0  0.9780809760386263  0.8601559006446424  0.1857055767930689  1.0000
  C   C48       1.0  0.09573031938029429  0.19847959734368467  0.09512608772256932  1.0000
  C   C49       1.0  0.7989464134780847  0.6929197013023514  0.3193621238716703  1.0000
  C   C50       1.0  0.2992398149113597  0.40642835890361806  0.1983568219724816  1.0000
  C   C51       1.0  0.3448987580046818  0.2811417637650635  0.8646656335990884  1.0000
  C   C52       1.0  0.8293983168210133  0.8806855369263504  0.6932093115314686  1.0000
  C   C53       1.0  0.39001014140876583  0.33848765620356874  0.8210831130621089  1.0000
  C   C54       1.0  0.7722498644921246  0.8200124049639829  0.6588425659991871  1.0000
  C   C55       1.0  0.8481898206494304  0.7404125210872935  0.2733174266746588  1.0000
  C   C56       1.0  0.2532061171879008  0.3521924698823967  0.1559575283947296  1.0000
  C   C57       1.0  0.3558188318053298  0.4137984436720928  0.799460976225916  1.0000
  C   C58       1.0  0.7547504708367114  0.724947892461401  0.670688675929739  1.0000
  C   C59       1.0  0.8553280384355799  0.8349717492485385  0.2644479162580069  1.0000
  C   C60       1.0  0.22968846382708114  0.25679791696921234  0.163718705083653  1.0000
  C   C61       1.0  0.2852830901682354  0.9490501421465963  0.5496242985345036  1.0000
  C   C62       1.0  0.28995124210838696  0.04251382771913371  0.5510634165444445  1.0000
  C   C63       1.0  0.8779385974139801  0.4565120293396206  0.04292000917627091  1.0000
  C   C64       1.0  0.8893389406163835  0.55077306206902  0.043590071537273914  1.0000
  C   C65       1.0  0.3210326183494914  0.10060634101255064  0.5033385048483581  1.0000
  C   C66       1.0  0.31120616547838864  0.9100443329379146  0.5003968119115854  1.0000
  C   C67       1.0  0.8908795821478604  0.6047109304449236  0.992979770902139  1.0000
  C   C68       1.0  0.8673344424580236  0.4104352339938942  0.991551171540522  1.0000
  C   C69       1.0  0.3344188153524001  0.05944290543809671  0.4521160485809474  1.0000
  C   C70       1.0  0.3297712846162  0.9663301024349668  0.4506862983675077  1.0000
  C   C71       1.0  0.872559071196335  0.5578235996389511  0.9421301176050394  1.0000
  C   C72       1.0  0.8613206370718771  0.4634263509680352  0.9414385418637609  1.0000
  C   C73       1.0  0.38735860429756036  0.2636028670575428  0.46361714784504937  1.0000
  C   C74       1.0  0.3440197949582569  0.765390262681635  0.4561074079174149  1.0000
  C   C75       1.0  0.9491236781494549  0.7656210350431892  0.9464593146417786  1.0000
  C   C76       1.0  0.872083365707475  0.26028947644762473  0.9424796979874589  1.0000
  C   C77       1.0  0.2448718549011275  0.46012128969294264  0.5581077808269868  1.0000
  C   C78       1.0  0.7304568326151042  0.3879838858891704  0.5493952874966226  1.0000
  C   C79       1.0  0.763598010943987  0.9138056269148935  0.03646234245400141  1.0000
  C   C80       1.0  0.2584344991205184  0.8521986216437016  0.0370665937907901  1.0000
  C   C81       1.0  0.3881975042269659  0.24447611654213836  0.557315685207236  1.0000
  C   C82       1.0  0.3572393792612728  0.7709711560269812  0.549385853901697  1.0000
  C   C83       1.0  0.943453290805806  0.7591574335532415  0.040470099525848  1.0000
  C   C84       1.0  0.8789196374952439  0.25294583366662954  0.0360990852019043  1.0000
  C   C85       1.0  0.24771314434806155  0.4523830144360447  0.4643934836649564  1.0000
  C   C86       1.0  0.7267206589482312  0.37535183011598866  0.4563789272805965  1.0000
  C   C87       1.0  0.7615611060771458  0.9233365402878564  0.9423566509899077  1.0000
  C   C88       1.0  0.2665274094640466  0.873428551506443  0.9436915750373558  1.0000
  C   C89       1.0  0.38696289272554196  0.5335459994360009  0.7104420705249979  1.0000
  C   C90       1.0  0.6631212812580639  0.566475876183226  0.6346000437216689  1.0000
  C   C91       1.0  0.8821348707309938  0.9537878463375624  0.17782007416357715  1.0000
  C   C92       1.0  0.1929151553012716  0.10752037599088034  0.10992797373219082  1.0000
  C   C93       1.0  0.4409465099679082  0.3910432878333766  0.3293607450366239  1.0000
  C   C94       1.0  0.6047670991620607  0.7031139498577021  0.4175078200601591  1.0000
  C   C95       1.0  0.001561750059373407  0.8978874073990257  0.8130545081415264  1.0000
  C   C96       1.0  0.1041629431623576  0.2163537495865669  0.9273876949500848  1.0000
  C   C97       1.0  0.37340785887589334  0.4192066886072754  0.2955605289414153  1.0000
  C   C98       1.0  0.68909523413992  0.6841580510313963  0.4001132887281642  1.0000
  C   C99       1.0  0.9241934112908865  0.9099445816952998  0.7819060784567287  1.0000
  C   C100      1.0  0.19921279909966932  0.22222958093242806  0.9194315384674567  1.0000
  C   C101      1.0  0.37473866118553895  0.6216797782132063  0.7290222537419242  1.0000
  C   C102      1.0  0.6912929918510996  0.4911638167171902  0.6656916184149253  1.0000
  C   C103      1.0  0.8086369311875006  0.0042303919793838475  0.1790487931504501  1.0000
  C   C104      1.0  0.26999205932421694  0.06562701152333261  0.12669336311736862  1.0000
  N   N1        1.0  0.4199067660934617  0.5184715799198687  0.36493108473678154  1.0000
  N   N2        1.0  0.6030727590799501  0.5625351022710136  0.448596814460217  1.0000
  N   N3        1.0  0.9585470103101554  0.015936577308025297  0.8487600529907129  1.0000
  N   N4        1.0  0.12685620619908633  0.07791860988125882  0.9445803535811523  1.0000
  N   N5        1.0  0.4290235638949582  0.43974697893619924  0.650496649995617  1.0000
  N   N6        1.0  0.5632486254021103  0.6187098467823375  0.5801158850074444  1.0000
  N   N7        1.0  0.0009396121660998089  0.914587723503253  0.13828086776939594  1.0000
  N   N8        1.0  0.062481355499237196  0.11878067372533253  0.0698656034669725  1.0000
  N   N9        1.0  0.43713491084385236  0.34018016594487227  0.4850647206799509  1.0000
  N   N10       1.0  0.375417736365371  0.6919623356898656  0.47497973459724113  1.0000
  N   N11       1.0  0.9870876777752927  0.8489182946356453  0.9650338581992631  1.0000
  N   N12       1.0  0.8823095491110138  0.17594826034498115  0.958925302452343  1.0000
  N   N13       1.0  0.3318059550978489  0.4943991789973341  0.5396080970355898  1.0000
  N   N14       1.0  0.6434830562203259  0.3862361503714738  0.5329376294795197  1.0000
  N   N15       1.0  0.8443788534014869  0.9654497112042719  0.017895207232520204  1.0000
  N   N16       1.0  0.18454117894390987  0.8845888754177197  0.020334468174802105  1.0000
  N   N17       1.0  0.43752462500466993  0.32831534929191264  0.5426960314263028  1.0000
  N   N18       1.0  0.3840917814641926  0.6956599068913932  0.5330181791510498  1.0000
  N   N19       1.0  0.9836446987086092  0.845021231632707  0.022904332328273797  1.0000
  N   N20       1.0  0.8868282587474495  0.17134357186896665  0.017233896912081503  1.0000
  N   N21       1.0  0.3332600953420553  0.4901053827268883  0.4818879464739396  1.0000
  N   N22       1.0  0.6412919153153992  0.3785512187503884  0.474876533090182  1.0000
  N   N23       1.0  0.8432100857677652  0.9713266638660161  0.959979645381992  1.0000
  N   N24       1.0  0.18943753503549493  0.8972821572255185  0.9621459048186625  1.0000
  N   N25       1.0  0.41308769063616063  0.5241932455830565  0.655493057587677  1.0000
  N   N26       1.0  0.5908664632585567  0.5436853451996344  0.5986117636290303  1.0000
  N   N27       1.0  0.9425212447050981  0.971481404567328  0.13318160435011353  1.0000
  N   N28       1.0  0.12170343989621558  0.06288718616512771  0.0787672839018114  1.0000
  N   N29       1.0  0.4684371134462423  0.450332596222019  0.3704412253200787  1.0000
  N   N30       1.0  0.5537192855825237  0.6294884962685574  0.4456385701478143  1.0000
  N   N31       1.0  0.02192928926191232  0.9612138735960303  0.8526995055262818  1.0000
  N   N32       1.0  0.06205218833220981  0.1297905519542155  0.9415919089237478  1.0000
  O   O1        1.0  0.3524440154044156  0.6394960867027067  0.7767355038760826  1.0000
  O   O2        1.0  0.3940579116370913  0.6889432552131965  0.6859452151312838  1.0000
  O   O3        1.0  0.7580543066237765  0.49013641583010076  0.6957264674912836  1.0000
  O   O4        1.0  0.6264901897002915  0.40922814504422433  0.6591162741320319  1.0000
  O   O5        1.0  0.7412538659762616  0.9921605059821845  0.2103048282594102  1.0000
  O   O6        1.0  0.822166187927557  0.07335064627864094  0.13608181973381053  1.0000
  O   O7        1.0  0.3498846161732274  0.10473874118043373  0.1330528742697652  1.0000
  O   O8        1.0  0.2417299228375143  0.9725590999888214  0.13603869673224273  1.0000
