data_image0
_chemical_formula_structural       Al4H38C59N8O20
_chemical_formula_sum              "Al4 H38 C59 N8 O20"
_cell_length_a       6.678981614391443
_cell_length_b       21.94155576929582
_cell_length_c       23.783757112304702
_cell_angle_alpha    68.06227797082492
_cell_angle_beta     89.92467989148187
_cell_angle_gamma    89.84762715232549

_space_group_name_H-M_alt    "P 1"
_space_group_IT_number       1

loop_
  _space_group_symop_operation_xyz
  'x, y, z'

loop_
  _atom_site_type_symbol
  _atom_site_label
  _atom_site_symmetry_multiplicity
  _atom_site_fract_x
  _atom_site_fract_y
  _atom_site_fract_z
  _atom_site_occupancy
  Al  Al1       1.0  0.09150590763799468  0.5008520274614057  0.49810501071034713  1.0000
  Al  Al2       1.0  0.5916279752851991  0.4993198324143792  0.5008378159563877  1.0000
  Al  Al3       1.0  0.6738062643033017  0.9984965038675283  0.0011599182436584738  1.0000
  Al  Al4       1.0  0.1737821815933316  0.0007947848128467057  0.9981162971069539  1.0000
  H   H1        1.0  0.6374930734500521  0.8206469127273905  0.15189048061073862  1.0000
  H   H2        1.0  0.24350826804679557  0.8749508193939805  0.17205532758111267  1.0000
  H   H3        1.0  0.4917552422859401  0.7193655416968456  0.22857993634560356  1.0000
  H   H4        1.0  0.272458437571224  0.7808427190555138  0.27108255515356205  1.0000
  H   H5        1.0  0.520801952477278  0.624975550861045  0.3275361494862281  1.0000
  H   H6        1.0  0.1263493047352426  0.6793021723395185  0.3480646125724507  1.0000
  H   H7        1.0  0.5996802443841815  0.8834334345897048  0.9047681021827289  1.0000
  H   H8        1.0  0.5840941400797276  0.8192079163751063  0.8367937529335165  1.0000
  H   H9        1.0  0.22309886299944984  0.8357294567437916  0.813667478194674  1.0000
  H   H10       1.0  0.23782975014405847  0.8987691443617649  0.8827711310288111  1.0000
  H   H11       1.0  0.5776762602039226  0.7069236249665849  0.64876278766193  1.0000
  H   H12       1.0  0.5491378206432173  0.6387342500247399  0.585086063581052  1.0000
  H   H13       1.0  0.15124421880347674  0.5702409457199025  0.6339786731819147  1.0000
  H   H14       1.0  0.6705759933598401  0.4015849688562484  0.3888421077837805  1.0000
  H   H15       1.0  0.6860404860021133  0.3361207978287198  0.32185746350997135  1.0000
  H   H16       1.0  0.04457834187784468  0.31866410232009923  0.329353148344218  1.0000
  H   H17       1.0  0.029971342375397093  0.385425683440026  0.3952594801774297  1.0000
  H   H18       1.0  0.7212254595899451  0.18116697140001042  0.16958199521251774  1.0000
  H   H19       1.0  0.7339850953739384  0.1146543489012117  0.10340512135682191  1.0000
  H   H20       1.0  0.09361158864682297  0.0980349509286285  0.1112173496745967  1.0000
  H   H21       1.0  0.0799023227113977  0.16355417021731714  0.17812776616560205  1.0000
  H   H22       1.0  0.1394657581592398  0.17980776632268203  0.848117672853839  1.0000
  H   H23       1.0  0.7451120727244671  0.12450485555819314  0.8275199435838021  1.0000
  H   H24       1.0  0.9931792233070451  0.28144999607087584  0.771175639026666  1.0000
  H   H25       1.0  0.7744936653996746  0.21909235736878682  0.7288165626909305  1.0000
  H   H26       1.0  0.0217742253930879  0.37543293319208004  0.6720354603575205  1.0000
  H   H27       1.0  0.6284827663162957  0.3205256251343584  0.6520860735788718  1.0000
  H   H28       1.0  0.5079740026450706  0.5596740262382909  0.8016044286817847  1.0000
  H   H29       1.0  0.4473073437610182  0.6338535143085835  0.8112460345355362  1.0000
  H   H30       1.0  0.36730299448564807  0.5571556649111002  0.8659251165998827  1.0000
  H   H31       1.0  0.08076157950358011  0.6146067255569109  0.7984567113110119  1.0000
  H   H32       1.0  0.13889340669655334  0.5408496410986174  0.7885349873809846  1.0000
  H   H33       1.0  0.3426029928890486  0.6024281761254145  0.6967853178636716  1.0000
  H   H34       1.0  0.29176952710844967  0.6768580683822806  0.7068895540003269  1.0000
  H   H35       1.0  0.34284809211260375  0.5855866377838835  0.4835433105503244  1.0000
  H   H36       1.0  0.8459019236484551  0.4135557894027287  0.5297731352030369  1.0000
  H   H37       1.0  0.4192140696898291  0.9132577436771003  0.030492941528152035  1.0000
  H   H38       1.0  0.9184721050000704  0.0863169143083482  0.9716116154840365  1.0000
  C   C1        1.0  0.3423512232110325  0.4353276040216088  0.43632588816743834  1.0000
  C   C2        1.0  0.3395882950578937  0.4082662486829849  0.5964383348539998  1.0000
  C   C3        1.0  0.8441512848708754  0.5643267724773722  0.5635838553983208  1.0000
  C   C4        1.0  0.8369158268312445  0.5914624292102388  0.4029543989688662  1.0000
  C   C5        1.0  0.9381861225330822  0.8524977858024486  0.1562534559967759  1.0000
  C   C6        1.0  0.8260165313187781  0.6474507323309809  0.3433553306958573  1.0000
  C   C7        1.0  0.6290667078374454  0.7111736544549248  0.2552521183806605  1.0000
  C   C8        1.0  0.644950784509433  0.6588413668406261  0.3095879043623597  1.0000
  C   C9        1.0  0.9876897528982056  0.6890537866861521  0.32191234636517413  1.0000
  C   C10       1.0  0.9736386386016417  0.7443543533852195  0.266979011516483  1.0000
  C   C11       1.0  0.7905324895254252  0.7557457917990646  0.23282839203077543  1.0000
  C   C12       1.0  0.7763922261141828  0.8109893156561938  0.177915082259446  1.0000
  C   C13       1.0  0.1193454495642428  0.8411059821931062  0.18995867135959102  1.0000
  C   C14       1.0  0.13513021417796978  0.7889141286456508  0.2444180777535934  1.0000
  C   C15       1.0  0.7350225357474256  0.8721963905454687  0.8848731620760972  1.0000
  C   C16       1.0  0.7262983498487043  0.8367146957453075  0.8473103792417405  1.0000
  C   C17       1.0  0.902634400996817  0.8238999316576567  0.8212055282094612  1.0000
  C   C18       1.0  0.08786633296216446  0.8459322646304699  0.8343608785313495  1.0000
  C   C19       1.0  0.0958042109727373  0.8809974022109794  0.8723922477230491  1.0000
  C   C20       1.0  0.919465912024769  0.8948015508633773  0.8975470835615413  1.0000
  C   C21       1.0  0.8829553890860494  0.7193875956259391  0.7122874094655245  1.0000
  C   C22       1.0  0.8923362963699688  0.7892232387561223  0.7790769375207276  1.0000
  C   C23       1.0  0.7014231985023044  0.6758386436491222  0.6458606793722127  1.0000
  C   C24       1.0  0.6858821111858474  0.6384056044418716  0.610147847097636  1.0000
  C   C25       1.0  0.8506882120716098  0.6012255807293911  0.6050991565024973  1.0000
  C   C26       1.0  0.0254371713846666  0.6001262352958038  0.6380472435416992  1.0000
  C   C27       1.0  0.04297449774142589  0.6359023092606008  0.6756378035733945  1.0000
  C   C28       1.0  0.8780858907887248  0.6757398653596028  0.678019959224166  1.0000
  C   C29       1.0  0.5347471580150297  0.3832095906578417  0.37539909645534664  1.0000
  C   C30       1.0  0.543476254918815  0.3469459177156011  0.3384713746793723  1.0000
  C   C31       1.0  0.36615837788994543  0.3234246274728321  0.3219382892460275  1.0000
  C   C32       1.0  0.18040997572591513  0.33732229340236597  0.3425101711006563  1.0000
  C   C33       1.0  0.17257739548207954  0.374104369137669  0.3790257773329985  1.0000
  C   C34       1.0  0.3495074174219396  0.39701563761165914  0.39600238452660375  1.0000
  C   C35       1.0  0.39101171489154746  0.2156239807623663  0.21579787775758066  1.0000
  C   C36       1.0  0.3751142192153054  0.2844951277499774  0.2833533022138185  1.0000
  C   C37       1.0  0.5850462346924842  0.16251632870970673  0.15661896621044497  1.0000
  C   C38       1.0  0.591815464155779  0.12583896768644817  0.11998746625518925  1.0000
  C   C39       1.0  0.414454931792008  0.10290108561627419  0.10329155252613732  1.0000
  C   C40       1.0  0.22978979907786368  0.11647667788229654  0.12439372886717591  1.0000
  C   C41       1.0  0.22207730129601796  0.15273577770553  0.1613108076067533  1.0000
  C   C42       1.0  0.39976695211439045  0.17641113268826564  0.17747359942753604  1.0000
  C   C43       1.0  0.439952380993823  0.1474193210384058  0.8434769573754793  1.0000
  C   C44       1.0  0.32781961271663107  0.3528123707331616  0.6563894326446232  1.0000
  C   C45       1.0  0.1306934554721622  0.2894400518360883  0.7445685287771441  1.0000
  C   C46       1.0  0.14645106562995383  0.3416087173063787  0.6900673422340162  1.0000
  C   C47       1.0  0.4896032099853541  0.3111320427531866  0.6781149187138242  1.0000
  C   C48       1.0  0.4755071975764265  0.25586439524364835  0.7330309172682591  1.0000
  C   C49       1.0  0.29231352300899255  0.2446657744016605  0.7671514718065852  1.0000
  C   C50       1.0  0.27831836592083903  0.18932513164691764  0.8220442402591461  1.0000
  C   C51       1.0  0.6211030818257298  0.15863920095203102  0.8097135575189115  1.0000
  C   C52       1.0  0.6370366274188866  0.21105565273548882  0.7554496370005384  1.0000
  C   C53       1.0  0.4284031652296179  0.09115121395856822  0.9028560972580808  1.0000
  C   C54       1.0  0.42025986739958643  0.064907766633894  0.0626524139464166  1.0000
  C   C55       1.0  0.9261488971802619  0.9083033930997431  0.09661383682501418  1.0000
  C   C56       1.0  0.9257510906666367  0.9336617782991399  0.9374200327767287  1.0000
  C   C57       1.0  0.2296405888924724  0.6284243967620499  0.7132023356632828  1.0000
  C   C58       1.0  0.1972268249878226  0.5901285760645508  0.7814440936628985  1.0000
  C   C59       1.0  0.3904626448619267  0.5848478400839313  0.8172649858467127  1.0000
  N   N1        1.0  0.058109407537941096  0.7880657674506111  0.7466818015055737  1.0000
  N   N2        1.0  0.053142795226413894  0.7528208177239366  0.712410644996588  1.0000
  N   N3        1.0  0.7082135021797737  0.7298968905373756  0.736431438243649  1.0000
  N   N4        1.0  0.712862941930595  0.7655628189554804  0.7702384768905902  1.0000
  N   N5        1.0  0.20080918726984717  0.2614547339488452  0.26993074247410936  1.0000
  N   N6        1.0  0.20886100840232297  0.2264683708302685  0.23557017676763792  1.0000
  N   N7        1.0  0.5651435015048348  0.23901020928138192  0.22889655088687996  1.0000
  N   N8        1.0  0.5570854468389682  0.2740197446037556  0.2632538955978205  1.0000
  O   O1        1.0  0.5123262986964079  0.4291624034961714  0.5750842621106287  1.0000
  O   O2        1.0  0.17066724667449756  0.45196181519681033  0.4493238638727277  1.0000
  O   O3        1.0  0.008899065582909298  0.5724629798091458  0.4261621564353178  1.0000
  O   O4        1.0  0.1726637953697434  0.42965679850595256  0.5706803692224087  1.0000
  O   O5        1.0  0.0128699119521087  0.549165322827335  0.5473582411946937  1.0000
  O   O6        1.0  0.5096170647386984  0.4477418133903299  0.4552737675863698  1.0000
  O   O7        1.0  0.3419482017897975  0.5390567695865229  0.49130915750509974  1.0000
  O   O8        1.0  0.6728724634016243  0.5517893595695753  0.5467974519021439  1.0000
  O   O9        1.0  0.6699120739353787  0.5674901384912232  0.4267285692599928  1.0000
  O   O10       1.0  0.8423326386881199  0.4607058788205052  0.5083524362863159  1.0000
  O   O11       1.0  0.2516773882541159  0.0503649144467033  0.046087115913870505  1.0000
  O   O12       1.0  0.5952519266865436  0.06685638034936402  0.9268365786353031  1.0000
  O   O13       1.0  0.7579363447246266  0.9456929445865117  0.9566509351545991  1.0000
  O   O14       1.0  0.5915530938097787  0.0507768689590407  0.04706521711638352  1.0000
  O   O15       1.0  0.7532215249101951  0.9292200733906101  0.07534145248496314  1.0000
  O   O16       1.0  0.2560828386844278  0.07211578655510922  0.9257039219991301  1.0000
  O   O17       1.0  0.423123073224346  0.9602980398230015  0.008421344117841973  1.0000
  O   O18       1.0  0.09249848710503977  0.9303023569798514  0.0708145594944937  1.0000
  O   O19       1.0  0.0968560913436605  0.9513285143946676  0.9494336848085468  1.0000
  O   O20       1.0  0.9224170110221761  0.03891979878614651  0.9909268382813539  1.0000
