data_image0
_chemical_formula_structural       Zn2H50C62N10O8
_chemical_formula_sum              "Zn2 H50 C62 N10 O8"
_cell_length_a       10.99564720652502
_cell_length_b       10.996153534731773
_cell_length_c       14.821800442783525
_cell_angle_alpha    91.53439356306703
_cell_angle_beta     112.18428124271054
_cell_angle_gamma    117.06265757160399

_space_group_name_H-M_alt    "P 1"
_space_group_IT_number       1

loop_
  _space_group_symop_operation_xyz
  'x, y, z'

loop_
  _atom_site_type_symbol
  _atom_site_label
  _atom_site_symmetry_multiplicity
  _atom_site_fract_x
  _atom_site_fract_y
  _atom_site_fract_z
  _atom_site_occupancy
  Zn  Zn1       1.0  0.44016404076516846  0.19035082455648217  0.24998295615333183  1.0000
  Zn  Zn2       1.0  0.559837273310933  0.8096466448917922  0.7500142953301747  1.0000
  H   H1        1.0  0.43043427212710833  0.1091110391567582  0.04294837891639245  1.0000
  H   H2        1.0  0.5660069320254878  0.3878730485694105  0.457122485885634  1.0000
  H   H3        1.0  0.5695657396548129  0.8908695992715892  0.957044759405889  1.0000
  H   H4        1.0  0.43399129688570787  0.6121296462346848  0.5428740753072319  1.0000
  H   H5        1.0  0.30726966269026695  0.9535465877399928  0.9432310859598516  1.0000
  H   H6        1.0  0.510072089989734  0.3643344022226244  0.5568141629314239  1.0000
  H   H7        1.0  0.692723002607842  0.04643299254961159  0.05676279102439712  1.0000
  H   H8        1.0  0.48992726896379674  0.6356703968458389  0.4431827455115068  1.0000
  H   H9        1.0  0.4195979902426856  0.9491819697320522  0.0663544387049484  1.0000
  H   H10       1.0  0.3825419195176424  0.3534465929954678  0.4336495525554652  1.0000
  H   H11       1.0  0.5803966166823644  0.05079761353024279  0.9336392751415444  1.0000
  H   H12       1.0  0.6174567578808094  0.6465550643563062  0.5663477773580325  1.0000
  H   H13       1.0  0.13660572008753047  0.11748106417540073  0.2632119117696448  1.0000
  H   H14       1.0  0.354841254416037  0.8740768824768208  0.23694861816475313  1.0000
  H   H15       1.0  0.8634060406049642  0.8825195794443629  0.7367854677738847  1.0000
  H   H16       1.0  0.6451605773608905  0.1259248540973061  0.763054269224476  1.0000
  H   H17       1.0  0.86507640395574  0.9723509492318169  0.22955388518234082  1.0000
  H   H18       1.0  0.24373226364375722  0.6361892426880261  0.27065262999498435  1.0000
  H   H19       1.0  0.13493655599265963  0.027657103230488603  0.7704487087963514  1.0000
  H   H20       1.0  0.7562618612327086  0.3638145539884902  0.7293489496303067  1.0000
  H   H21       1.0  0.6860816157495719  0.7621605203915534  0.0874175126950902  1.0000
  H   H22       1.0  0.17542990460749752  0.5990720779164531  0.41265253289749637  1.0000
  H   H23       1.0  0.3139274013376293  0.2378454541322411  0.9125873678740957  1.0000
  H   H24       1.0  0.8245632352238418  0.4009317128758737  0.587348786991832  1.0000
  H   H25       1.0  0.769978910030808  0.6946283597393684  0.9690267096183404  1.0000
  H   H26       1.0  0.22595645619059482  0.8011867065929154  0.5310309884253002  1.0000
  H   H27       1.0  0.2300228336755126  0.30537129604594065  0.0309774554761759  1.0000
  H   H28       1.0  0.7740433323931485  0.19882027881258316  0.4689728336286407  1.0000
  H   H29       1.0  0.09446830424457177  0.7756414844003174  0.8799198653968573  1.0000
  H   H30       1.0  0.39575092318789734  0.2148188649037337  0.6201363508124799  1.0000
  H   H31       1.0  0.9055220401528957  0.22434443494709203  0.12007827318962684  1.0000
  H   H32       1.0  0.6042584569966535  0.7851860457806976  0.37986725064825316  1.0000
  H   H33       1.0  0.9088945817586949  0.7230150583493327  0.8653068981774509  1.0000
  H   H34       1.0  0.3577987926943464  0.04388171764206562  0.6347516851691849  1.0000
  H   H35       1.0  0.09109906469516457  0.27697509300237033  0.1346935598645089  1.0000
  H   H36       1.0  0.6422025648127345  0.9561231019904495  0.36524642535536594  1.0000
  H   H37       1.0  0.25072986018866317  0.7175701472257713  0.059549095113396795  1.0000
  H   H38       1.0  0.15790928233722923  0.19140459177588548  0.4405438508673925  1.0000
  H   H39       1.0  0.7492622646622069  0.2824189549052463  0.9404516121772558  1.0000
  H   H40       1.0  0.8420977796274018  0.8086087123680983  0.5594606866612112  1.0000
  H   H41       1.0  0.7682684010112198  0.48628018280314217  0.868307004246752  1.0000
  H   H42       1.0  0.11813687358984722  0.8999346997556041  0.6315763616999063  1.0000
  H   H43       1.0  0.23172234723387666  0.5137099684873759  0.131694039806689  1.0000
  H   H44       1.0  0.8818656547098274  0.10007751992377219  0.36842628065011246  1.0000
  H   H45       1.0  0.9427423741149569  0.46769408965462117  0.23434227372706565  1.0000
  H   H46       1.0  0.7329945803902193  0.7085651748229153  0.26560172664868276  1.0000
  H   H47       1.0  0.05725683984136512  0.5323086110336561  0.7656545472017696  1.0000
  H   H48       1.0  0.26700361469627154  0.2914334023819621  0.7344008030032114  1.0000
  H   H49       1.0  0.9494999285401706  0.6998011333936133  0.24993249437824266  1.0000
  H   H50       1.0  0.05049650106058578  0.300201602416216  0.7500676430008397  1.0000
  C   C1        1.0  0.3523673583007324  0.9954375852066378  0.023884040308338742  1.0000
  C   C2        1.0  0.47135993085800015  0.3287700878932753  0.4761562399270787  1.0000
  C   C3        1.0  0.6476308853147615  0.004545157424900002  0.976110031275489  1.0000
  C   C4        1.0  0.5286384999770135  0.6712347228823744  0.5238417739992656  1.0000
  C   C5        1.0  0.22931238908829257  0.9684582983172094  0.05342158236580739  1.0000
  C   C6        1.0  0.4150290740982855  0.17622726425790344  0.4466314694113791  1.0000
  C   C7        1.0  0.7706893300440996  0.031530783494496  0.9465755787972796  1.0000
  C   C8        1.0  0.584970904122308  0.8237765501323506  0.5533703034103183  1.0000
  C   C9        1.0  0.10596693894086694  0.9853047255984749  0.13592897188306816  1.0000
  C   C10       1.0  0.34964035982780906  0.9704712673875444  0.36418035414224187  1.0000
  C   C11       1.0  0.8940398084554105  0.014693807811546802  0.8640683866859148  1.0000
  C   C12       1.0  0.6503612442427169  0.029530398821101797  0.6358170723694627  1.0000
  C   C13       1.0  0.05840055194003921  0.024223934663460497  0.2012576389289222  1.0000
  C   C14       1.0  0.32347625093763094  0.8576958579416994  0.2988831300062458  1.0000
  C   C15       1.0  0.9416098159703453  0.9757830363069149  0.7987428967334225  1.0000
  C   C16       1.0  0.6765225091700203  0.14230377139536898  0.701119573270681  1.0000
  C   C17       1.0  0.9062806856069373  0.9420659118596645  0.1817049255269367  1.0000
  C   C18       1.0  0.26101563497990554  0.7251319331575842  0.31843110766951094  1.0000
  C   C19       1.0  0.0937290007483753  0.05793791739402111  0.8182960316059749  1.0000
  C   C20       1.0  0.7389817796659771  0.2748708085364342  0.6815692894455411  1.0000
  C   C21       1.0  0.8040146665484683  0.8237547976244668  0.09975966050100732  1.0000
  C   C22       1.0  0.22457576024041973  0.7046890952223066  0.400344021836787  1.0000
  C   C23       1.0  0.19599294546965498  0.1762522172631407  0.9002448742212721  1.0000
  C   C24       1.0  0.7754195231416718  0.2953168145142655  0.599658587648257  1.0000
  C   C25       1.0  0.8493451008504921  0.7843173877155819  0.03355038856376777  1.0000
  C   C26       1.0  0.25114893903458585  0.816142170976306  0.46652314132811057  1.0000
  C   C27       1.0  0.15065480547583116  0.21567906769474374  0.9664498426071971  1.0000
  C   C28       1.0  0.7488512437905258  0.18386581378727837  0.5334767586927069  1.0000
  C   C29       1.0  0.0014823214893480204  0.8678421500558284  0.05315034543905026  1.0000
  C   C30       1.0  0.3149603351112092  0.9487009614968754  0.4469544309214726  1.0000
  C   C31       1.0  0.9985203245528922  0.13215953962837548  0.9468487060279996  1.0000
  C   C32       1.0  0.6850390211616146  0.0513017831698264  0.5530458030558164  1.0000
  C   C33       1.0  0.02165522800969194  0.7441065232317783  0.919058628713337  1.0000
  C   C34       1.0  0.3250750806988307  0.10285412308063967  0.5809983671425769  1.0000
  C   C35       1.0  0.9783366095274676  0.255880436540629  0.08093857801475932  1.0000
  C   C36       1.0  0.6749305612290472  0.897152880038604  0.4190056481077776  1.0000
  C   C37       1.0  0.010901710666175258  0.6163395528056625  0.9589460088933704  1.0000
  C   C38       1.0  0.1574049509754261  0.0521123820158351  0.5410569400698151  1.0000
  C   C39       1.0  0.9890911811296733  0.3836527174291007  0.04105632475579315  1.0000
  C   C40       1.0  0.8426032545271627  0.9478956937996446  0.45894845088719183  1.0000
  C   C41       1.0  0.14007492978567626  0.6220721446349698  0.032820548515175615  1.0000
  C   C42       1.0  0.08922170546735939  0.10742005195729117  0.4672549960111994  1.0000
  C   C43       1.0  0.8599178454762682  0.3779180360152807  0.9671823802295804  1.0000
  C   C44       1.0  0.9107842833815384  0.8925911655136931  0.532750559486729  1.0000
  C   C45       1.0  0.8702349900226309  0.4929625528702601  0.9263479108325186  1.0000
  C   C46       1.0  0.06669290344801475  0.9438839777416913  0.573597502829692  1.0000
  C   C47       1.0  0.12975736521535447  0.5070286740279997  0.07365493180130041  1.0000
  C   C48       1.0  0.933313028474288  0.0561272221379241  0.4264066874488534  1.0000
  C   C49       1.0  0.7150578197492481  0.2121127511053302  0.24050897458991474  1.0000
  C   C50       1.0  0.4712762110913361  0.4746013745978744  0.25948175600409223  1.0000
  C   C51       1.0  0.2849388306323632  0.7878888768867042  0.759486470632268  1.0000
  C   C52       1.0  0.5287202320050499  0.5253940286190755  0.7405188875533284  1.0000
  C   C53       1.0  0.7302646981346969  0.35760906802973846  0.2436298329437889  1.0000
  C   C54       1.0  0.6136509675199093  0.4867779221948468  0.2563023440783141  1.0000
  C   C55       1.0  0.2697380644414551  0.642394711238964  0.7563686234276616  1.0000
  C   C56       1.0  0.3863492572641293  0.5132227387715317  0.743698744730537  1.0000
  C   C57       1.0  0.8521468393560885  0.4767153973541411  0.24160818397875522  1.0000
  C   C58       1.0  0.7347598224023315  0.6106926000460646  0.2583101525758877  1.0000
  C   C59       1.0  0.1478491132941144  0.5232883671123219  0.7583905020700142  1.0000
  C   C60       1.0  0.2652366045177175  0.389308081361996  0.7416933103375526  1.0000
  C   C61       1.0  0.8545707497055375  0.6048337910329521  0.24996120130938232  1.0000
  C   C62       1.0  0.1454283884671455  0.395172115853306  0.7500403992904553  1.0000
  N   N1        1.0  0.24692581984658102  0.04499319372028759  0.1339944121105674  1.0000
  N   N2        1.0  0.4110682737012611  0.11333061255231769  0.3660716543140126  1.0000
  N   N3        1.0  0.7530746107506375  0.954999018039743  0.8660018081100205  1.0000
  N   N4        1.0  0.5889325161039453  0.886671100546252  0.6339296081198711  1.0000
  N   N5        1.0  0.0826508224278939  0.8614464606102458  0.0022886720247826116  1.0000
  N   N6        1.0  0.3592597889129934  0.0806857432894645  0.49778827988529156  1.0000
  N   N7        1.0  0.9173486800508001  0.13854576285696393  0.9977086536792255  1.0000
  N   N8        1.0  0.6407398573542552  0.9193211981376166  0.5022121291201883  1.0000
  N   N9        1.0  0.6155453421490832  0.36575873048141  0.24995673226882786  1.0000
  N   N10       1.0  0.3844518990362856  0.6342419040367344  0.7500428947224336  1.0000
  O   O1        1.0  0.5980315109653632  0.11824937463823908  0.24848521686761416  1.0000
  O   O2        1.0  0.36941044819516833  0.3495476485314483  0.2513832832951053  1.0000
  O   O3        1.0  0.4019690795967391  0.8817522768905373  0.7515112672984258  1.0000
  O   O4        1.0  0.6305849271469058  0.650449776816032  0.7486117271629169  1.0000
  O   O5        1.0  0.8163391936938497  0.1965896220296699  0.23144128704490188  1.0000
  O   O6        1.0  0.4648068360743665  0.5849330151612689  0.2686683469021887  1.0000
  O   O7        1.0  0.1836621068866293  0.8034151800114842  0.7685554582602663  1.0000
  O   O8        1.0  0.5351916490065349  0.41506975880398034  0.7313343577779036  1.0000
