data_image0
_chemical_formula_structural       Mn2H20C30O14
_chemical_formula_sum              "Mn2 H20 C30 O14"
_cell_length_a       6.963071465621075
_cell_length_b       7.173857298350281
_cell_length_c       13.857841107189802
_cell_angle_alpha    105.03764711154889
_cell_angle_beta     99.16848854376812
_cell_angle_gamma    89.99982402460691

_space_group_name_H-M_alt    "P 1"
_space_group_IT_number       1

loop_
  _space_group_symop_operation_xyz
  'x, y, z'

loop_
  _atom_site_type_symbol
  _atom_site_label
  _atom_site_symmetry_multiplicity
  _atom_site_fract_x
  _atom_site_fract_y
  _atom_site_fract_z
  _atom_site_occupancy
  Mn  Mn1       1.0  3.2431149322119762e-06  0.9999943338980587  0.4999985416303828  1.0000
  Mn  Mn2       1.0  0.5000032688363591  0.4999987062956991  0.4999978734085957  1.0000
  H   H1        1.0  0.8044554549629409  0.17840780817410012  0.7911168510870111  1.0000
  H   H2        1.0  0.6962555450919368  0.38711594240972846  0.20870737497342157  1.0000
  H   H3        1.0  0.19555179495227998  0.8215997173439005  0.20889041279867368  1.0000
  H   H4        1.0  0.3037543061978596  0.6128843712956357  0.7912983846632713  1.0000
  H   H5        1.0  0.7794964170984146  0.7324523992572978  0.7227019585366391  1.0000
  H   H6        1.0  0.7204424773350695  0.0098138073118719  0.27749291777861623  1.0000
  H   H7        1.0  0.2204806336948977  0.2675333375143651  0.2772922445008632  1.0000
  H   H8        1.0  0.2795425910083793  0.9901907403759795  0.7225043991013322  1.0000
  H   H9        1.0  0.7556438685540243  0.8991147521185284  0.9013073297713207  1.0000
  H   H10       1.0  0.7445471130575996  0.9980574834153872  0.09899209986759423  1.0000
  H   H11       1.0  0.24433775615404577  0.1008796707607971  0.0986840440940071  1.0000
  H   H12       1.0  0.2554409220957794  0.0019485207962262005  0.901005628118355  1.0000
  H   H13       1.0  0.0592928856933241  0.31531572029408744  0.4115325661660946  1.0000
  H   H14       1.0  0.4397157517343402  0.903669467674142  0.5880537416395626  1.0000
  H   H15       1.0  0.9407078297496484  0.6846787791981441  0.5884659749927436  1.0000
  H   H16       1.0  0.5602835883710213  0.09632647063256172  0.4119456152880687  1.0000
  H   H17       1.0  0.8842959469015668  0.32800607176869795  0.4707966408678245  1.0000
  H   H18       1.0  0.6156160134698184  0.8572291896432916  0.5294687455324052  1.0000
  H   H19       1.0  0.11570490520519881  0.6719913171621102  0.5292030209498293  1.0000
  H   H20       1.0  0.3843850102156168  0.1427725334608851  0.4705315123073746  1.0000
  C   C1        1.0  0.7928177617585561  0.33452846020519894  0.8154085826214796  1.0000
  C   C2        1.0  0.7079608238317832  0.5190269886218603  0.18453926630240147  1.0000
  C   C3        1.0  0.20718786476516018  0.6654776147403324  0.1845947598205484  1.0000
  C   C4        1.0  0.2920533948792396  0.48097623228301967  0.8154635927766734  1.0000
  C   C5        1.0  0.7991063117960238  0.4470483998101714  0.7463857233966991  1.0000
  C   C6        1.0  0.701400812813553  0.7005754653329389  0.2536548861455188  1.0000
  C   C7        1.0  0.200894518032726  0.552948989130968  0.2536132151102208  1.0000
  C   C8        1.0  0.2986017704250017  0.2994305978752367  0.7463439040001916  1.0000
  C   C9        1.0  0.7818591740205677  0.6481449211720117  0.7778597784398187  1.0000
  C   C10       1.0  0.7184351430227663  0.8703180374874222  0.2222931571719187  1.0000
  C   C11       1.0  0.21813111935005483  0.3518452028802486  0.2221352532528726  1.0000
  C   C12       1.0  0.2815602582809547  0.1296908856817112  0.7777047759312623  1.0000
  C   C13       1.0  0.7650323868716028  0.7426193849279841  0.877787997883864  1.0000
  C   C14       1.0  0.7353020245190295  0.864993704497863  0.12241610621175174  1.0000
  C   C15       1.0  0.23495389487196414  0.25737794501659295  0.12220987846329479  1.0000
  C   C16       1.0  0.2646918870613035  0.13501376803683476  0.8775822453121405  1.0000
  C   C17       1.0  0.7601012692450624  0.6311003502045126  0.946006191123253  1.0000
  C   C18       1.0  0.7405713122890774  0.6851891807640272  0.054110067408565506  1.0000
  C   C19       1.0  0.23989274108852507  0.3689056775334408  0.0539970249016974  1.0000
  C   C20       1.0  0.2594266970347121  0.3148081963364859  0.9458915519093268  1.0000
  C   C21       1.0  0.7705182576664241  0.4278917552468046  0.9135572273945414  1.0000
  C   C22       1.0  0.7303909051649456  0.5143620552551623  0.0864582432551799  1.0000
  C   C23       1.0  0.22948112699498313  0.5721041830392437  0.08644357615454369  1.0000
  C   C24       1.0  0.2696204262070694  0.48564115384007783  0.9135451267026653  1.0000
  C   C25       1.0  0.7504172573906447  0.34581282147112097  0.9999863854818825  1.0000
  C   C26       1.0  0.24959872437136002  0.6541976289453615  1.8296494111802152e-05  1.0000
  C   C27       1.0  0.8217410665068385  0.3522488568359207  0.6401314737946961  1.0000
  C   C28       1.0  0.6779819807559875  0.7119623896340385  0.3597459268803576  1.0000
  C   C29       1.0  0.17825678387513483  0.6477456308363401  0.3598683015536466  1.0000
  C   C30       1.0  0.3220178614485222  0.2880451064476476  0.6402564660610819  1.0000
  O   O1        1.0  0.7501916730276154  0.17428675410278766  0.9999694056794936  1.0000
  O   O2        1.0  0.2498501617715547  0.8257136894053402  3.796739794378929e-05  1.0000
  O   O3        1.0  0.794191230592503  0.4539615796662276  0.5741614220276929  1.0000
  O   O4        1.0  0.7069875937161498  0.8793941061931321  0.4260543507538088  1.0000
  O   O5        1.0  0.20580224272707437  0.546031445561951  0.42583928262013154  1.0000
  O   O6        1.0  0.29301786422457343  0.12061052407958069  0.5739451764605334  1.0000
  O   O7        1.0  0.8663759177878491  0.17678854152970305  0.6175789971641449  1.0000
  O   O8        1.0  0.6310465874441462  0.5593225593914256  0.3818183793104808  1.0000
  O   O9        1.0  0.1336220945316171  0.82321172507136  0.3824194029481873  1.0000
  O   O10       1.0  0.3689530289844853  0.44068204729298804  0.6181799997292288  1.0000
  O   O11       1.0  0.9549822851550047  0.2346374627591885  0.4229636342271803  1.0000
  O   O12       1.0  0.5443447752108597  0.8117597817987985  0.5770585783755564  1.0000
  O   O13       1.0  0.04502149884681471  0.7653599379606106  0.5770369633331498  1.0000
  O   O14       1.0  0.4556515535285328  0.18823470000479148  0.42293892082462037  1.0000
