data_image0
_chemical_formula_structural       Li4B4H48C16O4
_chemical_formula_sum              "Li4 B4 H48 C16 O4"
_cell_length_a       4.353794670796873
_cell_length_b       10.82501500100675
_cell_length_c       13.17977664301701
_cell_angle_alpha    90.0000723967402
_cell_angle_beta     100.72607920783061
_cell_angle_gamma    89.99988346296435

_space_group_name_H-M_alt    "P 1"
_space_group_IT_number       1

loop_
  _space_group_symop_operation_xyz
  'x, y, z'

loop_
  _atom_site_type_symbol
  _atom_site_label
  _atom_site_symmetry_multiplicity
  _atom_site_fract_x
  _atom_site_fract_y
  _atom_site_fract_z
  _atom_site_occupancy
  Li  Li1       1.0  0.1967090790203869  0.5492087159515081  0.4187383199412125  1.0000
  Li  Li2       1.0  0.80328897815469  0.04920798018299172  0.0812612271854292  1.0000
  Li  Li3       1.0  0.8032916777946753  0.45079117688964493  0.5812625492189625  1.0000
  Li  Li4       1.0  0.19670706107828553  0.9507909888724628  0.9187378482802443  1.0000
  B   B1        1.0  0.2635390483776304  0.36781502782714887  0.5277474313787778  1.0000
  B   B2        1.0  0.7364600544456367  0.8678144810709727  0.9722521429547513  1.0000
  B   B3        1.0  0.7364640248343906  0.6321848650125829  0.472252814607991  1.0000
  B   B4        1.0  0.2635360059849177  0.1321844879850502  0.02774769252116729  1.0000
  H   H1        1.0  0.2901965827125892  0.47416224002317614  0.5622704105315179  1.0000
  H   H2        1.0  0.7098043640777049  0.9741616623497794  0.9377293815824501  1.0000
  H   H3        1.0  0.709806490497286  0.5258385766028013  0.437729835455599  1.0000
  H   H4        1.0  0.2901916963507034  0.025838230492496495  0.0622704538938237  1.0000
  H   H5        1.0  0.0737301773970884  0.31145586056909025  0.5678093997349762  1.0000
  H   H6        1.0  0.9262691870267475  0.8114550978338357  0.9321901317020362  1.0000
  H   H7        1.0  0.9262705794158279  0.6885449560583083  0.4321914694255539  1.0000
  H   H8        1.0  0.07372685220622091  0.18854387122161853  0.0678089437636302  1.0000
  H   H9        1.0  0.5128849434255187  0.31383072197117207  0.5495957952363142  1.0000
  H   H10       1.0  0.487114367578961  0.8138303453214848  0.9504022179879287  1.0000
  H   H11       1.0  0.48711812978649494  0.6861691708685599  0.4504044507504545  1.0000
  H   H12       1.0  0.5128816716540072  0.1861686237339768  0.04959685747774499  1.0000
  H   H13       1.0  0.17720474473014752  0.3683969767491392  0.4338341575412485  1.0000
  H   H14       1.0  0.8227918096830679  0.8683966638389222  0.0661648725177812  1.0000
  H   H15       1.0  0.8227959696876114  0.6316038398771157  0.5661651915987918  1.0000
  H   H16       1.0  0.1772065883420169  0.1316023052162549  0.9338350997949689  1.0000
  H   H17       1.0  0.4846548895984882  0.6864627909252051  0.26034027960751865  1.0000
  H   H18       1.0  0.515344868081165  0.18646345551660906  0.2396595088241256  1.0000
  H   H19       1.0  0.5153458036216918  0.3135380257004741  0.7396583095222696  1.0000
  H   H20       1.0  0.48465119234724335  0.8135364373256665  0.7603403266521411  1.0000
  H   H21       1.0  0.07586474191782598  0.7192684251236584  0.2212338566507484  1.0000
  H   H22       1.0  0.9241418762756198  0.21926789205780037  0.278766367260161  1.0000
  H   H23       1.0  0.9241336561008282  0.2807333152902629  0.7787661156630606  1.0000
  H   H24       1.0  0.0758588381464307  0.7807310769959559  0.7212329818791688  1.0000
  H   H25       1.0  0.04692603813928291  0.6018403030596673  0.0624988138917857  1.0000
  H   H26       1.0  0.9530835050983129  0.1018427598985738  0.4375029774999959  1.0000
  H   H27       1.0  0.9530793938670002  0.39815866599353467  0.9375023289417116  1.0000
  H   H28       1.0  0.0469219057082455  0.8981571329403053  0.5624974053236045  1.0000
  H   H29       1.0  0.41872915924636095  0.6719601536077064  0.0716950019490596  1.0000
  H   H30       1.0  0.5812706445493278  0.17196197598276802  0.4283040154344492  1.0000
  H   H31       1.0  0.5812668799844688  0.3280397392340005  0.9283040735169621  1.0000
  H   H32       1.0  0.41872775347147956  0.828038840644908  0.5716959568790045  1.0000
  H   H33       1.0  0.6878706567916382  0.48783471953249363  0.1446753938721557  1.0000
  H   H34       1.0  0.3121253644235154  0.987837111965284  0.35532448710531384  1.0000
  H   H35       1.0  0.3121323952227968  0.5121651733066628  0.8553240921043681  1.0000
  H   H36       1.0  0.6878730971943128  0.012161857091612703  0.6446777652381713  1.0000
  H   H37       1.0  0.3619808529964246  0.41516237641011605  0.0667309909971223  1.0000
  H   H38       1.0  0.638024898312672  0.9151646218582385  0.43327090203530366  1.0000
  H   H39       1.0  0.638019946218087  0.5848356688596753  0.9332713981828462  1.0000
  H   H40       1.0  0.3619781325020455  0.0848361947666021  0.5667278239313163  1.0000
  H   H41       1.0  0.14826627524096384  0.36201807653127827  0.2136161017949192  1.0000
  H   H42       1.0  0.8517397227510983  0.8620180759604067  0.2863857507871543  1.0000
  H   H43       1.0  0.8517368403683606  0.6379808925233449  0.7863856642119913  1.0000
  H   H44       1.0  0.14826101287066956  0.13797996930767914  0.7136143583620793  1.0000
  H   H45       1.0  0.5209003499470057  0.40311815543568497  0.2882478693594237  1.0000
  H   H46       1.0  0.47909608569845114  0.9031174212553668  0.2117527071471272  1.0000
  H   H47       1.0  0.479100406863772  0.5968835849779666  0.7117529998014547  1.0000
  H   H48       1.0  0.5208976583308598  0.09688339537457584  0.788247751502908  1.0000
  C   C1        1.0  0.25965118095029993  0.6507899208415752  0.21826683192796992  1.0000
  C   C2        1.0  0.7403533963024459  0.1507904660375416  0.28173244301549966  1.0000
  C   C3        1.0  0.7403472382680861  0.3492108957866763  0.7817339003957287  1.0000
  C   C4        1.0  0.2596449381299024  0.8492085030159229  0.7182652492665084  1.0000
  C   C5        1.0  0.28174197973807935  0.6081672556802433  0.11021293279975448  1.0000
  C   C6        1.0  0.7182674917386651  0.1081689075254602  0.3897873433868355  1.0000
  C   C7        1.0  0.718263452266058  0.39183263715921185  0.8897882100340908  1.0000
  C   C8        1.0  0.2817355602736313  0.8918319090999491  0.6102121425900364  1.0000
  C   C9        1.0  0.43249325224727647  0.4799696968928373  0.1306504278617169  1.0000
  C   C10       1.0  0.5675075230614509  0.9799709785750894  0.3693512408232209  1.0000
  C   C11       1.0  0.5675098209625985  0.5200311197331401  0.8693498181254  1.0000
  C   C12       1.0  0.43249087496149485  0.020028914266340802  0.6306487314898845  1.0000
  C   C13       1.0  0.32522535986205275  0.4353731106877774  0.22894784856559616  1.0000
  C   C14       1.0  0.6747756224536943  0.935372307322126  0.2710537861749245  1.0000
  C   C15       1.0  0.6747776921545281  0.5646258583651332  0.7710516374105723  1.0000
  C   C16       1.0  0.3252204803784551  0.0646238903763035  0.7289475693204324  1.0000
  O   O1        1.0  0.178268817796372  0.5404649731202228  0.2699257095713889  1.0000
  O   O2        1.0  0.8217387151343019  0.0404635255388186  0.2300774182882179  1.0000
  O   O3        1.0  0.8217366142099038  0.4595339959329791  0.7300754332621082  1.0000
  O   O4        1.0  0.17825734530268283  0.9595326721584598  0.769922417186649  1.0000
