data_image0
_chemical_formula_structural       Cu2H24C24S2N6O10
_chemical_formula_sum              "Cu2 H24 C24 S2 N6 O10"
_cell_length_a       7.720203814069572
_cell_length_b       9.298697762015735
_cell_length_c       10.805826782810458
_cell_angle_alpha    99.48881594953299
_cell_angle_beta     96.71371103031876
_cell_angle_gamma    94.13576571063267

_space_group_name_H-M_alt    "P 1"
_space_group_IT_number       1

loop_
  _space_group_symop_operation_xyz
  'x, y, z'

loop_
  _atom_site_type_symbol
  _atom_site_label
  _atom_site_symmetry_multiplicity
  _atom_site_fract_x
  _atom_site_fract_y
  _atom_site_fract_z
  _atom_site_occupancy
  Cu  Cu1       1.0  0.727228736485138  0.7951306815896618  0.9427202793687145  1.0000
  Cu  Cu2       1.0  0.272768308881055  0.20486925830898883  0.05727874894847671  1.0000
  H   H1        1.0  0.9851839405346821  0.385445373084089  0.07182705979956693  1.0000
  H   H2        1.0  0.014810731932804804  0.614556747435728  0.9281730102350992  1.0000
  H   H3        1.0  0.15709083387056208  0.7658474170406963  0.35922528145543714  1.0000
  H   H4        1.0  0.8429166494431256  0.23415255959157133  0.6407746061459606  1.0000
  H   H5        1.0  0.4585947029080728  0.6751697627574486  0.3736018427536082  1.0000
  H   H6        1.0  0.541404054951819  0.3248214206250283  0.6264071842164826  1.0000
  H   H7        1.0  0.5036504914206859  0.4421705885514485  0.23687692235571942  1.0000
  H   H8        1.0  0.4963467343625112  0.5578183992195136  0.763133517537682  1.0000
  H   H9        1.0  0.0919054511625177  0.9212711968531554  0.16468842156697866  1.0000
  H   H10       1.0  0.9080931967574485  0.07873203983805152  0.8352954749222903  1.0000
  H   H11       1.0  0.9402473135198193  0.9312056765168178  0.27726473711215505  1.0000
  H   H12       1.0  0.05976595401579489  0.06879979643687761  0.7227308536726229  1.0000
  H   H13       1.0  0.8156609306304643  0.7467057892781455  0.6734473945487665  1.0000
  H   H14       1.0  0.1843489533466425  0.25329200308723193  0.32655978195224833  1.0000
  H   H15       1.0  0.7202698134758947  0.8330535586452118  0.4754836178881875  1.0000
  H   H16       1.0  0.2797465787935494  0.16694425870408483  0.5245194675448489  1.0000
  H   H17       1.0  0.3693092838074746  0.09667706921680264  0.6821497549189887  1.0000
  H   H18       1.0  0.6306921509313952  0.9033152249352058  0.31784484234341903  1.0000
  H   H19       1.0  0.473269628126097  0.9917873353386996  0.867712468643113  1.0000
  H   H20       1.0  0.5267242147403266  0.008207121067663104  0.1322827406946629  1.0000
  H   H21       1.0  0.38253225605505037  0.6567603696793967  0.9624672500154148  1.0000
  H   H22       1.0  0.617462545503912  0.3432428443249194  0.037536687972931304  1.0000
  H   H23       1.0  0.35766352613456587  0.8247604055335318  0.9854880023584442  1.0000
  H   H24       1.0  0.6423262652741001  0.17524498355427914  0.014508431909234799  1.0000
  C   C1        1.0  0.08624758874462658  0.45440197217656936  0.13819454168574202  1.0000
  C   C2        1.0  0.9137467303830957  0.5455968634338504  0.8618041063531976  1.0000
  C   C3        1.0  0.05061425460338852  0.5844407488274259  0.21071227213164437  1.0000
  C   C4        1.0  0.9493858518312308  0.41556358269933474  0.7892830047147968  1.0000
  C   C5        1.0  0.18363651531068106  0.6660005666568696  0.29888632309903335  1.0000
  C   C6        1.0  0.8163655155260656  0.33399720139894384  0.7011128039458612  1.0000
  C   C7        1.0  0.34923920797866953  0.6155659822270535  0.30827677451663504  1.0000
  C   C8        1.0  0.6507610665330859  0.38442739879234017  0.691726211409531  1.0000
  C   C9        1.0  0.3759745043289442  0.4850066421517951  0.23234531648638077  1.0000
  C   C10       1.0  0.6240211349670518  0.5149921960249205  0.7676580670836801  1.0000
  C   C11       1.0  0.9511952807003182  0.9138497683226634  0.17527316263348783  1.0000
  C   C12       1.0  0.0488035117359615  0.0861545598276479  0.8247192299300609  1.0000
  C   C13       1.0  0.8743886321179699  0.04161064762048741  0.1232130907902018  1.0000
  C   C14       1.0  0.1256092212545141  0.9583969592271872  0.8767843188550303  1.0000
  C   C15       1.0  0.7126276600496124  0.8203340322802648  0.6695652118237589  1.0000
  C   C16       1.0  0.28737710011056816  0.17966483965869173  0.3304352211235085  1.0000
  C   C17       1.0  0.6597167065451401  0.8724124248365686  0.5592201773393555  1.0000
  C   C18       1.0  0.3402901930105529  0.12758207627157253  0.4407788829760406  1.0000
  C   C19       1.0  0.5309288777712026  0.9718948444567561  0.5580867220202776  1.0000
  C   C20       1.0  0.4690767139560847  0.02809965246476761  0.4419113052604687  1.0000
  C   C21       1.0  0.46477013937901296  0.016196632479569904  0.6725432176290556  1.0000
  C   C22       1.0  0.5352297601981988  0.9837934664660112  0.32745186693255596  1.0000
  C   C23       1.0  0.523649950731915  0.958582258062002  0.7787261774699915  1.0000
  C   C24       1.0  0.4763463879547487  0.04141111201786169  0.22127000685576093  1.0000
  S   S1        1.0  0.8380260889091671  0.6475836442166242  0.18552755086528805  1.0000
  S   S2        1.0  0.16197676227373137  0.3524217891678775  0.8144736600041256  1.0000
  N   N1        1.0  0.6442322413939152  0.8611067629930675  0.7777702384165794  1.0000
  N   N2        1.0  0.355769685031099  0.13888990833759612  0.22223242566759893  1.0000
  N   N3        1.0  0.861393337076393  0.7750055859540057  0.10698095567440198  1.0000
  N   N4        1.0  0.13860417529619437  0.22499873436394321  0.8930187344715893  1.0000
  N   N5        1.0  0.2458652794146161  0.405562939692871  0.15031064957425852  1.0000
  N   N6        1.0  0.7541271604665809  0.5944304145864763  0.8496898406405153  1.0000
  O   O1        1.0  0.44444505523949823  0.753490310134531  0.9971251601045527  1.0000
  O   O2        1.0  0.5555432719617668  0.24651287442997466  0.0028930508170858997  1.0000
  O   O3        1.0  0.7599480496267574  0.007124589895113302  0.02129786100152132  1.0000
  O   O4        1.0  0.24004979757578587  0.9928830177627225  0.9786976973954682  1.0000
  O   O5        1.0  0.9190670353132688  0.16983751008621084  0.17614415053596133  1.0000
  O   O6        1.0  0.08093069822264451  0.8301690020617161  0.8238521680279477  1.0000
  O   O7        1.0  0.7254306796217663  0.5267001741450844  0.10735797873940817  1.0000
  O   O8        1.0  0.2745657861903297  0.47330632855016574  0.8926493399034217  1.0000
  O   O9        1.0  0.795680284732164  0.6985625602032927  0.31295769420908937  1.0000
  O   O10       1.0  0.20433132892414815  0.30145166157003445  0.6870454847810805  1.0000
