data_image0
_chemical_formula_structural       Ca2H8C8O12
_chemical_formula_sum              "Ca2 H8 C8 O12"
_cell_length_a       6.274905248421894
_cell_length_b       6.274908047360181
_cell_length_c       7.237375360000037
_cell_angle_alpha    89.99998893410846
_cell_angle_beta     90.00000608390994
_cell_angle_gamma    104.80671659362031

_space_group_name_H-M_alt    "P 1"
_space_group_IT_number       1

loop_
  _space_group_symop_operation_xyz
  'x, y, z'

loop_
  _atom_site_type_symbol
  _atom_site_label
  _atom_site_symmetry_multiplicity
  _atom_site_fract_x
  _atom_site_fract_y
  _atom_site_fract_z
  _atom_site_occupancy
  Ca  Ca1       1.0  0.5906313475030985  0.4093695125136066  0.25000084527265193  1.0000
  Ca  Ca2       1.0  0.4093696683782825  0.5906312601985917  0.7499997604717877  1.0000
  H   H1        1.0  0.7877178317423701  0.888536359605283  0.2614234641345305  1.0000
  H   H2        1.0  0.21228116762279112  0.1114627656574214  0.7614238217633444  1.0000
  H   H3        1.0  0.11146418515990321  0.21228262511760937  0.23857680790154495  1.0000
  H   H4        1.0  0.8885364055141522  0.7877165015911416  0.7385757359732423  1.0000
  H   H5        1.0  0.12277594866755238  0.8862099781646577  0.4580789783036678  1.0000
  H   H6        1.0  0.8772214707307031  0.11378910945245481  0.9580793987574411  1.0000
  H   H7        1.0  0.11378932058902085  0.877223720837826  0.0419212073048101  1.0000
  H   H8        1.0  0.8862116817140092  0.12277709521158903  0.5419216271229246  1.0000
  C   C1        1.0  0.1195974026572912  0.5679924731153038  0.3532067321634714  1.0000
  C   C2        1.0  0.8803995854356401  0.43200498796096554  0.853208481873523  1.0000
  C   C3        1.0  0.4320062787264903  0.8804030737864823  0.14679211282035007  1.0000
  C   C4        1.0  0.5679935620819523  0.11959937211650384  0.6467911211986886  1.0000
  C   C5        1.0  0.07016892232248753  0.7930154986830048  0.3296277213302901  1.0000
  C   C6        1.0  0.9298300814933997  0.20698361237459298  0.8296281313328748  1.0000
  C   C7        1.0  0.20698342000138575  0.929831132184212  0.170372469572122  1.0000
  C   C8        1.0  0.7930155734221742  0.0701680120419539  0.6703728892536773  1.0000
  O   O1        1.0  0.9764648166716726  0.3986649246119143  0.2955436177217905  1.0000
  O   O2        1.0  0.02353662664351931  0.6013374869975722  0.7955438761841549  1.0000
  O   O3        1.0  0.6013361671667354  0.023536229342525403  0.20445536111282792  1.0000
  O   O4        1.0  0.3986612356811038  0.9764629110975636  0.7044555930372169  1.0000
  O   O5        1.0  0.3027227310615217  0.565982157127401  0.42677346564312313  1.0000
  O   O6        1.0  0.697277871893455  0.434016930385063  0.9267724341788793  1.0000
  O   O7        1.0  0.43401848904795065  0.6972776513794798  0.0732267852051507  1.0000
  O   O8        1.0  0.5659820908361015  0.3027215097670749  0.5732271447455944  1.0000
  O   O9        1.0  0.841123138942095  0.7568073093445946  0.29838024530234725  1.0000
  O   O10       1.0  0.15887745563457406  0.24319180490842748  0.7983819577293263  1.0000
  O   O11       1.0  0.24319365554803346  0.15887759199119245  0.2016200508815515  1.0000
  O   O12       1.0  0.7568069327143759  0.8411215424146622  0.7016189575758958  1.0000
