data_image0
_chemical_formula_structural       Zr6H40C72O44
_chemical_formula_sum              "Zr6 H40 C72 O44"
_cell_length_a       16.97766180818571
_cell_length_b       17.157849074764783
_cell_length_c       16.892028250671164
_cell_angle_alpha    59.81127837728709
_cell_angle_beta     60.86954351858054
_cell_angle_gamma    59.31837375507287

_space_group_name_H-M_alt    "P 1"
_space_group_IT_number       1

loop_
  _space_group_symop_operation_xyz
  'x, y, z'

loop_
  _atom_site_type_symbol
  _atom_site_label
  _atom_site_symmetry_multiplicity
  _atom_site_fract_x
  _atom_site_fract_y
  _atom_site_fract_z
  _atom_site_occupancy
  Zr  Zr1       1.0  0.8961085501007773  0.39614982643709595  0.6038792351495134  1.0000
  Zr  Zr2       1.0  0.10387756896528083  0.6038480360511685  0.3961315934412895  1.0000
  Zr  Zr3       1.0  0.10372931819373574  0.39626470968055844  0.6037253458331193  1.0000
  Zr  Zr4       1.0  0.8962738202254883  0.6037230271797538  0.3962779384474898  1.0000
  Zr  Zr5       1.0  0.8959178135948348  0.604088998662853  0.6040949966106484  1.0000
  Zr  Zr6       1.0  0.10408470293136658  0.395907822609047  0.39589315931424107  1.0000
  H   H1        1.0  0.9204884950826794  0.4172976459754381  0.7457757759648233  1.0000
  H   H2        1.0  0.9164637876164079  0.7457625699015152  0.4173123176683475  1.0000
  H   H3        1.0  0.24579920415880716  0.4163924617464119  0.4204735519891826  1.0000
  H   H4        1.0  0.917310177248922  0.4204805499046385  0.4164362131463762  1.0000
  H   H5        1.0  0.6230940464996877  0.39748354212137843  0.869603442417194  1.0000
  H   H6        1.0  0.6514319967067692  0.6439729176910093  0.8435194170728337  1.0000
  H   H7        1.0  0.36960353999664625  0.6098535459578257  0.12304912576968967  1.0000
  H   H8        1.0  0.3434832574536628  0.3610889251619085  0.1513965456315347  1.0000
  H   H9        1.0  0.8974593308716763  0.12309308561580677  0.609842288125428  1.0000
  H   H10       1.0  0.14397806004511438  0.15143008627271123  0.36109170081260084  1.0000
  H   H11       1.0  0.1098320075960045  0.8696216131147737  0.3974762873421795  1.0000
  H   H12       1.0  0.8610712372985677  0.8434883935642078  0.643998934665852  1.0000
  H   H13       1.0  0.6276009860858951  0.8667840465976724  0.6097437607484011  1.0000
  H   H14       1.0  0.6512752082271053  0.8441735149530558  0.3573183992611603  1.0000
  H   H15       1.0  0.3668623645414968  0.12757758068232053  0.39579776413084733  1.0000
  H   H16       1.0  0.3442107716803947  0.15128098176961663  0.647199726504894  1.0000
  H   H17       1.0  0.10975486650084311  0.39590081622360884  0.1275648649340155  1.0000
  H   H18       1.0  0.8572912558998382  0.647231606667667  0.1512596325790553  1.0000
  H   H19       1.0  0.895861335920138  0.6097084984915427  0.866794885105392  1.0000
  H   H20       1.0  0.1471654660026047  0.3572671921804017  0.8442187955797849  1.0000
  H   H21       1.0  0.8952125116487508  0.12634917917193886  0.8672337592448044  1.0000
  H   H22       1.0  0.14489237603647345  0.15053077187282338  0.8442126328882721  1.0000
  H   H23       1.0  0.11119137228044436  0.8671482837703337  0.12638914122614867  1.0000
  H   H24       1.0  0.8604131739368838  0.8441390760406264  0.15054208594460755  1.0000
  H   H25       1.0  0.6263622149860737  0.39525545944866275  0.6112600902569626  1.0000
  H   H26       1.0  0.650534543727531  0.6449043544844812  0.3604351932213206  1.0000
  H   H27       1.0  0.3672436430900773  0.6111816514823403  0.3952232718023154  1.0000
  H   H28       1.0  0.3441525898440363  0.36040700527703257  0.6449129531620128  1.0000
  H   H29       1.0  0.5468735138591967  0.32186880255824957  0.951647048256902  1.0000
  H   H30       1.0  0.45161256598864685  0.6796168240161221  0.04686063883221446  1.0000
  H   H31       1.0  0.8218969728618505  0.046898066792529385  0.6795621848869899  1.0000
  H   H32       1.0  0.17960259115329782  0.9516085156440824  0.3219078050611087  1.0000
  H   H33       1.0  0.5517247888321465  0.9465690234441336  0.6825002991556061  1.0000
  H   H34       1.0  0.4466227930168216  0.05174183740539458  0.3191741789908349  1.0000
  H   H35       1.0  0.18250889937041845  0.3191775067840937  0.05171760480539693  1.0000
  H   H36       1.0  0.8191642139651807  0.6824902017221743  0.9465816240077204  1.0000
  H   H37       1.0  0.8201622092805536  0.050972007776877735  0.9475083022219479  1.0000
  H   H38       1.0  0.18138328104632237  0.9474670064521362  0.05093520551114489  1.0000
  H   H39       1.0  0.550905697803124  0.32019815191452494  0.6814313302905363  1.0000
  H   H40       1.0  0.44749215647450313  0.6813881962372292  0.3201776560606717  1.0000
  C   C1        1.0  0.7318595214821287  0.509348570091866  0.7618554785277353  1.0000
  C   C2        1.0  0.9969693546143432  0.7618451797259382  0.5093077392044736  1.0000
  C   C3        1.0  0.26183388854047246  0.4969585196583425  0.2318576332028925  1.0000
  C   C4        1.0  0.00930376327404054  0.23188102034178834  0.4969546114057549  1.0000
  C   C5        1.0  0.007968507107577174  0.23255049762948946  0.7614345478027075  1.0000
  C   C6        1.0  0.7325593436926567  0.5080130322351832  0.4980207441146405  1.0000
  C   C7        1.0  0.9980369652724052  0.761409191661457  0.23254921562507053  1.0000
  C   C8        1.0  0.2614267313884113  0.4980354145533781  0.5079916626274753  1.0000
  C   C9        1.0  0.009449153765053979  0.4952370062698322  0.7622090592774667  1.0000
  C   C10       1.0  0.26221906073977397  0.23310645168733407  0.5094373325989139  1.0000
  C   C11       1.0  0.9952478353441736  0.5094469901463653  0.2330841337951315  1.0000
  C   C12       1.0  0.7330919018890327  0.7622224036837154  0.4952479934827211  1.0000
  C   C13       1.0  0.5956638948050142  0.45457304344409283  0.8978807586573224  1.0000
  C   C14       1.0  0.6126367754291593  0.5942553520502332  0.8818224821791815  1.0000
  C   C15       1.0  0.5331839289529013  0.6054162146057183  0.9619198999799891  1.0000
  C   C16       1.0  0.48019540481817574  0.5414866030078967  0.014021534783815197  1.0000
  C   C17       1.0  0.39788812905196386  0.5518767850649269  0.0956684896836536  1.0000
  C   C18       1.0  0.38181339298852635  0.4112802274498364  0.11265406558145943  1.0000
  C   C19       1.0  0.46191953717875117  0.3994648937275898  0.03319061515197335  1.0000
  C   C20       1.0  0.5140360150709712  0.4642632153077954  0.9801991109732312  1.0000
  C   C21       1.0  0.6444026143042408  0.5186390977269751  0.8490327643279797  1.0000
  C   C22       1.0  0.34904476623707137  0.4879127920764077  0.14443097087170287  1.0000
  C   C23       1.0  0.954546044318924  0.09566923788271693  0.5518936366444863  1.0000
  C   C24       1.0  0.0942416166254674  0.11265500255134954  0.4112757881920928  1.0000
  C   C25       1.0  0.10543668618941382  0.03318451756150859  0.39947619304123083  1.0000
  C   C26       1.0  0.041491923993426334  0.9801946531902034  0.46429904993672005  1.0000
  C   C27       1.0  0.051876657358803896  0.8979027525149733  0.45456789398876646  1.0000
  C   C28       1.0  0.9112598201134998  0.8818218782154617  0.5942404297048541  1.0000
  C   C29       1.0  0.8994630734444298  0.9619032792631756  0.6054230731385175  1.0000
  C   C30       1.0  0.9642565900765946  0.014031881710941588  0.5415001278345033  1.0000
  C   C31       1.0  0.01859909395229649  0.1444339985235389  0.487918666341443  1.0000
  C   C32       1.0  0.9879171997342837  0.8490421373923951  0.5185991006189851  1.0000
  C   C33       1.0  0.5979624655477168  0.8969631441337711  0.5515283784183396  1.0000
  C   C34       1.0  0.6125940806846017  0.8827860766879071  0.40803688398031573  1.0000
  C   C35       1.0  0.5319100828602217  0.9641463973127388  0.3964376575212257  1.0000
  C   C36       1.0  0.4801661845809165  0.015253557667350016  0.46299983484320245  1.0000
  C   C37       1.0  0.3969769815063414  0.09791775046896596  0.4535437723027087  1.0000
  C   C38       1.0  0.3827488388433338  0.11256090204713586  0.5966058920725033  1.0000
  C   C39       1.0  0.4641072868499236  0.031878322242526715  0.6075392940386379  1.0000
  C   C40       1.0  0.515273649695331  0.9801711015782145  0.5415688724936062  1.0000
  C   C41       1.0  0.6452782267809165  0.8494287578513494  0.4858968219388658  1.0000
  C   C42       1.0  0.3493734988975347  0.1452202469048416  0.519427405833369  1.0000
  C   C43       1.0  0.051528402269823914  0.4535740646384313  0.09792481463544084  1.0000
  C   C44       1.0  0.9080312103862836  0.5965981733095089  0.11258097512491365  1.0000
  C   C45       1.0  0.8964495853485276  0.6075371754941228  0.03187260523494468  1.0000
  C   C46       1.0  0.9629931296862612  0.5415744153297908  0.9801644494257573  1.0000
  C   C47       1.0  0.9535732001768267  0.5515417208173902  0.8969516657070997  1.0000
  C   C48       1.0  0.09661676980309854  0.4080607154896184  0.8827391203106315  1.0000
  C   C49       1.0  0.10753144730875859  0.3964560677441754  0.9641101653718067  1.0000
  C   C50       1.0  0.04157328445825211  0.4629943134825679  0.015255968648325824  1.0000
  C   C51       1.0  0.9859067757609595  0.5194163979103833  0.14525022682024502  1.0000
  C   C52       1.0  0.019444905264272363  0.48594363888113906  0.8493740734335943  1.0000
  C   C53       1.0  0.9530572219535005  0.09728506654916905  0.8968879362481272  1.0000
  C   C54       1.0  0.09486320034741874  0.1120917488708458  0.8825300355207728  1.0000
  C   C55       1.0  0.1065042887079881  0.03186208521135118  0.9636315000650199  1.0000
  C   C56       1.0  0.04178062454927559  0.9799252585106047  0.014928249967446966  1.0000
  C   C57       1.0  0.0527568007080602  0.8968707113894397  0.09729715229197207  1.0000
  C   C58       1.0  0.9105000202065058  0.8825325372133009  0.11211874403198872  1.0000
  C   C59       1.0  0.8979961823716069  0.9636272079460182  0.03188594675511766  1.0000
  C   C60       1.0  0.9633539240826821  0.014919186860048304  0.9799413386980761  1.0000
  C   C61       1.0  0.017894277195544855  0.14482906077524407  0.8489484621589724  1.0000
  C   C62       1.0  0.9883320484605989  0.8489302349757891  0.1448472274660302  1.0000
  C   C63       1.0  0.5973155831199719  0.45304510396469777  0.5527785192170711  1.0000
  C   C64       1.0  0.6121033318820325  0.5948646007715511  0.4105337195008829  1.0000
  C   C65       1.0  0.5318661857972912  0.6065105581599682  0.39802507074782056  1.0000
  C   C66       1.0  0.47994866200696146  0.5417636269839788  0.46336707019686674  1.0000
  C   C67       1.0  0.3969035114090859  0.5527420834807514  0.453052632447232  1.0000
  C   C68       1.0  0.3824882153114829  0.41054937963292565  0.5948990630577597  1.0000
  C   C69       1.0  0.463614959160587  0.3980053166162776  0.6065217547090853  1.0000
  C   C70       1.0  0.5149358343388073  0.4633485662987553  0.5418110135323815  1.0000
  C   C71       1.0  0.6448187339201183  0.5179080248865376  0.4883690394020945  1.0000
  C   C72       1.0  0.34894147839936096  0.4883345760234619  0.517894294137676  1.0000
  O   O1        1.0  0.7631510649827646  0.4407914937843885  0.7314629980501125  1.0000
  O   O2        1.0  0.06468013657817556  0.7314363323161714  0.44076968644657205  1.0000
  O   O3        1.0  0.23139473832847546  0.5646576284639978  0.26310749294884056  1.0000
  O   O4        1.0  0.9407763816650813  0.26312840054376335  0.5646625580708361  1.0000
  O   O5        1.0  0.07180043504789778  0.2697335623153663  0.7248733184449703  1.0000
  O   O6        1.0  0.7696928939110991  0.5718932715575135  0.43358119171860215  1.0000
  O   O7        1.0  0.9335740863230839  0.7248593782218293  0.269731411432254  1.0000
  O   O8        1.0  0.22489796635752402  0.4335504430048757  0.5717988756835339  1.0000
  O   O9        1.0  0.9397117773669877  0.5642248014904468  0.7308968233717863  1.0000
  O   O10       1.0  0.23083392407811232  0.26519069805029  0.4397323270121091  1.0000
  O   O11       1.0  0.06426185957560895  0.439720285312042  0.26513722010682983  1.0000
  O   O12       1.0  0.7651632238586287  0.7308491286887744  0.5642561278385969  1.0000
  O   O13       1.0  0.2254430923979882  0.27147458188010637  0.5734492533342602  1.0000
  O   O14       1.0  0.9296446809146275  0.573427959476092  0.2714826660459836  1.0000
  O   O15       1.0  0.7714763185654833  0.7254162671988026  0.4296593088116581  1.0000
  O   O16       1.0  0.07344945776712568  0.4296270148650694  0.7254366988067174  1.0000
  O   O17       1.0  0.93786190354259  0.26545644924777884  0.7298228302175006  1.0000
  O   O18       1.0  0.22979001897238777  0.5668477261954193  0.437907591301908  1.0000
  O   O19       1.0  0.06683733152998877  0.7298015083347167  0.26544923532077996  1.0000
  O   O20       1.0  0.7654335212069512  0.43794093703384357  0.5668545139939526  1.0000
  O   O21       1.0  0.07295652208595269  0.27008713168137183  0.4323017316611768  1.0000
  O   O22       1.0  0.7700282102168645  0.5730310407089261  0.724605171790685  1.0000
  O   O23       1.0  0.9323635589678364  0.7245897323232882  0.5729811646547772  1.0000
  O   O24       1.0  0.2246230257847089  0.4323099744248823  0.2700409534977126  1.0000
  O   O25       1.0  0.9412254751865137  0.4411568740844627  0.4416946738929468  1.0000
  O   O26       1.0  0.17594312902049578  0.44168446877768014  0.44110931657179714  1.0000
  O   O27       1.0  0.9417151183021634  0.6759090538814049  0.4412459041427611  1.0000
  O   O28       1.0  0.9411172435066602  0.44124113187549335  0.675921467529875  1.0000
  O   O29       1.0  0.04311148448979191  0.5439893910328736  0.5424023442643815  1.0000
  O   O30       1.0  0.8704650383270548  0.5424256558286091  0.5440239497261105  1.0000
  O   O31       1.0  0.04402085442160336  0.5430719480671087  0.37050106230158514  1.0000
  O   O32       1.0  0.04237026415843556  0.37056388433633464  0.5430707579099233  1.0000
  O   O33       1.0  0.4892039899359659  0.32331854455807724  0.0074777316470217925  1.0000
  O   O34       1.0  0.507487607051928  0.6799597275154668  0.9892367870481349  1.0000
  O   O35       1.0  0.8232942083706188  0.9892155340763369  0.679994411288419  1.0000
  O   O36       1.0  0.18001677969415655  0.007455256171958563  0.32332310110083273  1.0000
  O   O37       1.0  0.4936138070866178  0.0037660088436908537  0.6828488584944736  1.0000
  O   O38       1.0  0.5037644033891837  0.9935721891573408  0.3197872300107249  1.0000
  O   O39       1.0  0.182874697064484  0.31976079328615736  0.9935864557685717  1.0000
  O   O40       1.0  0.819774465611296  0.6829053710909391  0.003726952564534334  1.0000
  O   O41       1.0  0.8211831143246329  0.9928635969018628  0.004134326695265164  1.0000
  O   O42       1.0  0.18182608816631776  0.004119351195946362  0.9928706352615321  1.0000
  O   O43       1.0  0.4928361847115923  0.3211894637843428  0.6818569978582332  1.0000
  O   O44       1.0  0.5041227862681552  0.6818254910145428  0.32120072440367414  1.0000
