data_image0
_chemical_formula_structural       Ba2H44C28N8O2
_chemical_formula_sum              "Ba2 H44 C28 N8 O2"
_cell_length_a       8.48665192392881
_cell_length_b       9.729608711457649
_cell_length_c       10.681613537517224
_cell_angle_alpha    65.16224302684665
_cell_angle_beta     79.79335807328768
_cell_angle_gamma    76.14178406929861

_space_group_name_H-M_alt    "P 1"
_space_group_IT_number       1

loop_
  _space_group_symop_operation_xyz
  'x, y, z'

loop_
  _atom_site_type_symbol
  _atom_site_label
  _atom_site_symmetry_multiplicity
  _atom_site_fract_x
  _atom_site_fract_y
  _atom_site_fract_z
  _atom_site_occupancy
  Ba  Ba1       1.0  0.2562644115429007  0.9876661659280191  0.00807228153828982  1.0000
  Ba  Ba2       1.0  0.7437341397224699  0.012342068502512408  0.9919241585036782  1.0000
  H   H1        1.0  0.7557644305086696  0.48108716091918785  0.6792285250323854  1.0000
  H   H2        1.0  0.24423031981377352  0.5189163213437596  0.32077394111992397  1.0000
  H   H3        1.0  0.9890240686316647  0.34626405691700074  0.48788655087736976  1.0000
  H   H4        1.0  0.010981660640730636  0.6537281570308123  0.512112151335529  1.0000
  H   H5        1.0  0.8577798020792001  0.21032383491085943  0.5567883084479062  1.0000
  H   H6        1.0  0.14222506912928162  0.7896717807696875  0.4432157837361499  1.0000
  H   H7        1.0  0.06854811324895849  0.14779102594278024  0.5794094059994277  1.0000
  H   H8        1.0  0.9314522175948027  0.852213679637231  0.42060029672414573  1.0000
  H   H9        1.0  0.7224819286337831  0.5465714429198557  0.9086393170062687  1.0000
  H   H10       1.0  0.2775081104692703  0.4534319574611061  0.09136005183395213  1.0000
  H   H11       1.0  0.8714684905942462  0.43949909670777754  0.029933966489743048  1.0000
  H   H12       1.0  0.12852588603139029  0.560500932280718  0.9700660992212273  1.0000
  H   H13       1.0  0.6894756119181338  0.37102945254735437  0.04755773610190764  1.0000
  H   H14       1.0  0.31051227216639865  0.6289727237856085  0.9524442468667967  1.0000
  H   H15       1.0  0.6704927780944416  0.7837471556305716  0.5757996433455685  1.0000
  H   H16       1.0  0.32950917772058114  0.2162344866612003  0.4242110101053881  1.0000
  H   H17       1.0  0.2949223188224294  0.7475793145181414  0.6909438480370509  1.0000
  H   H18       1.0  0.7050829563269899  0.2524035645243288  0.3090659065779063  1.0000
  H   H19       1.0  0.31310867836759115  0.9327776876544721  0.5610349098634512  1.0000
  H   H20       1.0  0.6869066901823047  0.06720314429405512  0.438970545655536  1.0000
  H   H21       1.0  0.2152419164052616  0.9133132320074112  0.7281182483431788  1.0000
  H   H22       1.0  0.7847601203435558  0.0866684568911822  0.2718867593210134  1.0000
  H   H23       1.0  0.9702835829046278  0.8801360407993786  0.6446148908825787  1.0000
  H   H24       1.0  0.02972863615030258  0.11986439622805281  0.35538455721074763  1.0000
  H   H25       1.0  0.970366820775645  0.6820829493301233  0.7452291499286046  1.0000
  H   H26       1.0  0.029636336555959975  0.3179149344158958  0.2547752520029717  1.0000
  H   H27       1.0  0.9586028218016976  0.8085759819251735  0.8283943755146408  1.0000
  H   H28       1.0  0.04140108517446349  0.19142427296974776  0.17160435710482594  1.0000
  H   H29       1.0  0.4968781014506546  0.43013131657330217  0.8033989487425043  1.0000
  H   H30       1.0  0.5031256049343257  0.5698701214286217  0.19659562109243472  1.0000
  H   H31       1.0  0.3422683884762492  0.34358099427979755  0.9305313944016685  1.0000
  H   H32       1.0  0.6577309399192399  0.6564237918111717  0.06946530145589934  1.0000
  H   H33       1.0  0.6098964501149806  0.2960303784819446  0.634705782586941  1.0000
  H   H34       1.0  0.3901022640332458  0.7039662791140984  0.36529497999477895  1.0000
  H   H35       1.0  0.5212655483344121  0.1326108957047865  0.6666627058437552  1.0000
  H   H36       1.0  0.4787251589717625  0.8674006642423181  0.33332883241447314  1.0000
  H   H37       1.0  0.25872698746613304  0.29469569585059935  0.6073390454389905  1.0000
  H   H38       1.0  0.7412695948676953  0.7053217937052594  0.3926494983671771  1.0000
  H   H39       1.0  0.3792391996668201  0.43651302833882977  0.5059614763504993  1.0000
  H   H40       1.0  0.6207642763904744  0.5634999476585563  0.49403347576698997  1.0000
  H   H41       1.0  0.15665654714477023  0.42094792541362847  0.7543224557572186  1.0000
  H   H42       1.0  0.8433502105385885  0.5790558936069772  0.24567175727949572  1.0000
  H   H43       1.0  0.27670456793561016  0.5640891125989499  0.659983296951971  1.0000
  H   H44       1.0  0.7232904369338796  0.4359132176282118  0.34001956812702616  1.0000
  C   C1        1.0  0.9394518547497058  0.2630991702723833  0.7097003356902573  1.0000
  C   C2        1.0  0.06054625537402806  0.7369055720446769  0.2902984087326741  1.0000
  C   C3        1.0  0.8359051161379584  0.3808802722842658  0.744415355669346  1.0000
  C   C4        1.0  0.164082499910556  0.6191230483166735  0.2555871693371257  1.0000
  C   C5        1.0  0.8636358962550048  0.3457874957146956  0.8813946442529212  1.0000
  C   C6        1.0  0.136358466881667  0.6542125255060046  0.11860636242251113  1.0000
  C   C7        1.0  0.9648470718417176  0.24091400071969102  0.5768100425148645  1.0000
  C   C8        1.0  0.03515032910436842  0.759088393751881  0.423191548326791  1.0000
  C   C9        1.0  0.78283688917638  0.43009936062382087  0.9717638596433812  1.0000
  C   C10       1.0  0.21715167710787134  0.5699051480190179  0.028237158835501847  1.0000
  C   C11       1.0  0.47549981040647527  0.8517249906563225  0.7206160528588083  1.0000
  C   C12       1.0  0.5245026135281137  0.14826015928453276  0.27939041428226813  1.0000
  C   C13       1.0  0.6344868212303892  0.814855222927477  0.6644903734018539  1.0000
  C   C14       1.0  0.3655196986610819  0.1851335504485832  0.33550764366218977  1.0000
  C   C15       1.0  0.7360986890461804  0.8272419981294166  0.7482611099520465  1.0000
  C   C16       1.0  0.26390656884044716  0.1727629136174542  0.2517366346522607  1.0000
  C   C17       1.0  0.3167261715670761  0.8617080298650635  0.6727002602451077  1.0000
  C   C18       1.0  0.6832839496914003  0.13827500873744472  0.32730318203734027  1.0000
  C   C19       1.0  0.9176935519554018  0.7987407350614077  0.7409892438927412  1.0000
  C   C20       1.0  0.08230700820080021  0.20126410257127963  0.2590044624350155  1.0000
  C   C21       1.0  0.3986784542643491  0.3645529905158114  0.8253322051980516  1.0000
  C   C22       1.0  0.6013254392228475  0.6354472566113076  0.17466746838587693  1.0000
  C   C23       1.0  0.5000955591936885  0.2435582967478425  0.6759831915819203  1.0000
  C   C24       1.0  0.4998939843042364  0.7564474154724936  0.32401443844045724  1.0000
  C   C25       1.0  0.348472549137341  0.3565827007019351  0.6116910269217398  1.0000
  C   C26       1.0  0.6515285578212867  0.6434302265866593  0.38830331750416747  1.0000
  C   C27       1.0  0.2808390287272858  0.4393930534240696  0.7115325348812787  1.0000
  C   C28       1.0  0.7191600316321926  0.5606128769348901  0.28846470301406396  1.0000
  N   N1        1.0  0.024412798914106294  0.16395339478291504  0.8193771223373498  1.0000
  N   N2        1.0  0.9755869846196104  0.8360490561652584  0.1806241352314331  1.0000
  N   N3        1.0  0.9779342876011513  0.21525887094137633  0.9258475110288626  1.0000
  N   N4        1.0  0.02206501381640172  0.7847458996139879  0.07415106675762924  1.0000
  N   N5        1.0  0.481995193094967  0.8831206759994574  0.831666973909229  1.0000
  N   N6        1.0  0.5180071354016036  0.11687608961490532  0.16833046586979344  1.0000
  N   N7        1.0  0.643097606935349  0.8688937197460478  0.8483062198092736  1.0000
  N   N8        1.0  0.3569014804020582  0.1311122261485167  0.15168913615714527  1.0000
  O   O1        1.0  0.4711115515009253  0.21394740602620735  0.822628102176253  1.0000
  O   O2        1.0  0.5288806835951692  0.7860514066820914  0.17737363669873918  1.0000
