data_image0
_chemical_formula_structural       Cu4H12C16Br4N8
_chemical_formula_sum              "Cu4 H12 C16 Br4 N8"
_cell_length_a       5.1595287760045725
_cell_length_b       6.8460489185637545
_cell_length_c       15.308342740517116
_cell_angle_alpha    90.00022002941589
_cell_angle_beta     90.0009392616774
_cell_angle_gamma    100.97795850276889

_space_group_name_H-M_alt    "P 1"
_space_group_IT_number       1

loop_
  _space_group_symop_operation_xyz
  'x, y, z'

loop_
  _atom_site_type_symbol
  _atom_site_label
  _atom_site_symmetry_multiplicity
  _atom_site_fract_x
  _atom_site_fract_y
  _atom_site_fract_z
  _atom_site_occupancy
  Cu  Cu1       1.0  0.9439476609996121  0.7900838065567014  0.2468169901855859  1.0000
  Cu  Cu2       1.0  0.0560717356760208  0.7099238770987383  0.7468243984573988  1.0000
  Cu  Cu3       1.0  0.056071073504988106  0.20991212032569706  0.7531849360154723  1.0000
  Cu  Cu4       1.0  0.9439238069726913  0.2900838315395617  0.2531788341449328  1.0000
  H   H1        1.0  0.35297818736017206  0.27478277638699916  0.38195632425753706  1.0000
  H   H2        1.0  0.6470392158273269  0.22521975103485659  0.8819591657798753  1.0000
  H   H3        1.0  0.647062987620572  0.7252391786382119  0.6180344969646326  1.0000
  H   H4        1.0  0.35300926795912363  0.774783694095362  0.11804667995206591  1.0000
  H   H5        1.0  0.3573186925773726  0.8027782871059798  0.5405849238759329  1.0000
  H   H6        1.0  0.6426472841389738  0.6972088965909862  0.0405807245783976  1.0000
  H   H7        1.0  0.6426737148564213  0.19721447622551116  0.45942288138463994  1.0000
  H   H8        1.0  0.3573034168107442  0.30277545926967525  0.9594146690100516  1.0000
  H   H9        1.0  0.0691420358450188  0.9016107426770645  0.4246556864575695  1.0000
  H   H10       1.0  0.9308307924858498  0.5983720733417355  0.9246577752552128  1.0000
  H   H11       1.0  0.9308683814591774  0.09840072509254578  0.5753501591487833  1.0000
  H   H12       1.0  0.06910802042334302  0.40158872725054817  0.0753389247687437  1.0000
  C   C1        1.0  0.3013486829028338  0.41825642994925255  0.3972190855506739  1.0000
  C   C2        1.0  0.6986571568555604  0.08175614470392387  0.897222896306502  1.0000
  C   C3        1.0  0.6986847481710471  0.5817598843883971  0.602773042122422  1.0000
  C   C4        1.0  0.30135358669807744  0.9182734359637693  0.1027672715768091  1.0000
  C   C5        1.0  0.4036141142566692  0.531675256471253  0.47063430598717565  1.0000
  C   C6        1.0  0.5963821950868322  0.9683316595806345  0.9706322838424128  1.0000
  C   C7        1.0  0.5964071422318256  0.4683280934371652  0.5293650072686447  1.0000
  C   C8        1.0  0.4035837072190774  0.031674568538669186  0.0293702954228436  1.0000
  C   C9        1.0  0.30675931216874364  0.7068846880101274  0.483838565388048  1.0000
  C   C10       1.0  0.6932222068220996  0.7931172833764393  0.9838436858955361  1.0000
  C   C11       1.0  0.6932530139174348  0.2931266805194994  0.5161679334632083  1.0000
  C   C12       1.0  0.30674376458728864  0.2068662786679099  0.0161660789921712  1.0000
  C   C13       1.0  0.1435066518947536  0.7630483148089482  0.4205973491136135  1.0000
  C   C14       1.0  0.8564973667067833  0.7369524189790724  0.9205930910218568  1.0000
  C   C15       1.0  0.8564974257305735  0.23695592834804555  0.5794039238010029  1.0000
  C   C16       1.0  0.1434847742394254  0.2630272803356277  0.0793918508532983  1.0000
  Br  Br1       1.0  0.6601129037138947  0.005920758181503105  0.3219070560733499  1.0000
  Br  Br2       1.0  0.33987459617571153  0.4940803145570101  0.8219170542017267  1.0000
  Br  Br3       1.0  0.3398800080992146  0.994073489746313  0.6780994427118756  1.0000
  Br  Br4       1.0  0.6601007413194182  0.5059193797444905  0.1780953236728635  1.0000
  N   N1        1.0  0.06836232695643225  0.6568220372575837  0.34823523993561883  1.0000
  N   N2        1.0  0.9316458841279527  0.8431645858666598  0.8482406456962791  1.0000
  N   N3        1.0  0.9316452814259578  0.3431925981254835  0.6517614603216515  1.0000
  N   N4        1.0  0.06835394014807149  0.1568157048401702  0.1517449494761891  1.0000
  N   N5        1.0  0.1349263098712044  0.47575885712760885  0.3394487319484583  1.0000
  N   N6        1.0  0.8650957162498117  0.0242333039705613  0.8394536366895126  1.0000
  N   N7        1.0  0.8650798942249693  0.5242573621509337  0.6605512344971771  1.0000
  N   N8        1.0  0.13493043554827727  0.9757501505164329  0.16054632981927597  1.0000
