data_image0
_chemical_formula_structural       Zn2H38C30N10O12
_chemical_formula_sum              "Zn2 H38 C30 N10 O12"
_cell_length_a       8.689531381001363
_cell_length_b       9.586028089028959
_cell_length_c       11.899753510542167
_cell_angle_alpha    110.85344108504209
_cell_angle_beta     90.00000558741439
_cell_angle_gamma    89.99993807278078

_space_group_name_H-M_alt    "P 1"
_space_group_IT_number       1

loop_
  _space_group_symop_operation_xyz
  'x, y, z'

loop_
  _atom_site_type_symbol
  _atom_site_label
  _atom_site_symmetry_multiplicity
  _atom_site_fract_x
  _atom_site_fract_y
  _atom_site_fract_z
  _atom_site_occupancy
  Zn  Zn1       1.0  0.6211680122249704  0.21404503267095984  0.0823698437337654  1.0000
  Zn  Zn2       1.0  0.1211683802885304  0.7859541226298318  0.9176302129449071  1.0000
  H   H1        1.0  0.6411712291277709  0.5789190415612423  0.91317674671199  1.0000
  H   H2        1.0  0.1411707729816385  0.4210800892746889  0.08682246403986944  1.0000
  H   H3        1.0  0.6122594574580945  0.4595564681359364  0.2730863273871336  1.0000
  H   H4        1.0  0.11226124474739411  0.5404438131106559  0.7269140494090323  1.0000
  H   H5        1.0  0.4775514559560747  0.3463789743435299  0.2828531275376207  1.0000
  H   H6        1.0  0.9775529476769336  0.6536209087884828  0.7171463210345479  1.0000
  H   H7        1.0  0.812399202812202  0.3756954586309789  0.5554871087023372  1.0000
  H   H8        1.0  0.3123997016907509  0.6243057138868692  0.4445110149086275  1.0000
  H   H9        1.0  0.612391518481104  0.9199478463782568  0.16959726007302578  1.0000
  H   H10       1.0  0.112389266793322  0.0800546701593134  0.8304045938401642  1.0000
  H   H11       1.0  0.9770501327924063  0.5293635836860416  0.9412595695419412  1.0000
  H   H12       1.0  0.47704961367138304  0.4706363056277638  0.05874156146850852  1.0000
  H   H13       1.0  0.9326820765971036  0.0744121805110325  0.9751436410597236  1.0000
  H   H14       1.0  0.43268215972316426  0.925587751176515  0.02485581820690906  1.0000
  H   H15       1.0  0.5466932785621382  0.38536633535348847  0.7007159681291526  1.0000
  H   H16       1.0  0.046690317390726904  0.6146328949026909  0.2992824239818788  1.0000
  H   H17       1.0  0.5940087250694078  0.5677052615655996  0.7088414117953334  1.0000
  H   H18       1.0  0.09400713169774383  0.4322939203071953  0.291157810197511  1.0000
  H   H19       1.0  0.7413341853924891  0.6571299773482265  0.1432464610183715  1.0000
  H   H20       1.0  0.24133507530852683  0.3428690507352385  0.8567544081787589  1.0000
  H   H21       1.0  0.9438410682586282  0.6744500847081695  0.1493946407528242  1.0000
  H   H22       1.0  0.4438419780760299  0.3255487242352899  0.8506061801782252  1.0000
  H   H23       1.0  0.7999232718885735  0.3515774468192348  0.3488926772695535  1.0000
  H   H24       1.0  0.2999237692184309  0.6484226285311789  0.6511068136391459  1.0000
  H   H25       1.0  0.6894571121652646  0.18703842073731644  0.32032286895060486  1.0000
  H   H26       1.0  0.18945856730313443  0.812962893277394  0.6796778074404558  1.0000
  H   H27       1.0  0.8268555156157973  0.6341147932613184  0.4274510206983067  1.0000
  H   H28       1.0  0.32685749126981284  0.36588525858213927  0.5725501461096698  1.0000
  H   H29       1.0  0.5936460669158309  0.7831551671160497  0.3431124747568646  1.0000
  H   H30       1.0  0.0936470811430894  0.21684401796687774  0.6568875884813822  1.0000
  H   H31       1.0  0.788042012646102  0.8484783888465159  0.36085088242935365  1.0000
  H   H32       1.0  0.2880431026514785  0.1515205858735129  0.6391491344759928  1.0000
  H   H33       1.0  0.47541869529307235  0.9169797626017483  0.7604356483932762  1.0000
  H   H34       1.0  0.9754196555004669  0.08302459370189298  0.2395667549833291  1.0000
  H   H35       1.0  0.837049739268572  0.06828147375857443  0.5777398699358969  1.0000
  H   H36       1.0  0.3370487167555325  0.9317174451104717  0.42225929412978047  1.0000
  H   H37       1.0  0.6921017337383403  0.1391418890244722  0.7964200364570218  1.0000
  H   H38       1.0  0.19209846545620482  0.8608605356181442  0.20358011613937077  1.0000
  C   C1        1.0  0.7126236165896459  0.9212986429118218  0.11544461753034346  1.0000
  C   C2        1.0  0.212622524483038  0.0787015353668608  0.8845574176636363  1.0000
  C   C3        1.0  0.8606077207850122  0.5320681980804594  0.9775585903686875  1.0000
  C   C4        1.0  0.36060720010345193  0.467930698114472  0.02244140924133122  1.0000
  C   C5        1.0  0.8415319117220434  0.3952287344479473  0.015035005181296416  1.0000
  C   C6        1.0  0.3415313545524441  0.6047713015150293  0.9849661581289625  1.0000
  C   C7        1.0  0.8256366765170071  0.8143746323195343  0.07210746689973752  1.0000
  C   C8        1.0  0.3256366130730513  0.1856254180248769  0.9278928590397086  1.0000
  C   C9        1.0  0.605832248808767  0.3717997255180733  0.46954171002487044  1.0000
  C   C10       1.0  0.10582930195401731  0.6281994463798879  0.5304583503093595  1.0000
  C   C11       1.0  0.7743683501188343  0.4548828511317352  0.7707005317388322  1.0000
  C   C12       1.0  0.27436776445815514  0.5451161355668647  0.229298647266461  1.0000
  C   C13       1.0  0.8752761993230891  0.00128714574344  0.0134989374707999  1.0000
  C   C14       1.0  0.3752763220438026  0.9987117373969596  0.9865018998022919  1.0000
  C   C15       1.0  0.6410504535690364  0.45443741506531427  0.6870195408607387  1.0000
  C   C16       1.0  0.1410487276208698  0.5455617159020039  0.3129796699200612  1.0000
  C   C17       1.0  0.8427032765968933  0.6709920918936304  0.09291834065179931  1.0000
  C   C18       1.0  0.34270418973999744  0.3290068264946766  0.907082504384725  1.0000
  C   C19       1.0  0.6823001531997122  0.30916136261728167  0.3465025683893046  1.0000
  C   C20       1.0  0.18230175092898554  0.6908388400167454  0.653496950553901  1.0000
  C   C21       1.0  0.7000798840200063  0.7900779396657783  0.3948495753393147  1.0000
  C   C22       1.0  0.2000820505000931  0.20992336567235978  0.6051519396790752  1.0000
  C   C23       1.0  0.6754191300683772  0.880421192446228  0.523911864873952  1.0000
  C   C24       1.0  0.175419085921618  0.1195790204539975  0.47608849686877625  1.0000
  C   C25       1.0  0.5586636742333299  0.9379090988830542  0.7004372449122871  1.0000
  C   C26       1.0  0.058663675514942795  0.06209347297503602  0.2995637806470057  1.0000
  C   C27       1.0  0.7438491239669602  0.007549188550214599  0.6004631308338801  1.0000
  C   C28       1.0  0.24384802582016357  0.9924509503000177  0.3995372145991637  1.0000
  C   C29       1.0  0.6680579102607497  0.0451504269882506  0.7145255399523621  1.0000
  C   C30       1.0  0.1680556912021771  0.954850907366193  0.2854743003802085  1.0000
  N   N1        1.0  0.7500701070936842  0.5341976413590928  0.8871630109832297  1.0000
  N   N2        1.0  0.2500696009005381  0.46580249357797493  0.11283817412629563  1.0000
  N   N3        1.0  0.7453313137631384  0.0394207673987097  0.0784269489921101  1.0000
  N   N4        1.0  0.2453314735100706  0.9605793698469112  0.9215733960875172  1.0000
  N   N5        1.0  0.9280598858674124  0.866482991154754  0.006860224451159559  1.0000
  N   N6        1.0  0.4280598933617484  0.13351583486657861  0.9931406002413327  1.0000
  N   N7        1.0  0.5905966746796452  0.3483250534475815  0.2579094089913454  1.0000
  N   N8        1.0  0.09059718013988062  0.6516752512417836  0.7420909729681355  1.0000
  N   N9        1.0  0.6965862719586583  0.39537808238532796  0.5647091685626223  1.0000
  N   N10       1.0  0.19658679315777053  0.6046232210960625  0.43529066497008273  1.0000
  O   O1        1.0  0.7065903280095682  0.33529574515780775  0.9946810903923834  1.0000
  O   O2        1.0  0.20659187136137552  0.6647033148846759  0.0053181047670633995  1.0000
  O   O3        1.0  0.895949168231553  0.3859912772726802  0.7295114939157373  1.0000
  O   O4        1.0  0.39594965643313174  0.6140086998028595  0.2704896564244309  1.0000
  O   O5        1.0  0.9491879170031083  0.3554741163404742  0.06673878603670151  1.0000
  O   O6        1.0  0.44918730545937546  0.6445258003049831  0.933261510455239  1.0000
  O   O7        1.0  0.4633343324085288  0.3949234562052482  0.4762733418392743  1.0000
  O   O8        1.0  0.9633347058195268  0.6050797940502334  0.523727905263975  1.0000
  O   O9        1.0  0.7432318978249909  0.6377631402623151  0.3716511231814437  1.0000
  O   O10       1.0  0.24323273440458595  0.36223588576759613  0.6283497455633907  1.0000
  O   O11       1.0  0.5602138683333067  0.8365222432291047  0.5845353127210444  1.0000
  O   O12       1.0  0.0602137636762734  0.163480324132415  0.41546487130950993  1.0000
