data_image0
_chemical_formula_structural       Pr4Ag4H24C48N16O32
_chemical_formula_sum              "Pr4 Ag4 H24 C48 N16 O32"
_cell_length_a       8.079263173509505
_cell_length_b       10.161950070179625
_cell_length_c       18.972340709007323
_cell_angle_alpha    90.00008371354403
_cell_angle_beta     90.00004749252348
_cell_angle_gamma    95.61020873254022

_space_group_name_H-M_alt    "P 1"
_space_group_IT_number       1

loop_
  _space_group_symop_operation_xyz
  'x, y, z'

loop_
  _atom_site_type_symbol
  _atom_site_label
  _atom_site_symmetry_multiplicity
  _atom_site_fract_x
  _atom_site_fract_y
  _atom_site_fract_z
  _atom_site_occupancy
  Pr  Pr1       1.0  0.259778135626398  0.6529388286703294  0.10548016965590529  1.0000
  Pr  Pr2       1.0  0.2402199251463699  0.3470600913105173  0.6054826632847252  1.0000
  Pr  Pr3       1.0  0.7402176912839877  0.3470597905225005  0.8945177254892016  1.0000
  Pr  Pr4       1.0  0.7597796152993295  0.6529385304988296  0.3945205026919538  1.0000
  Ag  Ag1       1.0  0.39642575348980796  0.8397725271319769  0.9222260884901701  1.0000
  Ag  Ag2       1.0  0.1035727950568841  0.1602253362331538  0.4222268437660617  1.0000
  Ag  Ag3       1.0  0.603572549107959  0.16022609380162575  0.077772860821554  1.0000
  Ag  Ag4       1.0  0.8964253870475005  0.8397722959036856  0.5777736867945364  1.0000
  H   H1        1.0  0.2995639730836288  0.3024804421240717  0.15220490153200217  1.0000
  H   H2        1.0  0.20043531253815416  0.6975176257828506  0.6522050198407214  1.0000
  H   H3        1.0  0.7004340885243393  0.6975162012121741  0.847794574862  1.0000
  H   H4        1.0  0.7995642279039075  0.30248099602190587  0.3477949836374066  1.0000
  H   H5        1.0  0.8174582238375192  0.6885723243364479  0.0878077131969164  1.0000
  H   H6        1.0  0.6825436899245287  0.3114280747521575  0.5878075231417839  1.0000
  H   H7        1.0  0.18254279543863555  0.31142827593680517  0.9121928173653373  1.0000
  H   H8        1.0  0.3174584466982964  0.6885715375901285  0.4121919532541014  1.0000
  H   H9        1.0  0.1216617322578202  0.45746629656065335  0.3793814328611731  1.0000
  H   H10       1.0  0.3783393138922122  0.5425324327639129  0.8793809657428754  1.0000
  H   H11       1.0  0.8783391665219183  0.5425333149120064  0.6206180435344847  1.0000
  H   H12       1.0  0.621661464392332  0.4574661899096881  0.1206185106523847  1.0000
  H   H13       1.0  0.262412487950442  0.14836038736547147  0.256861399226409  1.0000
  H   H14       1.0  0.2375871589588741  0.8516389736439578  0.7568611241557761  1.0000
  H   H15       1.0  0.7375858146485326  0.8516382335696588  0.7431386042514987  1.0000
  H   H16       1.0  0.7624137398208717  0.14836063782870207  0.24313835223988886  1.0000
  H   H17       1.0  0.013992001086492695  0.15682895589080909  0.08416785441763609  1.0000
  H   H18       1.0  0.48600872732516354  0.8431718814555965  0.5841681876392997  1.0000
  H   H19       1.0  0.9860077803447566  0.8431716435105373  0.9158310948951254  1.0000
  H   H20       1.0  0.5139910541073006  0.15682871794727754  0.4158318158396454  1.0000
  H   H21       1.0  0.6168358985048386  0.8632835327937157  0.0774463466491326  1.0000
  H   H22       1.0  0.8831646330795023  0.13671584649893015  0.5774460908508485  1.0000
  H   H23       1.0  0.3831637624324243  0.13671607781009235  0.9225536568294004  1.0000
  H   H24       1.0  0.1168373830487255  0.8632827770450576  0.42255391262771974  1.0000
  C   C1        1.0  0.1675329052380263  0.5039204821805184  0.2699126259666045  1.0000
  C   C2        1.0  0.33246788904703806  0.4960779288474554  0.7699121062886221  1.0000
  C   C3        1.0  0.8324705897236839  0.4960801198312053  0.7300873775130015  1.0000
  C   C4        1.0  0.6675328892374993  0.5039206938261456  0.23008737010663077  1.0000
  C   C5        1.0  0.2586260868600688  0.336721586436738  0.2031959801572611  1.0000
  C   C6        1.0  0.24137331608154258  0.6632766297341561  0.7031960861536318  1.0000
  C   C7        1.0  0.7413733330867911  0.6632760465689528  0.7968040233204547  1.0000
  C   C8        1.0  0.7586262243599151  0.336721992069826  0.2968033902414078  1.0000
  C   C9        1.0  0.07995014567064371  0.9550525810663332  0.09055378995924458  1.0000
  C   C10       1.0  0.4200505974329758  0.04494827484717229  0.5905534754125412  1.0000
  C   C11       1.0  0.9200509940994973  0.044949008004458293  0.9094456864372374  1.0000
  C   C12       1.0  0.5799490635036832  0.9550513357558756  0.4094460009828964  1.0000
  C   C13       1.0  0.8613076195532372  0.7932615148565456  0.0869354393808166  1.0000
  C   C14       1.0  0.6386931748538913  0.2067398696251032  0.5869351519241377  1.0000
  C   C15       1.0  0.13869228237442846  0.20674007334539368  0.9130645640985334  1.0000
  C   C16       1.0  0.3613078444210487  0.7932607306466223  0.4130643244719323  1.0000
  C   C17       1.0  0.10766430698577518  0.6404979957878891  0.27295499241088084  1.0000
  C   C18       1.0  0.39233773214395024  0.359500424958  0.7729559683058369  1.0000
  C   C19       1.0  0.8923390674789146  0.3595016174224738  0.7270434298190409  1.0000
  C   C20       1.0  0.6076642839842847  0.6404981985859874  0.2270440351727245  1.0000
  C   C21       1.0  0.2663072646975451  0.9880503482045382  0.0918957893629369  1.0000
  C   C22       1.0  0.23369224365114857  0.011950510742032296  0.5918959101952836  1.0000
  C   C23       1.0  0.7336923962391139  0.011949262398509599  0.9081036870325008  1.0000
  C   C24       1.0  0.7663076582765099  0.9880510774598998  0.4081040932840736  1.0000
  C   C25       1.0  0.956867931158385  0.4622713905850587  0.0320585977861185  1.0000
  C   C26       1.0  0.5431319482336505  0.537743675779815  0.5320569542308462  1.0000
  C   C27       1.0  0.04312698651071398  0.5377400812655252  0.9679456223609505  1.0000
  C   C28       1.0  0.4568698816184308  0.4622737332086259  0.4679441034212245  1.0000
  C   C29       1.0  0.4565295508924336  0.43243639854689764  0.0131504459116272  1.0000
  C   C30       1.0  0.043474607157804684  0.567563246116819  0.5131514612259878  1.0000
  C   C31       1.0  0.5434724652351904  0.5675622249963226  0.986849030483846  1.0000
  C   C32       1.0  0.9565337186822518  0.4324363705758498  0.4868495964202637  1.0000
  C   C33       1.0  0.15848138687805857  0.4209679905161464  0.3285890629506127  1.0000
  C   C34       1.0  0.34151942191474655  0.5790296023239278  0.828589138449189  1.0000
  C   C35       1.0  0.8415206292495654  0.5790306330270737  0.6714104134448676  1.0000
  C   C36       1.0  0.6584812358752004  0.42096803155137485  0.1714108650287471  1.0000
  C   C37       1.0  0.2389646690691976  0.2520422658110774  0.26127417528095254  1.0000
  C   C38       1.0  0.2610361053407927  0.7479561200995944  0.7612738273905248  1.0000
  C   C39       1.0  0.7610359887207422  0.7479553680642324  0.7387258281969906  1.0000
  C   C40       1.0  0.7389646729437446  0.2520425025740067  0.2387256490047349  1.0000
  C   C41       1.0  0.9692436192541223  0.0520655199981519  0.0855373441850276  1.0000
  C   C42       1.0  0.5307559340938255  0.9479358595494954  0.5855375984006841  1.0000
  C   C43       1.0  0.03075628267293948  0.9479360682030132  0.9144621322112343  1.0000
  C   C44       1.0  0.4692426094955593  0.0520647389837663  0.4144624050780407  1.0000
  C   C45       1.0  0.7501978444446564  0.8894031581009327  0.081316224502153  1.0000
  C   C46       1.0  0.7498028165385903  0.11059722124291224  0.5813159011185575  1.0000
  C   C47       1.0  0.249801936987204  0.11059744130118078  0.9186832518936968  1.0000
  C   C48       1.0  0.2501979617459468  0.8894014014306887  0.4186835752766953  1.0000
  N   N1        1.0  0.22352301384526635  0.46282426346263605  0.2078243399057556  1.0000
  N   N2        1.0  0.2764763997445242  0.5371739661649997  0.7078238325806295  1.0000
  N   N3        1.0  0.7764790022823505  0.5371743600805843  0.7921751364897176  1.0000
  N   N4        1.0  0.7235219028538464  0.4628246547693705  0.2921756438141898  1.0000
  N   N5        1.0  0.02518398549637622  0.8256418152166634  0.0909959523727082  1.0000
  N   N6        1.0  0.4748179964671805  0.17435904285151338  0.59099523134428  1.0000
  N   N7        1.0  0.9748171542749728  0.17435977385565588  0.9090045781899504  1.0000
  N   N8        1.0  0.5251842606502422  0.8256415582890637  0.4090037179689148  1.0000
  N   N9        1.0  0.19184141320064182  0.29480180058887123  0.324402925583172  1.0000
  N   N10       1.0  0.3081595064560289  0.7051967688785865  0.824403087986532  1.0000
  N   N11       1.0  0.8081594855790967  0.7051978108837884  0.675596550812493  1.0000
  N   N12       1.0  0.6918412718291194  0.2948018537957821  0.1755969154918162  1.0000
  N   N13       1.0  0.8043483845491507  0.018698214850118695  0.0803123272934414  1.0000
  N   N14       1.0  0.6956522741244908  0.9813021615749445  0.5803121388305142  1.0000
  N   N15       1.0  0.19565139688270242  0.9813023845519946  0.9196871491024083  1.0000
  N   N16       1.0  0.30434738681277196  0.018697449028863396  0.4196878646480187  1.0000
  O   O1        1.0  0.1443380586470368  0.716510342287428  0.22131353562195244  1.0000
  O   O2        1.0  0.3556625033256679  0.28348693863155455  0.721312330752987  1.0000
  O   O3        1.0  0.85566160229083  0.28348926831714744  0.778686994939676  1.0000
  O   O4        1.0  0.6443393923067545  0.7165106961126069  0.2786871456420741  1.0000
  O   O5        1.0  0.35363103695063813  0.890209191020901  0.0894479926515288  1.0000
  O   O6        1.0  0.14636858625901533  0.10979264960440818  0.5894460508178909  1.0000
  O   O7        1.0  0.6463688649776316  0.10979239718179906  0.9105525379109168  1.0000
  O   O8        1.0  0.8536313156674352  0.8902089385959894  0.4105528984952826  1.0000
  O   O9        1.0  0.9939416362625408  0.5071021065588324  0.092980993960758  1.0000
  O   O10       1.0  0.5060503866678729  0.4928983006280418  0.5929898438812202  1.0000
  O   O11       1.0  0.006048242418586391  0.4928984858786761  0.9070132116024254  1.0000
  O   O12       1.0  0.49394344655291167  0.5071042720417224  0.4070217554254612  1.0000
  O   O13       1.0  0.3415360593975478  0.43690277530032506  0.0579756817905803  1.0000
  O   O14       1.0  0.1584699216101413  0.5631009557652219  0.5579767342707739  1.0000
  O   O15       1.0  0.6584664387108745  0.5630998034391437  0.9420237946065271  1.0000
  O   O16       1.0  0.8415375278724399  0.43690162645501096  0.4420243233764864  1.0000
  O   O17       1.0  0.5098542658864602  0.32887184861615987  0.9878240348972226  1.0000
  O   O18       1.0  0.9901470893985685  0.6711277351133872  0.4878258536123496  1.0000
  O   O19       1.0  0.49014539504837257  0.6711277619845857  0.012173860248950098  1.0000
  O   O20       1.0  0.009859998597796994  0.32887188070889545  0.5121746769505933  1.0000
  O   O21       1.0  0.8554277110780715  0.3628728671202523  0.0178067412537999  1.0000
  O   O22       1.0  0.6445598228821438  0.6371223748764762  0.5178115363107807  1.0000
  O   O23       1.0  0.14455401757819428  0.6371217873113151  0.9821916809703524  1.0000
  O   O24       1.0  0.35543217001410454  0.36287525292146927  0.4821953192458182  1.0000
  O   O25       1.0  0.022797949322502082  0.6661568920858797  0.3265767316246553  1.0000
  O   O26       1.0  0.47720062014320047  0.33384267076019103  0.8265756091201837  1.0000
  O   O27       1.0  0.9772017116147607  0.33384271851792846  0.6734232718538776  1.0000
  O   O28       1.0  0.522798920298257  0.666155951043791  0.1734238672748489  1.0000
  O   O29       1.0  0.3200988904999775  0.10873246530643135  0.0934550937973739  1.0000
  O   O30       1.0  0.1799019797754084  0.8912693878436996  0.5934558834988833  1.0000
  O   O31       1.0  0.6799022492695597  0.8912691237635925  0.9065438555160129  1.0000
  O   O32       1.0  0.8200966843097817  0.10873219948938127  0.40654464706334176  1.0000
