data_image0
_chemical_formula_structural       Ba4H56C16N32O20
_chemical_formula_sum              "Ba4 H56 C16 N32 O20"
_cell_length_a       7.393220778001959
_cell_length_b       11.506330001002041
_cell_length_c       14.167330765005872
_cell_angle_alpha    90.0000670358353
_cell_angle_beta     90.00008134269837
_cell_angle_gamma    89.99998820126915

_space_group_name_H-M_alt    "P 1"
_space_group_IT_number       1

loop_
  _space_group_symop_operation_xyz
  'x, y, z'

loop_
  _atom_site_type_symbol
  _atom_site_label
  _atom_site_symmetry_multiplicity
  _atom_site_fract_x
  _atom_site_fract_y
  _atom_site_fract_z
  _atom_site_occupancy
  Ba  Ba1       1.0  4.901307328000001e-06  0.0829104765866617  0.6408299989206016  1.0000
  Ba  Ba2       1.0  0.9999988691721456  0.9170893103989644  0.3591686817778594  1.0000
  Ba  Ba3       1.0  0.5000068289210164  0.41708875042835564  0.1408286085296737  1.0000
  Ba  Ba4       1.0  0.5000023519197114  0.582909298382738  0.8591693663207282  1.0000
  H   H1        1.0  0.3456904830853702  0.9160814759588618  0.7274982273841317  1.0000
  H   H2        1.0  0.3456913662440186  0.08391746143988141  0.2725010429670363  1.0000
  H   H3        1.0  0.1543077857116586  0.583917875660113  0.22749908307687153  1.0000
  H   H4        1.0  0.1543098956100124  0.41608195501043355  0.7725014548625425  1.0000
  H   H5        1.0  0.6543092296236283  0.08391831102752431  0.2725011591620614  1.0000
  H   H6        1.0  0.6543069938755934  0.9160814564602618  0.7274990494275002  1.0000
  H   H7        1.0  0.8456919269982847  0.41608191132678485  0.7725010093185887  1.0000
  H   H8        1.0  0.8456911696904044  0.5839178319763862  0.22749863753342234  1.0000
  H   H9        1.0  0.35755292190319926  0.0350308232103629  0.7819265553298465  1.0000
  H   H10       1.0  0.35755336435006063  0.9649698508641225  0.2180741356529197  1.0000
  H   H11       1.0  0.14244430740172487  0.46496947588747173  0.2819270588048681  1.0000
  H   H12       1.0  0.142446231816578  0.5350312253690535  0.7180734702016878  1.0000
  H   H13       1.0  0.6424467908057991  0.9649689637760306  0.21807283121634669  1.0000
  H   H14       1.0  0.6424449957703545  0.0350299361233724  0.781926662591289  1.0000
  H   H15       1.0  0.8575554053080695  0.5350311801862733  0.7180730335910042  1.0000
  H   H16       1.0  0.8575534808932231  0.4649694307046915  0.2819266221941845  1.0000
  H   H17       1.0  0.11738562137995961  0.9729042588399894  0.911795411413877  1.0000
  H   H18       1.0  0.11738603039624712  0.027096445582650102  0.08820439287365639  1.0000
  H   H19       1.0  0.3826144931804691  0.5270953579248001  0.4117963849549753  1.0000
  H   H20       1.0  0.3826147382847155  0.472903574808612  0.5882036190489899  1.0000
  H   H21       1.0  0.8826140913298418  0.0270963972337483  0.0882046809819954  1.0000
  H   H22       1.0  0.8826136823126091  0.972904210490583  0.9117949936729488  1.0000
  H   H23       1.0  0.6173852195304191  0.47290442906260943  0.5882044132897448  1.0000
  H   H24       1.0  0.6173863270157014  0.5270962121782077  0.41179647334697483  1.0000
  H   H25       1.0  0.11720670920782789  0.42379843114039073  0.5663666370665156  1.0000
  H   H26       1.0  0.11720380091452401  0.5762022733065991  0.4336352846328424  1.0000
  H   H27       1.0  0.3827953536279979  0.07620155783389043  0.0663669516174323  1.0000
  H   H28       1.0  0.38279366690325395  0.9237982439636244  0.9336330525224099  1.0000
  H   H29       1.0  0.8827943560943294  0.576202224934285  0.4336348670283953  1.0000
  H   H30       1.0  0.8827945592077812  0.4237975136819119  0.5663669253099001  1.0000
  H   H31       1.0  0.6172057116733639  0.9237982291534338  0.9336338466277995  1.0000
  H   H32       1.0  0.617204693214326  0.07620154302234282  0.0663656281740117  1.0000
  H   H33       1.0  0.3495535598511097  0.25594308246957104  0.703454571287061  1.0000
  H   H34       1.0  0.34955158108817846  0.7440575926153914  0.29654540782201616  1.0000
  H   H35       1.0  0.15044751723669944  0.24405710373130066  0.2034548705923385  1.0000
  H   H36       1.0  0.15044687247463173  0.7559435965135538  0.7965449585904025  1.0000
  H   H37       1.0  0.6504488580396384  0.7440575736039962  0.2965455211098273  1.0000
  H   H38       1.0  0.6504454264397238  0.25594306345801243  0.703453978723573  1.0000
  H   H39       1.0  0.849553548065316  0.755944421430215  0.7965466335029845  1.0000
  H   H40       1.0  0.8495514876437442  0.24405705955976495  0.2034544279556982  1.0000
  H   H41       1.0  0.35259268212922024  0.2576151256633353  0.5926623551275086  1.0000
  H   H42       1.0  0.35259370558330266  0.7423855490374011  0.4073376262711577  1.0000
  H   H43       1.0  0.14740674589110367  0.24238490114187536  0.09266194470344398  1.0000
  H   H44       1.0  0.14740639704808703  0.7576149304008696  0.9073385880385629  1.0000
  H   H45       1.0  0.647407030580581  0.7423855304104024  0.40733773726836375  1.0000
  H   H46       1.0  0.6474046545360181  0.2576151070364291  0.59266246612421  1.0000
  H   H47       1.0  0.852594319409171  0.7576157549317772  0.9073381476929399  1.0000
  H   H48       1.0  0.8525933156626524  0.2423857256733797  0.0926622102065764  1.0000
  H   H49       1.0  0.6659214936094743  0.06040878774412312  0.4749147225250425  1.0000
  H   H50       1.0  0.6659200609267942  0.9395918473630759  0.5250854948092751  1.0000
  H   H51       1.0  0.8340774994830725  0.43959172581997324  0.9749145863058146  1.0000
  H   H52       1.0  0.8340775609876233  0.5604071498639629  0.0250850518004313  1.0000
  H   H53       1.0  0.33407957169094255  0.9395909992426897  0.5250853698709221  1.0000
  H   H54       1.0  0.33407829919281795  0.06040707053706741  0.4749145975852612  1.0000
  H   H55       1.0  0.1659222132260751  0.5604071920795805  0.025084800239966402  1.0000
  H   H56       1.0  0.1659207991308946  0.43959263712251584  0.9749143347452502  1.0000
  C   C1        1.0  1.2120215302999995e-06  0.13914755111169091  0.9232720796055317  1.0000
  C   C2        1.0  0.9999998532760588  0.8608522358736012  0.0767258952426459  1.0000
  C   C3        1.0  0.5000004532906885  0.3608529513378615  0.4232727532532721  1.0000
  C   C4        1.0  0.4999992594191128  0.6391477047358762  0.5767273391426002  1.0000
  C   C5        1.0  0.9999998069944952  0.012762289156455598  0.9469134053931184  1.0000
  C   C6        1.0  0.9999998004814471  0.9872383037334204  0.053084945954893194  1.0000
  C   C7        1.0  0.5000004637596689  0.4872381841233492  0.4469145286442995  1.0000
  C   C8        1.0  0.49999924895012543  0.5127624719503958  0.5530855637515728  1.0000
  C   C9        1.0  6.223435419999998e-07  0.43832606083289244  0.5199930090233167  1.0000
  C   C10       1.0  0.9999990903674956  0.5616728570676701  0.48000778922099135  1.0000
  C   C11       1.0  0.4999986112162986  0.061673861424004904  0.0199926921572384  1.0000
  C   C12       1.0  0.49999839631146165  0.9383276637362459  0.9800066943887629  1.0000
  C   C13       1.0  1.8921013093999997e-06  0.3455092714245326  0.4464681762332389  1.0000
  C   C14       1.0  6.310207538999998e-07  0.654489709657696  0.5535315396628988  1.0000
  C   C15       1.0  0.4999971301017041  0.15449039531007716  0.9464685995315633  1.0000
  C   C16       1.0  0.49999987742808827  0.8455102607643427  0.053532198712559896  1.0000
  N   N1        1.0  0.9999996281476486  0.18203685965811198  0.8344293471379558  1.0000
  N   N2        1.0  8.456090939999998e-08  0.817965534588801  0.1655700394094808  1.0000
  N   N3        1.0  0.5000003416015488  0.3179660590523313  0.3344296034788811  1.0000
  N   N4        1.0  0.49999937110825243  0.6820345970214136  0.6655704889169911  1.0000
  N   N5        1.0  0.9999996214737549  0.2980043383178171  0.843954838132646  1.0000
  N   N6        1.0  0.9999986334115647  0.7019971236589909  0.15604351321526616  1.0000
  N   N7        1.0  0.5000003737661204  0.20199859409724755  0.3439556899815557  1.0000
  N   N8        1.0  0.5000006915341544  0.7980020619764119  0.6560444024148211  1.0000
  N   N9        1.0  0.9999997382089775  0.3252285488453098  0.9346091896682722  1.0000
  N   N10       1.0  0.9999998692679102  0.6747720440450848  0.0653898675289994  1.0000
  N   N11       1.0  0.5000004996169666  0.17477364490504504  0.4346086039148815  1.0000
  N   N12       1.0  0.4999992130928277  0.8252270111686926  0.5653914884809907  1.0000
  N   N13       1.0  0.9999998238241973  0.22671324706615795  0.9862681329192711  1.0000
  N   N14       1.0  1.2414740453000003e-06  0.7732882780933255  0.0137305477789909  1.0000
  N   N15       1.0  0.5000005522412749  0.27328902100628494  0.48626905260024966  1.0000
  N   N16       1.0  0.4999991604686684  0.726710765980613  0.5137310397952106  1.0000
  N   N17       1.0  5.848259264e-07  0.23064989936258945  0.4659615607261784  1.0000
  N   N18       1.0  0.9999991278822764  0.7693490185364525  0.5340371199703355  1.0000
  N   N19       1.0  0.5000025473122633  0.2693497954167015  0.9659620933139976  1.0000
  N   N20       1.0  0.4999998705784776  0.7306508606568727  0.0340379990828907  1.0000
  N   N21       1.0  4.812621981e-07  0.17684032703586186  0.3818243028016397  1.0000
  N   N22       1.0  2.0418600073e-06  0.82315778495952  0.6181754130940789  1.0000
  N   N23       1.0  0.5000010731363105  0.32315924669592994  0.8818241807386116  1.0000
  N   N24       1.0  0.49999999216476004  0.676842278465074  0.11817661750745148  1.0000
  N   N25       1.0  1.7297924444e-06  0.254965101582883  0.3138277627750412  1.0000
  N   N26       1.0  2.1459211794000002e-06  0.745033010412918  0.6861726589704489  1.0000
  N   N27       1.0  0.4999996426477296  0.24503437432215958  0.8138261546778907  1.0000
  N   N28       1.0  0.5000000700619225  0.7549671508384252  0.1861739377183937  1.0000
  N   N29       1.0  4.108714080000001e-07  0.3625580803721179  0.35245753250708844  1.0000
  N   N30       1.0  7.596603311e-07  0.6374400316233492  0.6475421833881256  1.0000
  N   N31       1.0  0.4999997123508565  0.13744232019639926  0.852456527887078  1.0000
  N   N32       1.0  0.5000000003586464  0.8625600740510252  0.1475435645096184  1.0000
  O   O1        1.0  0.2741885063577811  0.9842431057909664  0.7461368885686497  1.0000
  O   O2        1.0  0.27418936246832704  0.015755840643620903  0.2538630337907861  1.0000
  O   O3        1.0  0.22580981231548236  0.5157571417300347  0.2461377332480623  1.0000
  O   O4        1.0  0.2258104969197916  0.4842435489921118  0.7538628585322442  1.0000
  O   O5        1.0  0.7258112063523044  0.0157558121090915  0.2538632038263913  1.0000
  O   O6        1.0  0.7258103502417655  0.9842430772564371  0.7461370586042619  1.0000
  O   O7        1.0  0.7741899003951148  0.4842443834310617  0.7538630649974892  1.0000
  O   O8        1.0  0.7741892157900098  0.515757107081626  0.24613723386362807  1.0000
  O   O9        1.0  0.7484050421501607  0.9999985741235593  0.4999982600450608  1.0000
  O   O10       1.0  0.7515911454360237  0.49999936818179685  0.9999997609982357  1.0000
  O   O11       1.0  0.2515931505148076  0.9999994746006493  0.4999987788450824  1.0000
  O   O12       1.0  0.24840856727421107  0.4999986806314214  3.313964001e-07  1.0000
  O   O13       1.0  0.27125878662938163  0.24781100153320076  0.6474235174772929  1.0000
  O   O14       1.0  0.27125830767163  0.7521888143590305  0.3525771085252458  1.0000
  O   O15       1.0  0.2287421405205947  0.2521882349692675  0.1474231776263082  1.0000
  O   O16       1.0  0.22874029583134356  0.7478107172088144  0.852577416360262  1.0000
  O   O17       1.0  0.7287436312624537  0.7521887854540384  0.3525772807684504  1.0000
  O   O18       1.0  0.72874005244784  0.24781097262795274  0.6474229838697099  1.0000
  O   O19       1.0  0.7712575721904428  0.747810682931302  0.8525776206179997  1.0000
  O   O20       1.0  0.7712553591081247  0.25218906977885075  0.1474233818829305  1.0000
