data_image0
_chemical_formula_structural       H12W8C8N12O24
_chemical_formula_sum              "H12 W8 C8 N12 O24"
_cell_length_a       3.8331977710010956
_cell_length_b       13.624631595003473
_cell_length_c       14.150607854007367
_cell_angle_alpha    90.00007927553962
_cell_angle_beta     89.99991457244435
_cell_angle_gamma    90.00001874924897

_space_group_name_H-M_alt    "P 1"
_space_group_IT_number       1

loop_
  _space_group_symop_operation_xyz
  'x, y, z'

loop_
  _atom_site_type_symbol
  _atom_site_label
  _atom_site_symmetry_multiplicity
  _atom_site_fract_x
  _atom_site_fract_y
  _atom_site_fract_z
  _atom_site_occupancy
  H   H1        1.0  0.3401322094117702  0.5954132992136251  0.6813116993960122  1.0000
  H   H2        1.0  0.8401215745806283  0.4045877107507394  0.8186871957477349  1.0000
  H   H3        1.0  0.6598824748676292  0.9045868215022067  0.1813128269072308  1.0000
  H   H4        1.0  0.15987090800093984  0.09541272326474368  0.3186888153100468  1.0000
  H   H5        1.0  0.473065419447515  0.7512495163243145  0.780152054269841  1.0000
  H   H6        1.0  0.9730603755616084  0.2487515061875598  0.7198467877769514  1.0000
  H   H7        1.0  0.5269434972058278  0.7487514795431734  0.2801523193506198  1.0000
  H   H8        1.0  0.02694048343588659  0.25124805267589073  0.21984866927966346  1.0000
  H   H9        1.0  0.3602461459386461  0.9068382331768634  0.6794427264032165  1.0000
  H   H10       1.0  0.8602508003425553  0.0931620447229449  0.8205575740699727  1.0000
  H   H11       1.0  0.6397502872278974  0.5931626188328921  0.17944344459491646  1.0000
  H   H12       1.0  0.13975471577366247  0.40683692403407434  0.320557498976882  1.0000
  W   W1        1.0  0.20392551121528152  0.6139501237682836  0.4236895903723904  1.0000
  W   W2        1.0  0.703929248158303  0.386050893083585  0.07630850083413779  1.0000
  W   W3        1.0  0.7960747802790349  0.8860496092039369  0.9236893769280954  1.0000
  W   W4        1.0  0.29606719207005466  0.11394919470668437  0.5763081224440254  1.0000
  W   W5        1.0  0.20643010661667915  0.8856675612931753  0.42190186288292597  1.0000
  W   W6        1.0  0.7064283079614667  0.1143297859718402  0.07809764068871768  1.0000
  W   W7        1.0  0.7935728036173444  0.6143321691247434  0.92190057961173  1.0000
  W   W8        1.0  0.29356812230919616  0.3856703043743721  0.5780976274450252  1.0000
  C   C1        1.0  0.32441176516283576  0.6708758716666379  0.6565446191649753  1.0000
  C   C2        1.0  0.8244009069405323  0.3291236688848116  0.8434549889402729  1.0000
  C   C3        1.0  0.6755952305863601  0.8291256815994998  0.15654493258474383  1.0000
  C   C4        1.0  0.17559404659458977  0.1708738646505239  0.3434559966710821  1.0000
  C   C5        1.0  0.3347948349395296  0.8312559877103639  0.655474099172153  1.0000
  C   C6        1.0  0.8347968328688038  0.16874575571511488  0.8445240914179735  1.0000
  C   C7        1.0  0.6652069491871799  0.6687440960976119  0.15547561517188055  1.0000
  C   C8        1.0  0.16520333229832568  0.331256183135558  0.3445239048673371  1.0000
  N   N1        1.0  0.24642752549582525  0.7003577043042385  0.5700762841864274  1.0000
  N   N2        1.0  0.7464265877979839  0.29964329681653373  0.929923355066087  1.0000
  N   N3        1.0  0.7535773426687411  0.7996422575166167  0.07007582026365358  1.0000
  N   N4        1.0  0.2535704933249718  0.20035803005797703  0.4299243711629613  1.0000
  N   N5        1.0  0.38113453400792696  0.7511709285335968  0.7112398385537586  1.0000
  N   N6        1.0  0.8811291067047831  0.24882788340773493  0.7887604535772681  1.0000
  N   N7        1.0  0.6188721573558097  0.7488285009675337  0.2112407737038779  1.0000
  N   N8        1.0  0.11886354243336679  0.2511710399261631  0.2887573514759224  1.0000
  N   N9        1.0  0.25254780099503893  0.8013864908863579  0.5694325620626159  1.0000
  N   N10       1.0  0.752551962746331  0.19861451081232673  0.9305670747443314  1.0000
  N   N11       1.0  0.7474492443834606  0.6986149379456279  0.06943408524302437  1.0000
  N   N12       1.0  0.2474503323649557  0.30138534905345427  0.4305696420467909  1.0000
  O   O1        1.0  0.2526109008100618  0.7493188949279954  0.3831196827089585  1.0000
  O   O2        1.0  0.7526142584942973  0.25068139255586175  0.11688050910163378  1.0000
  O   O3        1.0  0.7473896164569352  0.7506807800928568  0.8831200139787396  1.0000
  O   O4        1.0  0.2473819559476169  0.2493187531893142  0.6168803315732843  1.0000
  O   O5        1.0  0.24906247830418946  0.5001834357019632  0.5016147795292268  1.0000
  O   O6        1.0  0.7490718217220047  0.4998131618776894  0.998382738615561  1.0000
  O   O7        1.0  0.7509349444879374  0.999818630220332  0.0016152916096529996  1.0000
  O   O8        1.0  0.25093270477142227  0.000186060895885  0.49838772760809735  1.0000
  O   O9        1.0  0.2273474922895531  0.5626407674555408  0.3114505566084205  1.0000
  O   O10       1.0  0.727348053998952  0.4373609855722195  0.18854823192751263  1.0000
  O   O11       1.0  0.77265081503225  0.937358805190165  0.8114511279654479  1.0000
  O   O12       1.0  0.27264515281316887  0.0626407304774474  0.6885506208632605  1.0000
  O   O13       1.0  0.23047825568536234  0.935535986222213  0.3091095636703826  1.0000
  O   O14       1.0  0.7304783815829194  0.0644635652071344  0.19088993029709656  1.0000
  O   O15       1.0  0.7695278910360697  0.564465051007616  0.8091075164898598  1.0000
  O   O16       1.0  0.26952002977616013  0.4355352183274022  0.6908907001700155  1.0000
  O   O17       1.0  0.7344043794951883  0.8762544992786586  0.4381780837397498  1.0000
  O   O18       1.0  0.23440731816686614  0.1237450525219046  0.0618221153424301  1.0000
  O   O19       1.0  0.265595831369687  0.623744520424637  0.9381777306491441  1.0000
  O   O20       1.0  0.7655918114666347  0.37625501457564065  0.561821900946839  1.0000
  O   O21       1.0  0.7321424104363315  0.6226403038574089  0.440395486832699  1.0000
  O   O22       1.0  0.2321456489928906  0.3773599816939636  0.0596040064699608  1.0000
  O   O23       1.0  0.2678603968759248  0.8773594529784814  0.9403954727207875  1.0000
  O   O24       1.0  0.767853492981544  0.12264008223590392  0.5596048646546947  1.0000
