data_image0
_chemical_formula_structural       Zr6H28C62Cl10O32F2
_chemical_formula_sum              "Zr6 H28 C62 Cl10 O32 F2"
_cell_length_a       14.951288816505055
_cell_length_b       14.879062715180547
_cell_length_c       14.906052203815065
_cell_angle_alpha    60.15052549180936
_cell_angle_beta     59.87297688296399
_cell_angle_gamma    59.8962158318471

_space_group_name_H-M_alt    "P 1"
_space_group_IT_number       1

loop_
  _space_group_symop_operation_xyz
  'x, y, z'

loop_
  _atom_site_type_symbol
  _atom_site_label
  _atom_site_symmetry_multiplicity
  _atom_site_fract_x
  _atom_site_fract_y
  _atom_site_fract_z
  _atom_site_occupancy
  Zr  Zr1       1.0  0.881997452645926  0.38123903868511644  0.6135890370241551  1.0000
  Zr  Zr2       1.0  0.11703548880358731  0.6208106559044282  0.37860104334654915  1.0000
  Zr  Zr3       1.0  0.11751708795186037  0.3841610865311437  0.617464828897873  1.0000
  Zr  Zr4       1.0  0.8855703843511336  0.6173606734699177  0.37536997626332164  1.0000
  Zr  Zr5       1.0  0.8787152684259568  0.6166254543495951  0.618432162036491  1.0000
  Zr  Zr6       1.0  0.12264143112286516  0.3766366633149688  0.38286716733271214  1.0000
  H   H1        1.0  0.9032199457006128  0.40936574149149857  0.7778861604995839  1.0000
  H   H2        1.0  0.9060511851000469  0.7808981006544329  0.4035294626160278  1.0000
  H   H3        1.0  0.2799286482029117  0.40662502581532317  0.4082021516365515  1.0000
  H   H4        1.0  0.9138815212210575  0.40112943556264474  0.4030560229064903  1.0000
  H   H5        1.0  0.5338840732363719  0.7479000217143864  0.8574529309773951  1.0000
  H   H6        1.0  0.6180619942389142  0.6694379001224463  0.9413045616878506  1.0000
  H   H7        1.0  0.44885390914228623  0.673365695898859  0.1108597430073529  1.0000
  H   H8        1.0  0.36405551694070226  0.7499244304757583  0.027186595500594865  1.0000
  H   H9        1.0  0.2361419873555377  0.056624844468366624  0.3076689565601072  1.0000
  H   H10       1.0  0.12485081796695141  0.13574451861594383  0.25653546735100713  1.0000
  H   H11       1.0  0.12802143165380633  0.9646494890405466  0.25746047380034287  1.0000
  H   H12       1.0  0.23284219135194179  0.8832085027927267  0.31835029267806897  1.0000
  H   H13       1.0  0.518780121559459  0.8590921386051704  0.36300069757167797  1.0000
  H   H14       1.0  0.6038202979311436  0.9421466609670547  0.26934595403869804  1.0000
  H   H15       1.0  0.43652690817529566  0.11290276606190733  0.2748536570110786  1.0000
  H   H16       1.0  0.35068683930563077  0.030111772669123103  0.3662309486791386  1.0000
  H   H17       1.0  0.8735193140883271  0.7422067831622317  0.0319997261484628  1.0000
  H   H18       1.0  0.7745812204662027  0.6738291757605238  0.1193232511566789  1.0000
  H   H19       1.0  0.7644635671686473  0.6799669452940904  0.9516292506971239  1.0000
  H   H20       1.0  0.8673090851372718  0.7432630168660523  0.8667663418526526  1.0000
  H   H21       1.0  0.8124985438680026  0.27135902524840133  0.9378821270062898  1.0000
  H   H22       1.0  0.6571488842752018  0.2755227194170119  0.111045149986829  1.0000
  H   H23       1.0  0.8092682038526747  0.9312762453778234  0.26380405711504534  1.0000
  H   H24       1.0  0.6546325758824949  0.1039687155107032  0.27420487603348676  1.0000
  H   H25       1.0  0.5479713460905412  0.3417073532148009  0.7326446735114586  1.0000
  H   H26       1.0  0.6295333765417083  0.25778812311038735  0.6471313544919892  1.0000
  H   H27       1.0  0.4572832814255105  0.26101774600471134  0.6503485651415202  1.0000
  H   H28       1.0  0.37581940721219087  0.34390731721025253  0.7367951374291407  1.0000
  C   C1        1.0  0.6929029863411318  0.49939044252789716  0.7942241006911458  1.0000
  C   C2        1.0  0.9950828864054411  0.7984155372452053  0.5081785585457933  1.0000
  C   C3        1.0  0.3013550901089488  0.4984627199885879  0.1961575637751877  1.0000
  C   C4        1.0  0.010318024082486865  0.1870308006145507  0.5084713327751161  1.0000
  C   C5        1.0  0.9997317036369041  0.19730783476190092  0.7989116971498547  1.0000
  C   C6        1.0  0.7005488974852055  0.5042607251285106  0.4892547389402535  1.0000
  C   C7        1.0  0.003704357575330262  0.8000063726052247  0.18936611282293106  1.0000
  C   C8        1.0  0.2971214786109683  0.5104334477338597  0.49680112547989086  1.0000
  C   C9        1.0  0.9977292665333902  0.497284423036085  0.8035740982810676  1.0000
  C   C10       1.0  0.296203712031911  0.1918987602466587  0.5123596812648614  1.0000
  C   C11       1.0  0.015614297283043749  0.4919360752030358  0.1931898432572154  1.0000
  C   C12       1.0  0.6941327967339532  0.7962825119693734  0.5026324333252957  1.0000
  C   C13       1.0  0.5939627498720839  0.4930991373406287  0.895505355329888  1.0000
  C   C14       1.0  0.401663866874465  0.49225922485081236  0.09563134469250649  1.0000
  C   C15       1.0  0.5412032031227053  0.5739963808056459  0.9442742554146689  1.0000
  C   C16       1.0  0.4560602468774421  0.40626671154412725  0.04966668291210394  1.0000
  C   C17       1.0  0.44860174780929896  0.5746128123387708  0.03884295259996395  1.0000
  C   C18       1.0  0.5478166080167026  0.40793788849760676  0.9509190176509748  1.0000
  C   C19       1.0  0.5445407683646976  0.6793011591795877  0.9327086572206298  1.0000
  C   C20       1.0  0.4389864845323641  0.6808942337296743  0.039037064417534725  1.0000
  C   C21       1.0  0.010781428158452398  0.08158023158767952  0.51883384679752  1.0000
  C   C22       1.0  0.9962332310010852  0.8940513330652919  0.5164651307361363  1.0000
  C   C23       1.0  0.07515291956674015  0.03950432636580815  0.4320847217159312  1.0000
  C   C24       1.0  0.9277524854835735  0.9370495246395194  0.6050297094864875  1.0000
  C   C25       1.0  0.07048482620307057  0.947987343099989  0.43244780196622656  1.0000
  C   C26       1.0  0.9398046668558634  0.02322817385293504  0.6096491058888985  1.0000
  C   C27       1.0  0.15734251163431165  0.0594678014622829  0.31676532501770543  1.0000
  C   C28       1.0  0.1558813571501928  0.9530458771849838  0.31922914675408975  1.0000
  C   C29       1.0  0.5923127100385059  0.8952386654461079  0.5114357494691432  1.0000
  C   C30       1.0  0.39244240539065345  0.08800222626957327  0.5204348834874111  1.0000
  C   C31       1.0  0.534110336057289  0.9423452816019232  0.44040122319817937  1.0000
  C   C32       1.0  0.4465292006864772  0.038550817409579004  0.5979247208472813  1.0000
  C   C33       1.0  0.4399514026279689  0.03537561045999387  0.4437797820108926  1.0000
  C   C34       1.0  0.5462410309998159  0.9479187085057748  0.5903540314729339  1.0000
  C   C35       1.0  0.5323730312762577  0.9333060603962836  0.3444212027743701  1.0000
  C   C36       1.0  0.42706604928550007  0.039766301613156106  0.3472462969515178  1.0000
  C   C37       1.0  0.01641343448789449  0.4852518600106422  0.09583534543326516  1.0000
  C   C38       1.0  0.0009875509330471038  0.48513464082672914  0.9078654977203797  1.0000
  C   C39       1.0  0.9388500534144768  0.5673006310510047  0.04560327609921427  1.0000
  C   C40       1.0  0.07678407722433185  0.3961824625735844  0.961779831464078  1.0000
  C   C41       1.0  0.9324079158902947  0.5679637490438129  0.9551406468394956  1.0000
  C   C42       1.0  0.08784243260640068  0.3990460665202634  0.049472062633192565  1.0000
  C   C43       1.0  0.8482636963683631  0.6771702896894567  0.04619696005362751  1.0000
  C   C44       1.0  0.8424854751864003  0.6788047633313286  0.9427743187075919  1.0000
  C   C45       1.0  0.9974119033803392  0.09743598929001257  0.9014351760958093  1.0000
  C   C46       1.0  0.9053757611621691  0.09982998163505395  0.0010977949734396154  1.0000
  C   C47       1.0  0.08561163999926448  0.0012708791421474279  0.9002229055368715  1.0000
  C   C48       1.0  0.813985793535828  0.1975148895691489  0.009930796272456535  1.0000
  C   C49       1.0  0.7263818818199539  0.19945866482913033  0.10656553203247643  1.0000
  C   C50       1.0  0.9992625287937427  0.9036327466107821  0.09100659431066992  1.0000
  C   C51       1.0  0.08698290019476916  0.9058611836748656  0.9943285424498712  1.0000
  C   C52       1.0  0.9053437881262526  0.0017710591780541944  0.0960392088639139  1.0000
  C   C53       1.0  0.812443852342497  0.006221988191001056  0.19333418645319247  1.0000
  C   C54       1.0  0.7251323266347497  0.10281805695193208  0.1986593185866567  1.0000
  C   C55       1.0  0.6009555575851022  0.5093306955273961  0.48281578425360283  1.0000
  C   C56       1.0  0.4002680218634681  0.5135310465763965  0.4877323810244079  1.0000
  C   C57       1.0  0.5491975517846369  0.43165574527967016  0.5613130850489155  1.0000
  C   C58       1.0  0.4527696183489309  0.5925096204853518  0.4046970787603853  1.0000
  C   C59       1.0  0.4537388812940791  0.4335453815200054  0.5635545383841458  1.0000
  C   C60       1.0  0.5504362964162155  0.589850624318764  0.40182310570549606  1.0000
  C   C61       1.0  0.5561855138428341  0.32954325082043573  0.6617304716128485  1.0000
  C   C62       1.0  0.4485204411059981  0.3314175150847589  0.6640796682929563  1.0000
  Cl  Cl1       1.0  0.41611948645938673  0.29281600674391933  0.11264228662363955  1.0000
  Cl  Cl2       1.0  0.6019783350149621  0.30100757859827354  0.9027695126613364  1.0000
  Cl  Cl3       1.0  0.823169836542526  0.8897978045172437  0.7101792995104219  1.0000
  Cl  Cl4       1.0  0.8676644910652056  0.052379406892242665  0.7307726462628351  1.0000
  Cl  Cl5       1.0  0.39397805803714897  0.08559977701617792  0.7050922714276808  1.0000
  Cl  Cl6       1.0  0.6122067501076812  0.9091783061559654  0.6772957323180792  1.0000
  Cl  Cl7       1.0  0.15600781543126613  0.2784433059260962  0.9260524706468942  1.0000
  Cl  Cl8       1.0  0.19431768034539224  0.29538499977723387  0.09489095601639964  1.0000
  Cl  Cl9       1.0  0.4009722658071766  0.6958725969637173  0.30170756472787713  1.0000
  Cl  Cl10      1.0  0.606658589408852  0.6880529671926965  0.2937692877016857  1.0000
  O   O1        1.0  0.7350448205597218  0.428609409761414  0.7470953929479974  1.0000
  O   O2        1.0  0.06947884653337866  0.7669043677679568  0.4261591388019496  1.0000
  O   O3        1.0  0.2645479785441296  0.5782400976539179  0.23024000092335228  1.0000
  O   O4        1.0  0.9292643905985615  0.23665222271738165  0.5752103972666233  1.0000
  O   O5        1.0  0.07517960886968189  0.23588230497566823  0.7619595343673353  1.0000
  O   O6        1.0  0.7434934823921325  0.5788978386301338  0.41770555461539505  1.0000
  O   O7        1.0  0.9292783649566942  0.7592648930637509  0.22747259806440895  1.0000
  O   O8        1.0  0.26339798664467645  0.4315262931546756  0.574368832454958  1.0000
  O   O9        1.0  0.9174878927393377  0.5733365708661751  0.7711424558887713  1.0000
  O   O10       1.0  0.26345803060191025  0.22829429612664862  0.4323097751069014  1.0000
  O   O11       1.0  0.08775148762670422  0.41721772830111087  0.23775619897851635  1.0000
  O   O12       1.0  0.7348061626337739  0.7487833104994266  0.5788188574469968  1.0000
  O   O13       1.0  0.2554636969618186  0.23938011345858007  0.5823101744776196  1.0000
  O   O14       1.0  0.9389753882187363  0.57219276291827  0.22687957519047308  1.0000
  O   O15       1.0  0.7333995806892656  0.7660229995664237  0.4197650997642198  1.0000
  O   O16       1.0  0.07795226019533154  0.43167363140302245  0.7519799502554676  1.0000
  O   O17       1.0  0.9243928014399215  0.23540066222083314  0.7596096021649146  1.0000
  O   O18       1.0  0.25068151242899  0.5854944001386571  0.42590992635803804  1.0000
  O   O19       1.0  0.07909799597358375  0.7630418540177358  0.2280795723549857  1.0000
  O   O20       1.0  0.7359162898927493  0.4251772324992517  0.566420880295375  1.0000
  O   O21       1.0  0.08744670046325347  0.22329241934805577  0.4302332848014245  1.0000
  O   O22       1.0  0.7299573316241492  0.5749962157904279  0.7625429292566605  1.0000
  O   O23       1.0  0.9214470594295818  0.7550016073817502  0.5817485872111089  1.0000
  O   O24       1.0  0.259643356005455  0.4233553612962311  0.2412052647760347  1.0000
  O   O25       1.0  0.9384022486089023  0.4302475787533026  0.4290147007193496  1.0000
  O   O26       1.0  0.2003396267516847  0.43401684918728733  0.4334605787425758  1.0000
  O   O27       1.0  0.932459123025943  0.7011292838367496  0.4287982123201528  1.0000
  O   O28       1.0  0.9310848717433019  0.43390862635882854  0.6982782246523557  1.0000
  O   O29       1.0  0.046580537199815655  0.5515392728468316  0.5468123314510578  1.0000
  O   O30       1.0  0.8541827460961569  0.5485709163788076  0.5436650058249624  1.0000
  O   O31       1.0  0.05197373170324226  0.5475245623128018  0.3501741119892046  1.0000
  O   O32       1.0  0.049968247737602674  0.351160740861566  0.5492529694759867  1.0000
  F   F1        1.0  0.177240089182412  0.8149352916991718  0.9848489586666885  1.0000
  F   F2        1.0  0.1736213989573084  0.9936662347355779  0.807549440808664  1.0000
