data_image0
_chemical_formula_structural       Co2H24C28N20
_chemical_formula_sum              "Co2 H24 C28 N20"
_cell_length_a       7.230127828986246
_cell_length_b       7.528288897256309
_cell_length_c       13.807587325704935
_cell_angle_alpha    90.00072689621656
_cell_angle_beta     90.00086955442173
_cell_angle_gamma    99.93277185392927

_space_group_name_H-M_alt    "P 1"
_space_group_IT_number       1

loop_
  _space_group_symop_operation_xyz
  'x, y, z'

loop_
  _atom_site_type_symbol
  _atom_site_label
  _atom_site_symmetry_multiplicity
  _atom_site_fract_x
  _atom_site_fract_y
  _atom_site_fract_z
  _atom_site_occupancy
  Co  Co1       1.0  0.9999980559769025  0.5000023228430877  0.5000000358502348  1.0000
  Co  Co2       1.0  0.5000046216218195  0.4999954671433216  3.541196705000008e-07  1.0000
  H   H1        1.0  0.9932552425430002  0.8706148606619736  0.4419630026932424  1.0000
  H   H2        1.0  0.5067242755961131  0.1293735674798953  0.9419644420827069  1.0000
  H   H3        1.0  0.006736289313756996  0.12938714834913867  0.5580371750066817  1.0000
  H   H4        1.0  0.4932855539039024  0.8706228448364187  0.058034287195035  1.0000
  H   H5        1.0  0.07174992866715967  0.40446558242243213  0.29937995890847463  1.0000
  H   H6        1.0  0.4282447041612158  0.5955201800625007  0.799381189788896  1.0000
  H   H7        1.0  0.9282394516515424  0.5955323957303307  0.700622391485844  1.0000
  H   H8        1.0  0.5717548532181738  0.4044803936068604  0.2006226091371772  1.0000
  H   H9        1.0  0.08140023463425895  0.5588547162186401  0.1387681538517  1.0000
  H   H10       1.0  0.418606873365725  0.4411319540919152  0.6387645358235403  1.0000
  H   H11       1.0  0.9185989705533117  0.44115126579360725  0.86123709357193  1.0000
  H   H12       1.0  0.58138793344348  0.5588727228691185  0.3612363661396572  1.0000
  H   H13       1.0  0.029767126270485278  0.8782046433065815  0.1298218654785188  1.0000
  H   H14       1.0  0.47024582759806305  0.12177766899947072  0.6298184876091569  1.0000
  H   H15       1.0  0.9702384668654174  0.12179856930632131  0.8701804850039566  1.0000
  H   H16       1.0  0.5297545008423441  0.8782269499682445  0.370179517419281  1.0000
  H   H17       1.0  0.9241783677901123  0.12692825526746532  0.3451841722746067  1.0000
  H   H18       1.0  0.575818258617147  0.8730546603192976  0.8451851992207153  1.0000
  H   H19       1.0  0.07581730534774773  0.8730737102972624  0.6548174539216944  1.0000
  H   H20       1.0  0.42419019040583084  0.1269417664370138  0.1548099088537853  1.0000
  H   H21       1.0  0.9365293980971214  0.12321773472835669  0.2221221609931945  1.0000
  H   H22       1.0  0.5634728746386415  0.8767685322694874  0.7221231107946693  1.0000
  H   H23       1.0  0.06347558570353579  0.8767895376909466  0.7778758440648232  1.0000
  H   H24       1.0  0.43652642557425037  0.1232306928439471  0.2778734457304068  1.0000
  C   C1        1.0  0.3197909109543318  0.30180029873245223  0.4513825650878829  1.0000
  C   C2        1.0  0.18021216411498384  0.6982084230112805  0.9513759368669028  1.0000
  C   C3        1.0  0.6801920813352637  0.6982004487515995  0.5486176125711566  1.0000
  C   C4        1.0  0.819796446818401  0.30179610900533754  0.04862061971734019  1.0000
  C   C5        1.0  0.6218360866754438  0.2442606930310305  0.4362202298400391  1.0000
  C   C6        1.0  0.8781687720019135  0.7557381222908222  0.9362215010127315  1.0000
  C   C7        1.0  0.3781538076185455  0.7557399819322015  0.56377415393208  1.0000
  C   C8        1.0  0.12183881079625535  0.24426101594929148  0.0637794009840817  1.0000
  C   C9        1.0  0.006384672361917908  0.9014285986603526  0.2857042633723736  1.0000
  C   C10       1.0  0.4936138277664099  0.09856485838486861  0.7857016355996934  1.0000
  C   C11       1.0  0.9936165224648477  0.09857330895966503  0.7142980870866111  1.0000
  C   C12       1.0  0.5063898708017688  0.9014356717603393  0.21429781790683933  1.0000
  C   C13       1.0  0.00918049771469503  0.8054277822771001  0.3729718805110238  1.0000
  C   C14       1.0  0.49080543679202987  0.1945600718878069  0.8729721142378395  1.0000
  C   C15       1.0  0.9908204400609575  0.19457277688420763  0.6270304699418645  1.0000
  C   C16       1.0  0.5092018889434937  0.8054377178838763  0.1270280635133858  1.0000
  C   C17       1.0  0.052779130070483384  0.5438513143383402  0.2932344994640133  1.0000
  C   C18       1.0  0.44722169492138864  0.45613151379178873  0.7932355808668632  1.0000
  C   C19       1.0  0.9472157718794207  0.4561466058211039  0.7067649539955311  1.0000
  C   C20       1.0  0.5527858878998657  0.543867624467772  0.2067667696089259  1.0000
  C   C21       1.0  0.05642798999734569  0.6313505457501237  0.20428084856344242  1.0000
  C   C22       1.0  0.443577416530985  0.3686325185536462  0.7042754556747893  1.0000
  C   C23       1.0  0.9435635419055685  0.3686514632998766  0.7957222260944405  1.0000
  C   C24       1.0  0.5564213696258377  0.6313640096812564  0.2957239977960596  1.0000
  C   C25       1.0  0.030973526929081167  0.8093852712081285  0.199226209738697  1.0000
  C   C26       1.0  0.4690253305874064  0.19060042679343783  0.6992240566404959  1.0000
  C   C27       1.0  0.9690249070590012  0.19061666538910776  0.8007761407086916  1.0000
  C   C28       1.0  0.5309750930514098  0.8093974354212888  0.3007761210817321  1.0000
  N   N1        1.0  0.19678675695229944  0.38144511128479774  0.4668448523103166  1.0000
  N   N2        1.0  0.3032219137047605  0.6185545140470268  0.966846642484434  1.0000
  N   N3        1.0  0.8032101346137208  0.6185487344629621  0.5331502557056069  1.0000
  N   N4        1.0  0.6967846409120497  0.3814392303776943  0.0331557079669764  1.0000
  N   N5        1.0  0.44078665437513803  0.1983123833412037  0.43197090292594  1.0000
  N   N6        1.0  0.059218144061134015  0.801686334590151  0.9319661896258252  1.0000
  N   N7        1.0  0.5592131599284328  0.8016895386799235  0.5680249293718376  1.0000
  N   N8        1.0  0.9407913332470624  0.198315486069049  0.0680339881494803  1.0000
  N   N9        1.0  0.026861914114355952  0.6306606448988672  0.3762825298178925  1.0000
  N   N10       1.0  0.4731265345878766  0.3693326775600739  0.8762875320543557  1.0000
  N   N11       1.0  0.9731297129061854  0.3693346073300886  0.6237176478573615  1.0000
  N   N12       1.0  0.5268738891086286  0.6306651847032614  0.1237162668653298  1.0000
  N   N13       1.0  0.7879129061214768  0.27180254933642095  0.43594220391779714  1.0000
  N   N14       1.0  0.7120882498606277  0.7281841369179529  0.9359462079040313  1.0000
  N   N15       1.0  0.2120831191735846  0.7281940078562528  0.5640558010624801  1.0000
  N   N16       1.0  0.28791984700515627  0.27181769821041263  0.06405252138649331  1.0000
  N   N17       1.0  0.9843015983643182  0.07919778583183763  0.2856749396231351  1.0000
  N   N18       1.0  0.515694674039615  0.9207916228007278  0.7856750868550861  1.0000
  N   N19       1.0  0.015700624632273726  0.9208095155938454  0.7143252381417611  1.0000
  N   N20       1.0  0.48430876744283313  0.07920755885660212  0.21432219392687565  1.0000
