data_image0
_chemical_formula_structural       Cr2H24C20S4N4O16
_chemical_formula_sum              "Cr2 H24 C20 S4 N4 O16"
_cell_length_a       7.145600765813605
_cell_length_b       7.778951514607652
_cell_length_c       12.828560317490771
_cell_angle_alpha    89.99969821079847
_cell_angle_beta     89.99911180657303
_cell_angle_gamma    100.41165576830717

_space_group_name_H-M_alt    "P 1"
_space_group_IT_number       1

loop_
  _space_group_symop_operation_xyz
  'x, y, z'

loop_
  _atom_site_type_symbol
  _atom_site_label
  _atom_site_symmetry_multiplicity
  _atom_site_fract_x
  _atom_site_fract_y
  _atom_site_fract_z
  _atom_site_occupancy
  Cr  Cr1       1.0  0.4999992339415229  0.5000005429275021  0.5000009233718501  1.0000
  Cr  Cr2       1.0  0.9999968098015374  0.4999976316631063  0.9999987445376629  1.0000
  H   H1        1.0  0.8462045888482592  0.6521744626718373  0.5720173950365535  1.0000
  H   H2        1.0  0.6537812103112303  0.3478177677762559  0.07201248920536327  1.0000
  H   H3        1.0  0.15379502776197282  0.3478253212107845  0.4279836721935481  1.0000
  H   H4        1.0  0.3462184063227269  0.652182016117102  0.9279870190033461  1.0000
  H   H5        1.0  0.6987445155575359  0.6275972788408096  0.667383411799669  1.0000
  H   H6        1.0  0.8012517396908265  0.37239760454074383  0.1673927400590358  1.0000
  H   H7        1.0  0.3012551011001463  0.3724025050632917  0.3326145373876415  1.0000
  H   H8        1.0  0.19874787693127158  0.6276021793472494  0.832607547660366  1.0000
  H   H9        1.0  0.3333582107071891  0.10609293984494877  0.5009104019647878  1.0000
  H   H10       1.0  0.1666499076109957  0.8939123770545052  0.0009114425261528999  1.0000
  H   H11       1.0  0.666642806349266  0.8939068490912375  0.4990906652592385  1.0000
  H   H12       1.0  0.8333457594033291  0.1060886987041059  0.9990888452083052  1.0000
  H   H13       1.0  0.21549726496151322  0.9549875536046315  0.8210436926375306  1.0000
  H   H14       1.0  0.28449298952067187  0.04500026333599999  0.3210456330348705  1.0000
  H   H15       1.0  0.7845079534573288  0.0450122505029853  0.17895581554686393  1.0000
  H   H16       1.0  0.7155073823059724  0.9550034416512787  0.6789538751643247  1.0000
  H   H17       1.0  0.3183142387201983  0.2734210068245274  0.8703273361048998  1.0000
  H   H18       1.0  0.18166420912859846  0.726563481916706  0.370320983677601  1.0000
  H   H19       1.0  0.6816839774319449  0.726578771999165  0.12967451064197627  1.0000
  H   H20       1.0  0.8183319613475177  0.273440207904521  0.6296793040505263  1.0000
  H   H21       1.0  0.4155806447983608  0.48976650584548753  0.7296568495651669  1.0000
  H   H22       1.0  0.08440244667388434  0.5102290646169719  0.22965046925548183  1.0000
  H   H23       1.0  0.5844187200809757  0.5102319710058296  0.2703442176681037  1.0000
  H   H24       1.0  0.9155920716013953  0.48977331310864247  0.7703513775032815  1.0000
  C   C1        1.0  0.3253037465135691  0.1381116516492895  0.5831136865332169  1.0000
  C   C2        1.0  0.1746965195982995  0.8618938198598086  0.08310930261606587  1.0000
  C   C3        1.0  0.6746970188238494  0.8618868302609569  0.4168866011832789  1.0000
  C   C4        1.0  0.8253030970119327  0.13810596402282016  0.9168917646140355  1.0000
  C   C5        1.0  0.2645399963048263  0.009742929396750798  0.6576291406047972  1.0000
  C   C6        1.0  0.235461195944751  0.9902563027672712  0.15762849879609317  1.0000
  C   C7        1.0  0.7354621694669492  0.9902555575616886  0.342371926616316  1.0000
  C   C8        1.0  0.7645386724201019  0.009744788157391299  0.8423710094094402  1.0000
  C   C9        1.0  0.26162888045126215  0.05539637602653609  0.7627624678750278  1.0000
  C   C10       1.0  0.23836659424765827  0.9445883377361709  0.2627635051470206  1.0000
  C   C11       1.0  0.7383741823286698  0.9445995019335952  0.23723704032495618  1.0000
  C   C12       1.0  0.7616316219282169  0.0554114410982578  0.7372367825784634  1.0000
  C   C13       1.0  0.3168912863867561  0.23042930589014074  0.7895872516355238  1.0000
  C   C14       1.0  0.1830936786238411  0.7695628401692575  0.28958620664023016  1.0000
  C   C15       1.0  0.6831099824124536  0.7695717900827218  0.21041303607463388  1.0000
  C   C16       1.0  0.8169050410019592  0.23043955272241584  0.7104148605896015  1.0000
  C   C17       1.0  0.37285207490729994  0.3520620269867578  0.7111415361533131  1.0000
  C   C18       1.0  0.1271361431134537  0.6479429578000192  0.2111390245012146  1.0000
  C   C19       1.0  0.6271480451647165  0.6479403709584802  0.28885953107044315  1.0000
  C   C20       1.0  0.8728647321631159  0.35206336124450377  0.7888612632023424  1.0000
  S   S1        1.0  0.19982034204771543  0.7867141761903085  0.6194383970402766  1.0000
  S   S2        1.0  0.3001816191491359  0.21329080505533676  0.11944044567977127  1.0000
  S   S3        1.0  0.800181823735926  0.21328431077350266  0.38056189067014395  1.0000
  S   S4        1.0  0.6998196496500739  0.786710290917526  0.8805598420303794  1.0000
  N   N1        1.0  0.3800385451887038  0.3075276583706951  0.6094684365639296  1.0000
  N   N2        1.0  0.11995761433740167  0.6924748259641902  0.1094642864588522  1.0000
  N   N3        1.0  0.6199594192562757  0.6924708134324291  0.3905318511647237  1.0000
  N   N4        1.0  0.8800422540274512  0.3075262649604796  0.8905352217466811  1.0000
  O   O1        1.0  0.3745097274979727  0.7392194341816634  0.576991019653363  1.0000
  O   O2        1.0  0.1254977589623394  0.2607717796415656  0.07699365153732168  1.0000
  O   O3        1.0  0.6254900309396021  0.26077381961409424  0.423007709054417  1.0000
  O   O4        1.0  0.8745035098487366  0.7392293163366616  0.9230058566621364  1.0000
  O   O5        1.0  0.13108943624365577  0.6919466140661968  0.7149148748395716  1.0000
  O   O6        1.0  0.36891205798301746  0.308047918088043  0.21491212883608304  1.0000
  O   O7        1.0  0.868913878267179  0.3080505709252391  0.2850846333572433  1.0000
  O   O8        1.0  0.6310878103818356  0.6919531728366194  0.7850873793694573  1.0000
  O   O9        1.0  0.048872310205652476  0.7796119711286451  0.540409149843178  1.0000
  O   O10       1.0  0.45112850058038123  0.22039016746769138  0.04040752925349268  1.0000
  O   O11       1.0  0.9511289586172822  0.2203891248549539  0.45958957884558765  1.0000
  O   O12       1.0  0.5488702190572852  0.7796122254293466  0.9595927584656465  1.0000
  O   O13       1.0  0.723891773854582  0.5807542790636261  0.5976187289481344  1.0000
  O   O14       1.0  0.7761144726255294  0.41925334885056736  0.0976109768106781  1.0000
  O   O15       1.0  0.27610759103661314  0.4192441977930628  0.4023815587744365  1.0000
  O   O16       1.0  0.22388374356220447  0.5807464299892259  0.9023885314040995  1.0000
