data_image0
_chemical_formula_structural       Zn2H19C18BrN2O8
_chemical_formula_sum              "Zn2 H19 C18 Br1 N2 O8"
_cell_length_a       9.7886936619744
_cell_length_b       10.865862815816516
_cell_length_c       11.17438432634877
_cell_angle_alpha    89.63461230714658
_cell_angle_beta     92.28747136894883
_cell_angle_gamma    91.92776510889931

_space_group_name_H-M_alt    "P 1"
_space_group_IT_number       1

loop_
  _space_group_symop_operation_xyz
  'x, y, z'

loop_
  _atom_site_type_symbol
  _atom_site_label
  _atom_site_symmetry_multiplicity
  _atom_site_fract_x
  _atom_site_fract_y
  _atom_site_fract_z
  _atom_site_occupancy
  Zn  Zn1       1.0  0.35536794874928296  0.497768629433132  0.4884652747776244  1.0000
  Zn  Zn2       1.0  0.6375090249217408  0.507484703241012  0.5100641261159778  1.0000
  H   H1        1.0  0.2991047293885671  0.8773730376893026  0.550384156084277  1.0000
  H   H2        1.0  0.6776000448268891  0.13038605017703023  0.3893986471788295  1.0000
  H   H3        1.0  0.6771101729130464  0.881969242472721  0.6240672171194959  1.0000
  H   H4        1.0  0.6988691411364344  0.0975806509470374  0.6133790302747784  1.0000
  H   H5        1.0  0.6751707533753477  0.5615621131904759  0.8883835710383323  1.0000
  H   H6        1.0  0.36227048645665866  0.5276554655573946  0.9022307367065423  1.0000
  H   H7        1.0  0.4218528372743222  0.42624557234047694  0.08629592018738919  1.0000
  H   H8        1.0  0.12959106328355574  0.387202839097057  0.6337397323047895  1.0000
  H   H9        1.0  0.08901460272961262  0.5186677413067996  0.406314928560043  1.0000
  H   H10       1.0  0.8697849483069859  0.3374461103847537  0.5820384808251545  1.0000
  H   H11       1.0  0.31510715282185237  0.9066249289689953  0.39650759554842807  1.0000
  H   H12       1.0  0.9008226561513981  0.5930636345528272  0.5005508152665143  1.0000
  H   H13       1.0  0.30006927577895237  0.11630538425094983  0.44111225413140426  1.0000
  H   H14       1.0  0.31803000393050246  0.08779090644857492  0.596059575782121  1.0000
  H   H15       1.0  0.5149971858482445  0.8884515984980368  0.6872703043521964  1.0000
  H   H16       1.0  0.5535919751766303  0.10140931049754445  0.7018424722914388  1.0000
  H   H17       1.0  0.6961200585670114  0.9154988862726154  0.4016185802321672  1.0000
  H   H18       1.0  0.5498864417516174  0.9048266911768154  0.30433870980495203  1.0000
  H   H19       1.0  0.5142343790864744  0.1161015160295591  0.31673787785767615  1.0000
  C   C1        1.0  0.4922120166539019  0.48603810989784074  0.2652950912947034  1.0000
  C   C2        1.0  0.5095650544258348  0.12220928796845243  0.5106073911961602  1.0000
  C   C3        1.0  0.5912246921358674  0.0663289347222289  0.6175367541741181  1.0000
  C   C4        1.0  0.5766463369526491  0.08361572018076661  0.3939933869920864  1.0000
  C   C5        1.0  0.5783543882427297  0.5493356568518308  0.9331292045358309  1.0000
  C   C6        1.0  0.46325538405130123  0.5328849401592208  0.8641582153589836  1.0000
  C   C7        1.0  0.5831906898100103  0.5523317848222078  0.06331265748622168  1.0000
  C   C8        1.0  0.49904427065086315  0.4854647942912821  0.1327386005399447  1.0000
  C   C9        1.0  0.07393423913630671  0.430000138691689  0.5580625273829867  1.0000
  C   C10       1.0  0.9225722525851766  0.423183089293211  0.5546431899652119  1.0000
  C   C11       1.0  0.511778710107329  0.7420088422045198  0.4863614783582334  1.0000
  C   C12       1.0  0.4669078770087724  0.5218672762922482  0.7318359484360355  1.0000
  C   C13       1.0  0.5138446948194827  0.2626623672403099  0.5170076818584162  1.0000
  C   C14       1.0  0.3611040963449668  0.928268761682972  0.4856257445184652  1.0000
  C   C15       1.0  0.36226535192036385  0.0683155460499805  0.5094106123169694  1.0000
  C   C16       1.0  0.5769069960591722  0.924050847134808  0.6137620112668926  1.0000
  C   C17       1.0  0.5889304496380421  0.9418535037670139  0.39097756765240627  1.0000
  C   C18       1.0  0.5078340444748903  0.882057585282304  0.4931600825055824  1.0000
  Br  Br1       1.0  0.7217635116055451  0.6641949418081339  0.1285395998405932  1.0000
  N   N1        1.0  0.14457898172431533  0.48320638091522744  0.4777486331473994  1.0000
  N   N2        1.0  0.8482867870515494  0.5130577813921067  0.5224518748351628  1.0000
  O   O1        1.0  0.37163867093987346  0.4844807927799266  0.3045532402936786  1.0000
  O   O2        1.0  0.6035069042821635  0.4858347609372729  0.32773065395175377  1.0000
  O   O3        1.0  0.3977757655183467  0.6815852835158226  0.481226260037289  1.0000
  O   O4        1.0  0.6291011349662484  0.6945750865596028  0.4886361979745999  1.0000
  O   O5        1.0  0.351193394697944  0.5085068432492648  0.6754575368399712  1.0000
  O   O6        1.0  0.5836059030380696  0.526166387899586  0.6848579334791792  1.0000
  O   O7        1.0  0.40034332443762116  0.3164425051899755  0.5067075099147331  1.0000
  O   O8        1.0  0.6308982694567575  0.3174017133326644  0.529488776622081  1.0000
