data_image0
_chemical_formula_structural       Cd4H40C40N16
_chemical_formula_sum              "Cd4 H40 C40 N16"
_cell_length_a       7.3227024950998265
_cell_length_b       11.948677478508632
_cell_length_c       13.831578682621359
_cell_angle_alpha    87.93030751874582
_cell_angle_beta     74.66773161192526
_cell_angle_gamma    72.1345086218037

_space_group_name_H-M_alt    "P 1"
_space_group_IT_number       1

loop_
  _space_group_symop_operation_xyz
  'x, y, z'

loop_
  _atom_site_type_symbol
  _atom_site_label
  _atom_site_symmetry_multiplicity
  _atom_site_fract_x
  _atom_site_fract_y
  _atom_site_fract_z
  _atom_site_occupancy
  Cd  Cd1       1.0  0.669376626978419  0.6537474690841453  0.8836503138923177  1.0000
  Cd  Cd2       1.0  0.20654426997019457  0.8463974088371491  0.6165117089148069  1.0000
  Cd  Cd3       1.0  0.3306123038342149  0.3462556115753089  0.11635023368845053  1.0000
  Cd  Cd4       1.0  0.7934621462664353  0.15361089582435747  0.38348727446834374  1.0000
  H   H1        1.0  0.2613757977992038  0.8476115918597035  0.996406648408879  1.0000
  H   H2        1.0  0.10508012820604745  0.652337152166304  0.5041336663615823  1.0000
  H   H3        1.0  0.7386235267764931  0.15239060735370202  0.0035938772416060603  1.0000
  H   H4        1.0  0.8949157883351616  0.3476539413560644  0.4958769602271218  1.0000
  H   H5        1.0  0.12746788141009102  0.9995469079953878  0.14028837187034074  1.0000
  H   H6        1.0  0.2668456800467423  0.5003511296044324  0.3602490880226625  1.0000
  H   H7        1.0  0.8725486103652144  0.0004674083194800045  0.859706182268809  1.0000
  H   H8        1.0  0.7331481224600793  0.4996364776740024  0.6397625070416666  1.0000
  H   H9        1.0  0.36718325407436936  0.03764118755452021  0.22440267763570892  1.0000
  H   H10       1.0  0.6284295691238597  0.46260962891587815  0.2757626669649085  1.0000
  H   H11       1.0  0.6328404434464618  0.9623704378003027  0.7755902791981554  1.0000
  H   H12       1.0  0.3715688963734325  0.537383160831091  0.724246031897664  1.0000
  H   H13       1.0  0.7282446404375592  0.9171816773493122  0.167372057398552  1.0000
  H   H14       1.0  0.8119290394707191  0.5832592222036084  0.33251588174777413  1.0000
  H   H15       1.0  0.2717807530487519  0.0828243878138366  0.8326121479752827  1.0000
  H   H16       1.0  0.18805431119851337  0.41674818574668393  0.6674824811741543  1.0000
  H   H17       1.0  0.9606087672985167  0.7827776892260662  0.9406834472497536  1.0000
  H   H18       1.0  0.6839656706479574  0.7171230194818747  0.5593585212445688  1.0000
  H   H19       1.0  0.03940126567632515  0.21722106527690246  0.05931937888049528  1.0000
  H   H20       1.0  0.3160258260867082  0.28287833755026537  0.4406431266985038  1.0000
  H   H21       1.0  0.981915159616605  0.7542727126538012  0.06514181410502574  1.0000
  H   H22       1.0  0.8009842314521831  0.7456461112795483  0.4348609681880902  1.0000
  H   H23       1.0  0.018084319176623065  0.24572342010081635  0.9348614860617842  1.0000
  H   H24       1.0  0.19900489012259462  0.25435796270551253  0.5651430985595809  1.0000
  H   H25       1.0  0.7035842599543682  0.6127610265194647  0.1252527323903792  1.0000
  H   H26       1.0  0.44115330016506965  0.8872333916547461  0.3749114683358811  1.0000
  H   H27       1.0  0.2964090531445795  0.38724296016907556  0.8747486527554712  1.0000
  H   H28       1.0  0.5588470448832085  0.11276349089622782  0.62508782842621  1.0000
  H   H29       1.0  0.955166504315514  0.5745847709390832  0.1341775070319287  1.0000
  H   H30       1.0  0.6635377797540017  0.9253080261093488  0.3658661142326878  1.0000
  H   H31       1.0  0.044830134052546114  0.42541837865658766  0.865825199916813  1.0000
  H   H32       1.0  0.33645230530764547  0.07469883771887711  0.6341426363072458  1.0000
  H   H33       1.0  0.2262360957255323  0.5670530459119832  0.9738313898909468  1.0000
  H   H34       1.0  0.7673437749752945  0.9327957984804134  0.5260263775909948  1.0000
  H   H35       1.0  0.7737610942615021  0.4329534167444252  0.02616499124304288  1.0000
  H   H36       1.0  0.23263790995888195  0.06720724318972063  0.4739729377407897  1.0000
  H   H37       1.0  0.15012489420173125  0.6034053536629076  0.8619799328518382  1.0000
  H   H38       1.0  0.6159977516607782  0.8966192227564206  0.6379889953954035  1.0000
  H   H39       1.0  0.8498637389407833  0.396596870409006  0.13802132040733284  1.0000
  H   H40       1.0  0.3839982244788304  0.10337766374858154  0.36201040698636433  1.0000
  C   C1        1.0  0.6397864029977071  0.4794940736059204  0.8743116634124561  1.0000
  C   C2        1.0  0.9932821281517548  0.020653060748124105  0.6258362532419567  1.0000
  C   C3        1.0  0.3602083594076787  0.5205006533507089  0.125702530540444  1.0000
  C   C4        1.0  0.00672393690418708  0.9793507473933619  0.3741596630805688  1.0000
  C   C5        1.0  0.330925139912267  0.7963281535650569  0.7491999444336982  1.0000
  C   C6        1.0  0.8756836455788527  0.7041514379661464  0.7509543618644514  1.0000
  C   C7        1.0  0.669107091286108  0.2036815605729815  0.2507883388091586  1.0000
  C   C8        1.0  0.12426440959061587  0.29582801222019134  0.2490224081148682  1.0000
  C   C9        1.0  0.3576736945475715  0.8666044273136752  0.03733547979928182  1.0000
  C   C10       1.0  0.26111549758169866  0.6334947954433191  0.46306803106934075  1.0000
  C   C11       1.0  0.6423345683969401  0.13340399713543866  0.9626672120598484  1.0000
  C   C12       1.0  0.7388820846945734  0.3665006643592152  0.5369416431095075  1.0000
  C   C13       1.0  0.28563459572323047  0.9512842912726787  0.11579186846780933  1.0000
  C   C14       1.0  0.3521714583885682  0.5487650602835288  0.3845830013033051  1.0000
  C   C15       1.0  0.7143788087414791  0.04871850913692551  0.8842001120736285  1.0000
  C   C16       1.0  0.647843847270231  0.45122327052290956  0.6154238568831047  1.0000
  C   C17       1.0  0.4193705837288419  0.9711942767125168  0.16322684673727383  1.0000
  C   C18       1.0  0.553076542119136  0.5290149674065036  0.3369438117544519  1.0000
  C   C19       1.0  0.5806435934606003  0.028810320214645906  0.8367662984295166  1.0000
  C   C20       1.0  0.44692810865109317  0.47098044804285183  0.6630645186912288  1.0000
  C   C21       1.0  0.619482950472701  0.9047274771365754  0.13149097744724264  1.0000
  C   C22       1.0  0.6549739938250667  0.5955797911920231  0.3685325481180897  1.0000
  C   C23       1.0  0.38053332117247857  0.09527012639821925  0.8685034826817812  1.0000
  C   C24       1.0  0.34502790026098723  0.40441635455903235  0.631471162798377  1.0000
  C   C25       1.0  0.6808662133423977  0.8209603321435992  0.052364154925570006  1.0000
  C   C26       1.0  0.5536216188960309  0.679237356823805  0.4477633595526953  1.0000
  C   C27       1.0  0.3191485226426565  0.17903891817423562  0.9476268342338301  1.0000
  C   C28       1.0  0.4463749793390973  0.32076306282250044  0.5522365178417772  1.0000
  C   C29       1.0  0.8956594750792632  0.7478692491927248  0.012036494582950842  1.0000
  C   C30       1.0  0.6552782139070313  0.7521526003921155  0.4880421254275902  1.0000
  C   C31       1.0  0.10434044842497765  0.2521303333607037  0.9879647046144129  1.0000
  C   C32       1.0  0.34471549756897696  0.24784253649269777  0.5119575558171547  1.0000
  C   C33       1.0  0.8596172220397945  0.5672130341776551  0.0861192228414254  1.0000
  C   C34       1.0  0.5126323214245754  0.9327935785913231  0.4139526070520533  1.0000
  C   C35       1.0  0.1403834572232158  0.4327917647452539  0.9138801128928548  1.0000
  C   C36       1.0  0.4873560274254771  0.06720869887617911  0.5860502950702724  1.0000
  C   C37       1.0  0.11806340313146517  0.5608744954800715  0.9335171644722494  1.0000
  C   C38       1.0  0.612684891843372  0.9390976667720922  0.5664372981109908  1.0000
  C   C39       1.0  0.8819399793051445  0.43912593320865084  0.06648301805221025  1.0000
  C   C40       1.0  0.3873028616664554  0.06090289752035012  0.4335670153681406  1.0000
  N   N1        1.0  0.6369342572231884  0.3826839392222469  0.8668302128078125  1.0000
  N   N2        1.0  0.8870523178897399  0.11773429105927855  0.633209999390715  1.0000
  N   N3        1.0  0.36307519628857693  0.61732049497396  0.13315788601434522  1.0000
  N   N4        1.0  0.11292870122767344  0.8822668173552303  0.3667839264704114  1.0000
  N   N5        1.0  0.38933748065502277  0.7649909598358705  0.8197991993075674  1.0000
  N   N6        1.0  0.9737512861370378  0.7353518562445559  0.6804721004497409  1.0000
  N   N7        1.0  0.6106674070981056  0.23501033193860374  0.18020048291332097  1.0000
  N   N8        1.0  0.026255110520935362  0.2646459687806343  0.31952916637126094  1.0000
  N   N9        1.0  0.5506626799876031  0.8036306632549925  0.006191938505615724  1.0000
  N   N10       1.0  0.3600436181551316  0.6964997433676177  0.49408049305163354  1.0000
  N   N11       1.0  0.4493399466902446  0.19636454906425635  0.9938101074819343  1.0000
  N   N12       1.0  0.6399596475841847  0.3034955822410269  0.5059250560370643  1.0000
  N   N13       1.0  0.9134609851929626  0.6248862790473171  0.9910525247418747  1.0000
  N   N14       1.0  0.5292420233580444  0.8752025968915761  0.5090383303964856  1.0000
  N   N15       1.0  0.08654343109387232  0.3751097429620957  0.008947372078949906  1.0000
  N   N16       1.0  0.4707437364030013  0.12479525440196683  0.49096366989770956  1.0000
