data_image0
_chemical_formula_structural       Cd2H24C24O12
_chemical_formula_sum              "Cd2 H24 C24 O12"
_cell_length_a       5.303542308268579
_cell_length_b       6.5182881833943505
_cell_length_c       19.163724226203716
_cell_angle_alpha    90.00007414446327
_cell_angle_beta     90.0004171790245
_cell_angle_gamma    114.01884271583431

_space_group_name_H-M_alt    "P 1"
_space_group_IT_number       1

loop_
  _space_group_symop_operation_xyz
  'x, y, z'

loop_
  _atom_site_type_symbol
  _atom_site_label
  _atom_site_symmetry_multiplicity
  _atom_site_fract_x
  _atom_site_fract_y
  _atom_site_fract_z
  _atom_site_occupancy
  Cd  Cd1       1.0  0.9413267926704167  0.0005943657985199  7.289274329739998e-05  1.0000
  Cd  Cd2       1.0  0.0586627011453587  0.9993925718693718  0.5000810406322316  1.0000
  H   H1        1.0  0.1576437795460777  0.4582442048028951  0.8714295046446026  1.0000
  H   H2        1.0  0.8423492633275631  0.5417402251099118  0.3714245340029122  1.0000
  H   H3        1.0  0.2979926209470065  0.4592411591119614  0.6283390999753209  1.0000
  H   H4        1.0  0.7020019314850998  0.5407562105965128  0.12833856240816735  1.0000
  H   H5        1.0  0.6303929593996855  0.9177146582070108  0.8390266364421491  1.0000
  H   H6        1.0  0.36962846662640203  0.0822793384280658  0.3390007544827966  1.0000
  H   H7        1.0  0.2850460200919755  0.9185144375849746  0.6610869961902991  1.0000
  H   H8        1.0  0.7149583363582296  0.0815120035726267  0.16107898075537005  1.0000
  H   H9        1.0  0.3479163773971692  0.28029000655044467  0.8269909964882202  1.0000
  H   H10       1.0  0.6521142485529197  0.7197004417262393  0.3269815711459572  1.0000
  H   H11       1.0  0.9307520194340813  0.2808461203055259  0.6730042503439932  1.0000
  H   H12       1.0  0.06924141991003548  0.7191502781529381  0.1730093876455996  1.0000
  H   H13       1.0  0.5385454327860587  0.07839491712960721  0.7499920066387417  1.0000
  H   H14       1.0  0.4614704990625215  0.9216194999332075  0.2499901379772566  1.0000
  H   H15       1.0  0.9538914734506395  0.911570686658429  0.7499273465940772  1.0000
  H   H16       1.0  0.046107039819979406  0.08842021445531152  0.24991912499832836  1.0000
  H   H17       1.0  0.4354967466669064  0.8626469557159238  0.07155453392718407  1.0000
  H   H18       1.0  0.564512554743189  0.1373831047874603  0.5715616946798432  1.0000
  H   H19       1.0  0.42844631354486035  0.8633222570054854  0.4285733365122367  1.0000
  H   H20       1.0  0.5715492374628681  0.13668659193707816  0.9285737265137826  1.0000
  H   H21       1.0  0.4539710812034556  0.624720481792238  0.050549188624458494  1.0000
  H   H22       1.0  0.5460164969520421  0.375297486297562  0.5505522420787726  1.0000
  H   H23       1.0  0.17252630185510046  0.6247528820885508  0.4493931115960449  1.0000
  H   H24       1.0  0.8274708407991371  0.3752579767563518  0.9493998231104895  1.0000
  C   C1        1.0  0.1525633083903274  0.7620293527767359  0.9146555052633828  1.0000
  C   C2        1.0  0.8474174947025548  0.23798095278958448  0.4146504140493049  1.0000
  C   C3        1.0  0.6078327332979188  0.7630229320683953  0.5854631337386422  1.0000
  C   C4        1.0  0.3922227541842958  0.23701575264542646  0.08545092761644209  1.0000
  C   C5        1.0  0.27698005903608464  0.6394662039641973  0.8724195463013442  1.0000
  C   C6        1.0  0.7230565956001272  0.3605148888440013  0.3724111436652108  1.0000
  C   C7        1.0  0.3602554611941002  0.640470224411594  0.6274943717379954  1.0000
  C   C8        1.0  0.6396977819170929  0.3595237671749489  0.1274946835473258  1.0000
  C   C9        1.0  0.5161414800837392  0.7353832418013581  0.8366647365294141  1.0000
  C   C10       1.0  0.48389115814411104  0.26459560394212633  0.3366532357670521  1.0000
  C   C11       1.0  0.2169123324482953  0.7361895495866762  0.6632947105482572  1.0000
  C   C12       1.0  0.7830606480195356  0.26381173030326016  0.16328898804353997  1.0000
  C   C13       1.0  0.6340582698410914  0.6122044874733775  0.793341300053356  1.0000
  C   C14       1.0  0.3659661018921909  0.3877753496119283  0.2933411111922054  1.0000
  C   C15       1.0  0.9754719081206603  0.612675084609883  0.7065082893559377  1.0000
  C   C16       1.0  0.024484170552881216  0.38730504526108683  0.2065053734785494  1.0000
  C   C17       1.0  0.5202331727175675  0.3758852689783367  0.7929852621373213  1.0000
  C   C18       1.0  0.4797792547650914  0.6241046375130708  0.29298277856044297  1.0000
  C   C19       1.0  0.8537751532183722  0.3762926246336845  0.7069861111990788  1.0000
  C   C20       1.0  0.14618534819934587  0.6236925518201205  0.20698404630648065  1.0000
  C   C21       1.0  0.6295192705950827  0.26100014836206503  0.7499613435976611  1.0000
  C   C22       1.0  0.3705006372702401  0.7390109098590473  0.2499597481703333  1.0000
  C   C23       1.0  0.862390649612955  0.7279795388465969  0.7499376579802117  1.0000
  C   C24       1.0  0.1376101948528046  0.272034875186165  0.2499302082082265  1.0000
  O   O1        1.0  0.24481973772699206  0.9781768999794879  0.9129978182164462  1.0000
  O   O2        1.0  0.7551959597150671  0.021801474523044807  0.412996114409509  1.0000
  O   O3        1.0  0.7324571300622723  0.9790289498058655  0.5871952147535494  1.0000
  O   O4        1.0  0.26751519463739026  0.020967764241298408  0.08718790081830717  1.0000
  O   O5        1.0  0.9445759361281106  0.6494377214230198  0.9532755429741611  1.0000
  O   O6        1.0  0.0554047534876858  0.3505362484879342  0.4532700601490801  1.0000
  O   O7        1.0  0.7032149767262796  0.650320864951361  0.5468637079763068  1.0000
  O   O8        1.0  0.2967988507548683  0.34968193319145513  0.046858155064434484  1.0000
  O   O9        1.0  0.5632659973425549  0.7895882449491229  0.0599269398302695  1.0000
  O   O10       1.0  0.4367319817346882  0.21043491165806222  0.5599250216137648  1.0000
  O   O11       1.0  0.22760269566743577  0.7897304270732733  0.44013925610585847  1.0000
  O   O12       1.0  0.7724062668098526  0.21028196612441974  0.940143706551488  1.0000
