data_image0
_chemical_formula_structural       Gd2Fe4H50C72N4O16
_chemical_formula_sum              "Gd2 Fe4 H50 C72 N4 O16"
_cell_length_a       11.475986772302495
_cell_length_b       11.96832395875672
_cell_length_c       13.6101
_cell_angle_alpha    94.90320768566592
_cell_angle_beta     109.04139867608794
_cell_angle_gamma    117.202905563081

_space_group_name_H-M_alt    "P 1"
_space_group_IT_number       1

loop_
  _space_group_symop_operation_xyz
  'x, y, z'

loop_
  _atom_site_type_symbol
  _atom_site_label
  _atom_site_symmetry_multiplicity
  _atom_site_fract_x
  _atom_site_fract_y
  _atom_site_fract_z
  _atom_site_occupancy
  Gd  Gd1       1.0  0.7986912278365635  0.3596399421768979  0.38157933876214395  1.0000
  Gd  Gd2       1.0  0.20130977550970636  0.6403602775524107  0.6184202190191428  1.0000
  Fe  Fe1       1.0  0.8510116669259132  0.7630183437480582  0.2502674886021764  1.0000
  Fe  Fe2       1.0  0.1489874927721004  0.23698187598125034  0.7497330314996944  1.0000
  Fe  Fe3       1.0  0.7730591892915939  0.6528435633596672  0.7497948022979556  1.0000
  Fe  Fe4       1.0  0.22694033841504077  0.34715567805570663  0.2502050107601547  1.0000
  H   H1        1.0  0.5241758908036046  0.3233904759530475  0.11586472568724554  1.0000
  H   H2        1.0  0.475826216568535  0.6766068088344568  0.8841319762142701  1.0000
  H   H3        1.0  0.07880303470005869  0.9730603889084294  0.42973009873723805  1.0000
  H   H4        1.0  0.921198708268598  0.0269427657626835  0.5702698831062988  1.0000
  H   H5        1.0  0.8500315497945294  0.9943631748373464  0.3171882351572322  1.0000
  H   H6        1.0  0.14996816371898797  0.005638023205897  0.682811776079653  1.0000
  H   H7        1.0  0.6085149356977765  0.7602438454291374  0.264045542127782  1.0000
  H   H8        1.0  0.3914836701847264  0.2397553959862364  0.7359510783483214  1.0000
  H   H9        1.0  0.6872364303226561  0.5925422490502896  0.34436785732150804  1.0000
  H   H10       1.0  0.3127629115770958  0.4074550357372146  0.6556288185639827  1.0000
  H   H11       1.0  0.025149115833556793  0.6630307463620966  0.23922799394085809  1.0000
  H   H12       1.0  0.9748496758558289  0.3369704516811467  0.7607739679532415  1.0000
  H   H13       1.0  0.0896376301266811  0.9008040783165541  0.20028796711552835  1.0000
  H   H14       1.0  0.9103617153782153  0.099198098040624  0.7997134859135853  1.0000
  H   H15       1.0  0.8385842621972229  0.8829430008100446  0.07997556128348994  1.0000
  H   H16       1.0  0.16141231783528545  0.1170591755471406  0.9200258657295989  1.0000
  H   H17       1.0  0.6211308343649264  0.6374165309227848  0.04356197291816943  1.0000
  H   H18       1.0  0.3788642700279539  0.3625846671204584  0.9564404441202042  1.0000
  H   H19       1.0  0.01804178333522802  0.640674316325466  0.8693063850452986  1.0000
  H   H20       1.0  0.9819588520024211  0.3593268817177773  0.13069314503128737  1.0000
  H   H21       1.0  0.8376473626608953  0.6253441369681241  0.9623935872242624  1.0000
  H   H22       1.0  0.16235216504573907  0.3746551044472568  0.037605491085386696  1.0000
  H   H23       1.0  0.56535533387202  0.474596721078278  0.8109644528209258  1.0000
  H   H24       1.0  0.43464566947424277  0.5254034986510305  0.1890365744572761  1.0000
  H   H25       1.0  0.5754943440390079  0.3951175187062361  0.6225570619462244  1.0000
  H   H26       1.0  0.4245053694745096  0.6048836793370143  0.37744294929066763  1.0000
  H   H27       1.0  0.5706035263496005  0.632278426137546  0.5560296901595619  1.0000
  H   H28       1.0  0.42939729118978665  0.3677198369639001  0.4439704041913969  1.0000
  H   H29       1.0  0.8483372192066623  0.7369325809922032  0.5815620344429105  1.0000
  H   H30       1.0  0.15166267650859308  0.2630656821092359  0.4184392758168015  1.0000
  H   H31       1.0  0.020284917428583064  0.893783697520874  0.7852908712395602  1.0000
  H   H32       1.0  0.9797160859176867  0.10621652220843461  0.2147101560386416  1.0000
  H   H33       1.0  0.8492535164664401  0.8852782361722618  0.8881220950220549  1.0000
  H   H34       1.0  0.1507465650556981  0.11472198355704681  0.11187794391951658  1.0000
  H   H35       1.0  0.5684350182844254  0.2462817282448739  0.5092408990761966  1.0000
  H   H36       1.0  0.4315648774308372  0.7537165348565651  0.4907589416866073  1.0000
  H   H37       1.0  0.34110080842108903  0.0546280718018366  0.5008488396664105  1.0000
  H   H38       1.0  0.6589011167493125  0.945372147927479  0.4991517064514922  1.0000
  H   H39       1.0  0.22694515292470635  0.8427352764062448  0.36380510257546916  1.0000
  H   H40       1.0  0.7730562184301843  0.157263965009129  0.6361959524074193  1.0000
  H   H41       1.0  0.5299352441699198  0.82792066849251  0.010858154404083036  1.0000
  H   H42       1.0  0.47006354751947294  0.1720805295507333  0.9891393989992634  1.0000
  H   H43       1.0  0.7435014675161682  0.0359902130311411  0.02683500600544161  1.0000
  H   H44       1.0  0.2564982459973492  0.9640109850121021  0.9731642704829893  1.0000
  H   H45       1.0  0.8396235395274942  0.23706796760750853  0.17549679611239105  1.0000
  H   H46       1.0  0.16037838564290038  0.7629322521218  0.8245052195024272  1.0000
  H   H47       1.0  0.22857348793397844  0.7151915104205244  0.2049130861510163  1.0000
  H   H48       1.0  0.7714260397726561  0.2848077309948565  0.7950867269070867  1.0000
  H   H49       1.0  0.34008070345748104  0.7102568949336998  0.07836891740026179  1.0000
  H   H50       1.0  0.6599184562405327  0.2897433247956087  0.9216301332046938  1.0000
  C   C1        1.0  0.9977477280595861  0.7076154473099123  0.46153137787653964  1.0000
  C   C2        1.0  0.0022529072780556767  0.292385750733331  0.538471825942345  1.0000
  C   C3        1.0  0.912951754483771  0.7654641285849024  0.40825744068240505  1.0000
  C   C4        1.0  0.08704777322286358  0.23453511283047132  0.5917438418726205  1.0000
  C   C5        1.0  0.9664960796640185  0.8967753815333026  0.398263371152062  1.0000
  C   C6        1.0  0.03350344804261599  0.1032238598820712  0.6017379114029636  1.0000
  C   C7        1.0  0.8457459287658933  0.907478135979332  0.3382523012099624  1.0000
  C   C8        1.0  0.15425618221139095  0.092524040377846  0.6617491778351761  1.0000
  C   C9        1.0  0.7175029846448097  0.7835688062611651  0.31107883858834373  1.0000
  C   C10       1.0  0.2824967288687148  0.2164323917820852  0.6889211726485412  1.0000
  C   C11       1.0  0.7580399983250814  0.6952407543494132  0.35309368808473346  1.0000
  C   C12       1.0  0.24196008319706408  0.3047594653799024  0.6469078203537606  1.0000
  C   C13       1.0  0.7194625903793649  0.47136828509364653  0.14945817933620015  1.0000
  C   C14       1.0  0.28054375449964647  0.5286250864381188  0.850543802639315  1.0000
  C   C15       1.0  0.7975007704504264  0.6040198281326354  0.1398041080223109  1.0000
  C   C16       1.0  0.2024959917838203  0.39597941328273834  0.8601956790197676  1.0000
  C   C17       1.0  0.9511883386795429  0.6902454833986411  0.19152309140268625  1.0000
  C   C18       1.0  0.0488098991943389  0.3097547363306745  0.808475705614107  1.0000
  C   C19       1.0  0.9836051502024288  0.813744899578154  0.17055821278595568  1.0000
  C   C20       1.0  0.016392165847321383  0.1862553201511545  0.8294410653911368  1.0000
  C   C21       1.0  0.8505305953525877  0.8047072354490439  0.10728507985201918  1.0000
  C   C22       1.0  0.1494652450575416  0.1952920059663299  0.8927159230988193  1.0000
  C   C23       1.0  0.7351135541921252  0.6758094829776411  0.08828039660950539  1.0000
  C   C24       1.0  0.2648846836817569  0.3241907367516674  0.9117206046526647  1.0000
  C   C25       1.0  0.8755169149962041  0.5084023590931537  0.635865372219591  1.0000
  C   C26       1.0  0.12448667162070852  0.49160079557795916  0.36413658629718526  1.0000
  C   C27       1.0  0.816375002313279  0.511804934958171  0.7177391381823452  1.0000
  C   C28       1.0  0.18362544721748716  0.4881943064572027  0.2822601937154657  1.0000
  C   C29       1.0  0.9015659568523374  0.5871341296190593  0.829822719413414  1.0000
  C   C30       1.0  0.0984350464939254  0.4128660901102492  0.17017757311631948  1.0000
  C   C31       1.0  0.806242297850197  0.5770760840560172  0.87928113260034  1.0000
  C   C32       1.0  0.19375907350470095  0.4229231573593566  0.12071918763409424  1.0000
  C   C33       1.0  0.6616702576027933  0.4960736468875808  0.7988373204103849  1.0000
  C   C34       1.0  0.33833019192797303  0.503925594527793  0.2011634809843413  1.0000
  C   C35       1.0  0.6671329297119328  0.45472031686620806  0.6993934908704346  1.0000
  C   C36       1.0  0.33286604417919813  0.5452779462352311  0.30060756580112263  1.0000
  C   C37       1.0  0.5414575714450081  0.7134579381281654  0.7549187314813108  1.0000
  C   C38       1.0  0.45854343190126196  0.2865422816011431  0.24508009155150748  1.0000
  C   C39       1.0  0.6668493679610776  0.7511386776385365  0.7285111268640205  1.0000
  C   C40       1.0  0.33315126737656436  0.2488625204047139  0.27148840321256523  1.0000
  C   C41       1.0  0.6662149517387732  0.7020860169507728  0.6277415186855605  1.0000
  C   C42       1.0  0.33378476177474425  0.2979151810924705  0.37225849255132454  1.0000
  C   C43       1.0  0.8122474878833115  0.7577657762324463  0.6414278466382014  1.0000
  C   C44       1.0  0.18775351546295835  0.2422344434968622  0.3585731806400004  1.0000
  C   C45       1.0  0.9036495324532864  0.8401310047119708  0.7501890627889977  1.0000
  C   C46       1.0  0.09635054906885897  0.1598692150173378  0.24981171090103516  1.0000
  C   C47       1.0  0.8147081887197839  0.8362911225181264  0.8044201597096287  1.0000
  C   C48       1.0  0.18529152479373318  0.1637100755251168  0.19557911677880208  1.0000
  C   C49       1.0  0.5112859583997249  0.1531980922963569  0.4476476319396809  1.0000
  C   C50       1.0  0.4887150449465451  0.8468021274329516  0.5523526605900598  1.0000
  C   C51       1.0  0.3849522740572766  0.0457684608088442  0.44264935745930245  1.0000
  C   C52       1.0  0.6150490972976143  0.9542307806065295  0.5573509627751249  1.0000
  C   C53       1.0  0.32147869335600626  0.9286830905147809  0.36608138124933015  1.0000
  C   C54       1.0  0.6785232318143883  0.0713171292145276  0.6339191648685726  1.0000
  C   C55       1.0  0.38217568984882877  0.920732333167166  0.29229937720187843  1.0000
  C   C56       1.0  0.6178247596819304  0.0792669082482078  0.7076999546959255  1.0000
  C   C57       1.0  0.5079432778983913  0.0359285792532518  0.3018957427504318  1.0000
  C   C58       1.0  0.492055881799615  0.9640716404760568  0.6981033078545237  1.0000
  C   C59       1.0  0.5711503351341918  0.0336412812738374  0.22635337883697554  1.0000
  C   C60       1.0  0.4288512220275819  0.9663599167694131  0.7736464048277722  1.0000
  C   C61       1.0  0.509546965054831  0.9150737653686393  0.14597617186051073  1.0000
  C   C62       1.0  0.4904534844759353  0.0849254760467346  0.8540238947857616  1.0000
  C   C63       1.0  0.574542225435593  0.9166048266765046  0.07376010083499547  1.0000
  C   C64       1.0  0.42545877791067  0.083395393052804  0.9262394569462842  1.0000
  C   C65       1.0  0.692895977212622  0.0315868220108868  0.08278872758768327  1.0000
  C   C66       1.0  0.30710502613364815  0.9684133977184218  0.9172108301935962  1.0000
  C   C67       1.0  0.7457621859104009  0.1443560909541972  0.1641718921647666  1.0000
  C   C68       1.0  0.2542388174358691  0.8556441287751113  0.8358284003649741  1.0000
  C   C69       1.0  0.32322682276413417  0.8033327043707388  0.21014395499157248  1.0000
  C   C70       1.0  0.6767723369338796  0.19666751535856972  0.7898558303618444  1.0000
  C   C71       1.0  0.38479715908364637  0.8003899360550477  0.14005720886617468  1.0000
  C   C72       1.0  0.6152023686229882  0.1996093053603261  0.8599418694434744  1.0000
  N   N1        1.0  0.5716159457020851  0.1493327739402091  0.3797939574785899  1.0000
  N   N2        1.0  0.4283841358200532  0.8506674457890994  0.6202053467145274  1.0000
  N   N3        1.0  0.6873854513382367  0.1460945548162229  0.23398274459979965  1.0000
  N   N4        1.0  0.312615920016654  0.8539046865991508  0.7660183103830888  1.0000
  O   O1        1.0  0.9351224572835191  0.5829821652800291  0.43895344358310234  1.0000
  O   O2        1.0  0.06487578059036278  0.4170180544492795  0.5610460881821522  1.0000
  O   O3        1.0  0.12760780857885118  0.7818107761204374  0.5297577324444872  1.0000
  O   O4        1.0  0.8723924587501699  0.21819140023674072  0.4702439741727885  1.0000
  O   O5        1.0  0.781082188298825  0.42569863399220503  0.2117096476611451  1.0000
  O   O6        1.0  0.21891734661809886  0.5743103905625162  0.7882894332057829  1.0000
  O   O7        1.0  0.580691659874276  0.40597093349821733  0.08708132699955236  1.0000
  O   O8        1.0  0.4193071282099723  0.5940253729753522  0.9129151230024702  1.0000
  O   O9        1.0  0.7932797844564446  0.4139676716007656  0.5489943191139017  1.0000
  O   O10       1.0  0.20671789960193362  0.5860315698146081  0.4510042520194233  1.0000
  O   O11       1.0  0.002920725008166909  0.5996379600189456  0.6588257250748484  1.0000
  O   O12       1.0  0.9970776950674604  0.4003593247685586  0.34117216671939576  1.0000
  O   O13       1.0  0.4158199089307573  0.629102819105384  0.6833485995310723  1.0000
  O   O14       1.0  0.5841820162396373  0.3708974006239245  0.316650477089908  1.0000
  O   O15       1.0  0.5678210784984542  0.7690926949688475  0.8507981761167326  1.0000
  O   O16       1.0  0.4321795568391948  0.23090850307440292  0.14919988446293786  1.0000
