data_image0
_chemical_formula_structural       Hg2H32C44I4N12Cl4O4
_chemical_formula_sum              "Hg2 H32 C44 I4 N12 Cl4 O4"
_cell_length_a       4.021953760406337
_cell_length_b       15.042928293722932
_cell_length_c       22.0519
_cell_angle_alpha    104.9657194224486
_cell_angle_beta     95.43260761606776
_cell_angle_gamma    89.94804341727743

_space_group_name_H-M_alt    "P 1"
_space_group_IT_number       1

loop_
  _space_group_symop_operation_xyz
  'x, y, z'

loop_
  _atom_site_type_symbol
  _atom_site_label
  _atom_site_symmetry_multiplicity
  _atom_site_fract_x
  _atom_site_fract_y
  _atom_site_fract_z
  _atom_site_occupancy
  Hg  Hg1       1.0  4.9951445575e-06  0.0  8.625293899999999e-08  1.0000
  Hg  Hg2       1.0  4.391739589726313e-08  0.499999823861323  4.68552663276427e-07  1.0000
  H   H1        1.0  0.0818696007275079  0.3704012648596873  0.13708082646976993  1.0000
  H   H2        1.0  0.946917042469792  0.129504260451121  0.8624322909672414  1.0000
  H   H3        1.0  0.918116029625409  0.6295990711735371  0.8629180776493043  1.0000
  H   H4        1.0  0.05304872961598758  0.8704974522032884  0.13756333843046048  1.0000
  H   H5        1.0  0.8791817346042023  0.2289458676746534  0.05111348829745308  1.0000
  H   H6        1.0  0.8304558855918032  0.2709066577209001  0.9481927165580115  1.0000
  H   H7        1.0  0.1208137637267512  0.7710530917374001  0.9488853437074737  1.0000
  H   H8        1.0  0.1695171957441914  0.7290929900017389  0.051803582240388744  1.0000
  H   H9        1.0  0.384797445568573  0.0619438230278178  0.1512094511099988  1.0000
  H   H10       1.0  0.23459349039352156  0.43797684511591944  0.8485331225998889  1.0000
  H   H11       1.0  0.615205851256917  0.9380585779371771  0.8487919357270639  1.0000
  H   H12       1.0  0.7654051170651002  0.5620289974020097  0.15146924300996287  1.0000
  H   H13       1.0  0.2266159138184705  0.495936726462233  0.46398118745292993  1.0000
  H   H14       1.0  0.7620100902101186  0.0041973179636798  0.5361620544088339  1.0000
  H   H15       1.0  0.7733765365403542  0.5040560381545305  0.5360246631973523  1.0000
  H   H16       1.0  0.2379731037260697  0.995803706380137  0.46383828932078325  1.0000
  H   H17       1.0  0.4705946498029477  0.3752407766016788  0.5121908173403966  1.0000
  H   H18       1.0  0.9556029376093349  0.1249710469206491  0.4880766669217492  1.0000
  H   H19       1.0  0.5293926219447016  0.6247499230833214  0.48781231274858067  1.0000
  H   H20       1.0  0.0443825092769714  0.875027224180819  0.5119209633159584  1.0000
  H   H21       1.0  0.3948221695338461  0.2097984437465286  0.45331032836580215  1.0000
  H   H22       1.0  0.9387295348574156  0.29034661364879366  0.5468910899087405  1.0000
  H   H23       1.0  0.6051802711140937  0.790194320870235  0.5466888926553961  1.0000
  H   H24       1.0  0.06126590231799869  0.7096516574526746  0.4531053524078459  1.0000
  H   H25       1.0  0.0501603588231987  0.1659537476217992  0.3502029673817616  1.0000
  H   H26       1.0  0.6985058430568997  0.3341741020088307  0.6498094250531423  1.0000
  H   H27       1.0  0.9498524390470847  0.834043146858491  0.6497935322000785  1.0000
  H   H28       1.0  0.3015024489131406  0.665828298956157  0.3501888737072035  1.0000
  H   H29       1.0  0.637145110759448  0.3378242130553062  0.2767869089325217  1.0000
  H   H30       1.0  0.36055633938735093  0.1621329355495789  0.722920476729648  1.0000
  H   H31       1.0  0.3628806030610008  0.6621774995990961  0.7232142902570757  1.0000
  H   H32       1.0  0.6394320943155448  0.8378708420365868  0.2770786285903028  1.0000
  C   C1        1.0  0.1504680139931551  0.3015881021668108  0.14051282715303154  1.0000
  C   C2        1.0  0.012072781248001298  0.1983132932804708  0.8590486577814712  1.0000
  C   C3        1.0  0.8495301653766916  0.6984129221770061  0.8594859614327388  1.0000
  C   C4        1.0  0.9879007281767614  0.8016911726162803  0.1409489506626898  1.0000
  C   C5        1.0  0.038157933304916  0.2236183437260024  0.09286638922890939  1.0000
  C   C6        1.0  0.9474501911068672  0.2762816751001083  0.906593090150693  1.0000
  C   C7        1.0  0.9618400625983199  0.7763806156860511  0.9071324859024799  1.0000
  C   C8        1.0  0.05252551011248131  0.7237193492437088  0.09340531029685907  1.0000
  C   C9        1.0  0.31476847378750966  0.1307631805159915  0.1480907721687785  1.0000
  C   C10       1.0  0.1682059718811999  0.369139591552468  0.8516189735643633  1.0000
  C   C11       1.0  0.6852372594547163  0.869238532138418  0.8519082681064133  1.0000
  C   C12       1.0  0.8317898933829893  0.6308634977231122  0.14838240620329657  1.0000
  C   C13       1.0  0.4274630928615437  0.2091817174599626  0.19525243528919128  1.0000
  C   C14       1.0  0.233726356566784  0.2907293143355432  0.8045358723492627  1.0000
  C   C15       1.0  0.5725477578363112  0.7908213718156105  0.8047460289076368  1.0000
  C   C16       1.0  0.7662746873085808  0.7092758398718004  0.1954646001743896  1.0000
  C   C17       1.0  0.6525574092930883  0.2000808748696414  0.2517181775703534  1.0000
  C   C18       1.0  0.4016386878873561  0.299843234827037  0.7482147474963766  1.0000
  C   C19       1.0  0.347462820138496  0.7999153313000635  0.7482792360322107  1.0000
  C   C20       1.0  0.5983767910218275  0.7001557245850165  0.2517876038499408  1.0000
  C   C21       1.0  0.9408165522155656  0.3054873816460244  0.3488656164581982  1.0000
  C   C22       1.0  0.5916200444979864  0.1946094940081551  0.6511378061707304  1.0000
  C   C23       1.0  0.059196367965796484  0.6945108894554437  0.6511343020733165  1.0000
  C   C24       1.0  0.4083832523274964  0.8053929069568326  0.3488631271906613  1.0000
  C   C25       1.0  0.9984059827554788  0.3992401018623752  0.3810360946443011  1.0000
  C   C26       1.0  0.6174021964794107  0.1008581504129822  0.619004577029493  1.0000
  C   C27       1.0  0.0016043786980687901  0.6007574809285074  0.6189672862560514  1.0000
  C   C28       1.0  0.3826009780349935  0.8991428739308276  0.38099565823620907  1.0000
  C   C29       1.0  0.18733641115408517  0.4235223227746019  0.4394637921582073  1.0000
  C   C30       1.0  0.7471837061286379  0.0766007086819087  0.560698263799054  1.0000
  C   C31       1.0  0.8126586590880933  0.5764718184633326  0.5605405323359136  1.0000
  C   C32       1.0  0.2528068582133045  0.9233989390407302  0.4393024181656101  1.0000
  C   C33       1.0  0.3255084190768684  0.3555943274974851  0.46623848466651197  1.0000
  C   C34       1.0  0.8575102205331646  0.14455761300371253  0.5339822997158945  1.0000
  C   C35       1.0  0.6744841535930347  0.6443998137404563  0.5337644362741542  1.0000
  C   C36       1.0  0.14247778508096326  0.8554413464083412  0.46601685638528767  1.0000
  C   C37       1.0  0.27945034422316445  0.2630791897177858  0.4336380446867452  1.0000
  C   C38       1.0  0.8438877661610817  0.2370610495034242  0.5665518811962399  1.0000
  C   C39       1.0  0.7205471624357642  0.7369142632095631  0.5663621193428554  1.0000
  C   C40       1.0  0.1561078544809504  0.7629392865298075  0.4334462884773841  1.0000
  C   C41       1.0  0.0876524017384099  0.2378711910651248  0.375702991483827  1.0000
  C   C42       1.0  0.710766653224418  0.2622422040431687  0.6243782675965477  1.0000
  C   C43       1.0  0.9123604572874128  0.762126391725758  0.6242963512620108  1.0000
  C   C44       1.0  0.2892390800178077  0.7377595086112407  0.3756207726786441  1.0000
  I   I1        1.0  0.8051774142535137  0.5030641825976758  0.3403592561960734  1.0000
  I   I2        1.0  0.46527259300991364  0.9970454186803153  0.6595377223486094  1.0000
  I   I3        1.0  0.19482557679427967  0.4969347768143777  0.6596460538475524  1.0000
  I   I4        1.0  0.5347233945653541  0.0029590472164429  0.34046435551474724  1.0000
  N   N1        1.0  0.345057580715924  0.2942087243562739  0.19139455354840604  1.0000
  N   N2        1.0  0.1553641710200822  0.2056857879851322  0.8083234211233543  1.0000
  N   N3        1.0  0.6549507112541164  0.7057936766087209  0.8086032917362758  1.0000
  N   N4        1.0  0.8446191452271846  0.7943166129798628  0.19167535332363161  1.0000
  N   N5        1.0  0.1210482242462163  0.1389595829940973  0.09707005159230417  1.0000
  N   N6        1.0  0.025794666321921497  0.3609624617708107  0.9024765956048526  1.0000
  N   N7        1.0  0.8789499551236375  0.8610414413497125  0.9029300974204588  1.0000
  N   N8        1.0  0.9741886499253383  0.639039939194177  0.09752263231779779  1.0000
  N   N9        1.0  0.7402758492464301  0.2834979233013613  0.2917075493254089  1.0000
  N   N10       1.0  0.4486115469483635  0.2165074070446593  0.7081461536096681  1.0000
  N   N11       1.0  0.2597448694294613  0.716503789353041  0.7082912962329287  1.0000
  N   N12       1.0  0.5513894969270012  0.7834977471626844  0.29185431891398383  1.0000
  Cl  Cl1       1.0  0.5628905437314913  0.0873411070920938  0.9547136758675592  1.0000
  Cl  Cl2       1.0  0.6098768407922748  0.4124597950093829  0.044845164102674986  1.0000
  Cl  Cl3       1.0  0.4371201846552921  0.9126606055623085  0.045287718038892345  1.0000
  Cl  Cl4       1.0  0.39012377499431483  0.5875405410238415  0.955155812677873  1.0000
  O   O1        1.0  0.7431840572444841  0.1235896075711693  0.2575776660813958  1.0000
  O   O2        1.0  0.48658108481388507  0.3763592813066623  0.742497609055178  1.0000
  O   O3        1.0  0.2568193618920773  0.8764141700149963  0.74241897714338  1.0000
  O   O4        1.0  0.5134675964013765  0.6236479378324447  0.2575076776067391  1.0000
