data_image0
_chemical_formula_structural       Cu3H20C12N22O2
_chemical_formula_sum              "Cu3 H20 C12 N22 O2"
_cell_length_a       7.818413180013977
_cell_length_b       8.517296527116363
_cell_length_c       10.805892161053002
_cell_angle_alpha    67.81709433089894
_cell_angle_beta     72.70617776069447
_cell_angle_gamma    87.12992285172054

_space_group_name_H-M_alt    "P 1"
_space_group_IT_number       1

loop_
  _space_group_symop_operation_xyz
  'x, y, z'

loop_
  _atom_site_type_symbol
  _atom_site_label
  _atom_site_symmetry_multiplicity
  _atom_site_fract_x
  _atom_site_fract_y
  _atom_site_fract_z
  _atom_site_occupancy
  Cu  Cu1       1.0  0.49751280222758243  0.49851013882605594  0.001029604221244544  1.0000
  Cu  Cu2       1.0  0.10395291813406968  0.35637173389382315  0.10945702334552725  1.0000
  Cu  Cu3       1.0  0.8981333971472552  0.6440747757368609  0.8905475012460614  1.0000
  H   H1        1.0  0.865425553786224  0.5427866869252894  0.3045936988964898  1.0000
  H   H2        1.0  0.13561299435347954  0.45698457567863215  0.6950051489000161  1.0000
  H   H3        1.0  0.614949984829309  0.34645846930686724  0.5574162188710189  1.0000
  H   H4        1.0  0.3854535324224315  0.6534898671450973  0.44217186665640196  1.0000
  H   H5        1.0  0.8895799946646079  0.873787339634319  0.43830745859356307  1.0000
  H   H6        1.0  0.11072701377663212  0.12604905108808137  0.5615704207297654  1.0000
  H   H7        1.0  0.8080852625960446  0.955561133326995  0.290827020973154  1.0000
  H   H8        1.0  0.19227290555506474  0.04428437243200989  0.7089592063037246  1.0000
  H   H9        1.0  0.5830794507926028  0.9027448130917008  0.574744312809564  1.0000
  H   H10       1.0  0.41679525427031905  0.09740084702814038  0.4251850033396636  1.0000
  H   H11       1.0  0.4949703627621104  0.04311363503547478  0.6630924925728934  1.0000
  H   H12       1.0  0.5054047091917582  0.9570896157367623  0.33685828537312557  1.0000
  H   H13       1.0  0.6956686672246023  0.9444814580176127  0.6820459670562827  1.0000
  H   H14       1.0  0.30457366395905433  0.05550808484388629  0.3177602083395499  1.0000
  H   H15       1.0  0.26666097217487555  0.9353182284121356  0.11700485792645317  1.0000
  H   H16       1.0  0.7335983293978215  0.06468368336844321  0.8827679801063156  1.0000
  H   H17       1.0  0.03907293503618797  0.8893419955797411  0.12872649807182773  1.0000
  H   H18       1.0  0.9612168472090445  0.11063105751801319  0.8711686642441947  1.0000
  H   H19       1.0  0.12813612558598209  0.7692957125827105  0.2695263888479147  1.0000
  H   H20       1.0  0.8722412900625399  0.23056999971492326  0.730260665319392  1.0000
  C   C1        1.0  0.8468815804495975  0.1406895463174962  0.3726448303652461  1.0000
  C   C2        1.0  0.1533979348622836  0.8591324539257312  0.6271295509141481  1.0000
  C   C3        1.0  0.8322662451362958  0.4069262814670579  0.35246092430728754  1.0000
  C   C4        1.0  0.1683231045437097  0.5929069346951721  0.6471554157258269  1.0000
  C   C5        1.0  0.7088162726039541  0.31187934683945423  0.4770532317161909  1.0000
  C   C6        1.0  0.29164843690731596  0.6880914609776524  0.522557302742058  1.0000
  C   C7        1.0  0.8995335970377879  0.9858241326827578  0.3411379569597344  1.0000
  C   C8        1.0  0.10078453857379797  0.014004285820775  0.6587056469480004  1.0000
  C   C9        1.0  0.6172201828772897  0.9992752318906566  0.6089715594669941  1.0000
  C   C10       1.0  0.3829904490738442  0.0008066900335635022  0.39088132809419573  1.0000
  C   C11       1.0  0.1297218620891982  0.8959015233677546  0.18784024983043685  1.0000
  C   C12       1.0  0.8706085259000602  0.10401741777420878  0.8120271421556281  1.0000
  N   N1        1.0  0.9161995374515042  0.2989688776194796  0.2884099081572844  1.0000
  N   N2        1.0  0.08425021757347646  0.7007362740418228  0.7112948546039136  1.0000
  N   N3        1.0  0.32546074240994466  0.394625055139258  0.9456159139565797  1.0000
  N   N4        1.0  0.6738241027805358  0.6057749295030985  0.052861955481070345  1.0000
  N   N5        1.0  0.28599918629366516  0.45283256449501846  0.1712422114545334  1.0000
  N   N6        1.0  0.7122311847152858  0.5503344725343098  0.8298242081644319  1.0000
  N   N7        1.0  0.9550268644732683  0.3119049191049044  0.004583257308468016  1.0000
  N   N8        1.0  0.04414463257999299  0.6894443216080217  0.9961169826243579  1.0000
  N   N9        1.0  0.7995211349907052  0.2598652930888646  0.05742203899641405  1.0000
  N   N10       1.0  0.19966481461075597  0.741501332497826  0.9428182028351345  1.0000
  N   N11       1.0  0.3575725136692327  0.31198703977103287  0.8724255372413979  1.0000
  N   N12       1.0  0.6419673159239067  0.6867883808820351  0.12757422441069372  1.0000
  N   N13       1.0  0.7198179518119616  0.14464720133589276  0.48852538310346455  1.0000
  N   N14       1.0  0.2804726695058264  0.8553031330951482  0.5112024422472318  1.0000
  N   N15       1.0  0.29011897697293415  0.4189986831711394  0.28969079304540196  1.0000
  N   N16       1.0  0.7095416223986675  0.5806625511261672  0.7113156314977901  1.0000
  N   N17       1.0  0.6466360516256557  0.21522996975576794  0.10036173437202213  1.0000
  N   N18       1.0  0.35249710439048687  0.7862273124460871  0.8996147696861884  1.0000
  N   N19       1.0  0.38530379927398434  0.2355717946111824  0.8002148892168391  1.0000
  N   N20       1.0  0.614184874412423  0.7626985280743666  0.2000552306193556  1.0000
  N   N21       1.0  0.2906861391988755  0.3887951956797906  0.40392428028856403  1.0000
  N   N22       1.0  0.7092600485009156  0.6092907565899635  0.5973563278479477  1.0000
  O   O1        1.0  0.0780325388296745  0.020736969499729693  0.24847822824393256  1.0000
  O   O2        1.0  0.9222738910627513  0.9790883228887564  0.7514586400894744  1.0000
