data_image0
_chemical_formula_structural       Cu2H20C36I6N6O8
_chemical_formula_sum              "Cu2 H20 C36 I6 N6 O8"
_cell_length_a       8.982635851413358
_cell_length_b       9.489065453657274
_cell_length_c       14.250476580014512
_cell_angle_alpha    90.00008927606511
_cell_angle_beta     89.99982720211042
_cell_angle_gamma    107.49534781928794

_space_group_name_H-M_alt    "P 1"
_space_group_IT_number       1

loop_
  _space_group_symop_operation_xyz
  'x, y, z'

loop_
  _atom_site_type_symbol
  _atom_site_label
  _atom_site_symmetry_multiplicity
  _atom_site_fract_x
  _atom_site_fract_y
  _atom_site_fract_z
  _atom_site_occupancy
  Cu  Cu1       1.0  0.18798435956082932  0.239016209659539  0.5730488877033578  1.0000
  Cu  Cu2       1.0  0.8120153862055022  0.7609854846971232  0.07304711247833497  1.0000
  H   H1        1.0  0.0802209235458733  0.9884816077735435  0.711416834438644  1.0000
  H   H2        1.0  0.9197885072632844  0.011531075440999003  0.2114109632962878  1.0000
  H   H3        1.0  0.8601598141311302  0.7516028473262039  0.714038953376402  1.0000
  H   H4        1.0  0.13986111041050006  0.2483974851630747  0.21402726563453453  1.0000
  H   H5        1.0  0.655418682055398  0.7064296759788461  0.5861823496712475  1.0000
  H   H6        1.0  0.34459620166651916  0.2935607320574504  0.08616540409696677  1.0000
  H   H7        1.0  0.6809860726325637  0.8974425872235016  0.46310938388059936  1.0000
  H   H8        1.0  0.31900829299912914  0.1025447998671822  0.9630917543659476  1.0000
  H   H9        1.0  0.7090960349444728  0.082911943354766  0.3735124708703025  1.0000
  H   H10       1.0  0.290889861443425  0.9170755405657686  0.8735023794269876  1.0000
  H   H11       1.0  0.7903701461865468  0.2895586984291184  0.2569809960504371  1.0000
  H   H12       1.0  0.20961408013250346  0.7104221353280238  0.7569770872398391  1.0000
  H   H13       1.0  0.05113390951527213  0.4774521231062964  0.27421217236192763  1.0000
  H   H14       1.0  0.9488591360251136  0.5225219433653051  0.7742177404876782  1.0000
  H   H15       1.0  0.2253464665255223  0.452403240606209  0.40810153709029606  1.0000
  H   H16       1.0  0.7746455890546359  0.5475764025174285  0.9081067885477407  1.0000
  H   H17       1.0  0.8756079274750307  0.3297540028596799  0.028918391330613195  1.0000
  H   H18       1.0  0.1243971937668533  0.670246508104924  0.5289096837029346  1.0000
  H   H19       1.0  0.9665928837947391  0.4722601844106294  0.10318539203876748  1.0000
  H   H20       1.0  0.03341037839868479  0.527752564047276  0.6031808731576404  1.0000
  C   C1        1.0  0.989612508739555  0.9621230075428283  0.6577369976612388  1.0000
  C   C2        1.0  0.010398675775888898  0.0378807706027828  0.15772877666859125  1.0000
  C   C3        1.0  0.8658337094998387  0.8320593630939185  0.6588078699891822  1.0000
  C   C4        1.0  0.1341811881330202  0.16793882031526408  0.15879888536107958  1.0000
  C   C5        1.0  0.7529698493515796  0.8078067572800762  0.5883738301278141  1.0000
  C   C6        1.0  0.24703984625539732  0.19218482660650688  0.08835974187849158  1.0000
  C   C7        1.0  0.7671673842665357  0.9139055234375846  0.5189207760562977  1.0000
  C   C8        1.0  0.23283118302253314  0.08608175554498838  0.018906564374354694  1.0000
  C   C9        1.0  0.8959685162439331  0.04043443699013239  0.5206301399534893  1.0000
  C   C10       1.0  0.10402706907659368  0.9595573182434622  0.020621647358943593  1.0000
  C   C11       1.0  0.9279570630227171  0.1564409907824427  0.448939255249229  1.0000
  C   C12       1.0  0.07203513514200921  0.8435497507186865  0.9489344093392585  1.0000
  C   C13       1.0  0.8242267897836302  0.16375323950080659  0.3773712316672401  1.0000
  C   C14       1.0  0.17575760220462658  0.8362364830852371  0.8773619569906541  1.0000
  C   C15       1.0  0.8686350060876297  0.2795517184134155  0.31328990443223137  1.0000
  C   C16       1.0  0.13134895531861449  0.7204324541912612  0.8132847633651321  1.0000
  C   C17       1.0  0.013948748252488494  0.3854051953401907  0.3230722640366891  1.0000
  C   C18       1.0  0.9860436871805547  0.6145744324933344  0.8230743807585552  1.0000
  C   C19       1.0  0.1110741003289775  0.3725928503996272  0.39669215150271936  1.0000
  C   C20       1.0  0.8889216973834378  0.6273878531877981  0.896695182976387  1.0000
  C   C21       1.0  0.19918305280647533  0.3541846474923176  0.7397753127148545  1.0000
  C   C22       1.0  0.80081594815222  0.6458170768448923  0.2397740967850907  1.0000
  C   C23       1.0  0.21968658184710674  0.4042213194672043  0.8414694707633357  1.0000
  C   C24       1.0  0.7803167245586097  0.5957914577210914  0.341465417375197  1.0000
  C   C25       1.0  0.09810744066844282  0.3600174064030596  0.9068091301243439  1.0000
  C   C26       1.0  0.9018896653185564  0.6399943482541061  0.40680629979282645  1.0000
  C   C27       1.0  0.10150869890316018  0.4335739340178221  0.9941901166326088  1.0000
  C   C28       1.0  0.8984931816792994  0.5664399896184162  0.4941878895375636  1.0000
  C   C29       1.0  0.24268261662857077  0.54513449885971  0.016514682410985398  1.0000
  C   C30       1.0  0.7573199106824547  0.4548815768532393  0.5165128185631501  1.0000
  C   C31       1.0  0.37130300851114134  0.5822510874268758  0.9564508639467416  1.0000
  C   C32       1.0  0.6286979319666557  0.4177628435411052  0.4564531751635598  1.0000
  C   C33       1.0  0.35542130865946586  0.5155649510086846  0.8676930988051834  1.0000
  C   C34       1.0  0.644577419116253  0.48445454480993533  0.36769056155075924  1.0000
  C   C35       1.0  0.5245955932204822  0.6926355345737817  0.9873430894969313  1.0000
  C   C36       1.0  0.4754026535284409  0.3073706678712113  0.487342041285437  1.0000
  I   I1        1.0  0.25652799946710303  0.6681401482283391  0.14145934984335895  1.0000
  I   I2        1.0  0.7434736045820716  0.3318748450837319  0.6414573376440201  1.0000
  I   I3        1.0  0.8956690693942164  0.1838833300457949  0.8735770354038335  1.0000
  I   I4        1.0  0.10433372847715822  0.8161283480476911  0.3735718454990077  1.0000
  I   I5        1.0  0.5297427010075566  0.6007263537683157  0.7668268847626363  1.0000
  I   I6        1.0  0.4702568424625469  0.3992942287810806  0.26682597846087214  1.0000
  N   N1        1.0  0.004625732714465898  0.06274425332527758  0.589656810901509  1.0000
  N   N2        1.0  0.9953798607717488  0.9372551495755349  0.0896493066567032  1.0000
  N   N3        1.0  0.06884227881332809  0.2603448513708527  0.45766481113520985  1.0000
  N   N4        1.0  0.9311572894192113  0.7396413592864447  0.9576651117371353  1.0000
  N   N5        1.0  0.9779252121457773  0.39695384721221666  0.054532217097140276  1.0000
  N   N6        1.0  0.02208197192181415  0.6030566262903037  0.5545278287391822  1.0000
  O   O1        1.0  0.24535946506249218  0.24484842184829594  0.713283442586089  1.0000
  O   O2        1.0  0.7546374502514438  0.755149997237659  0.21327826536121813  1.0000
  O   O3        1.0  0.1396719459562235  0.4269778476725604  0.6856593395984729  1.0000
  O   O4        1.0  0.8603394388052622  0.5730370265295122  0.18565649670242823  1.0000
  O   O5        1.0  0.6131578094540162  0.6269660272036504  0.03022970046946939  1.0000
  O   O6        1.0  0.3868435880011632  0.37304007892684143  0.5302340758965511  1.0000
  O   O7        1.0  0.5537800507113674  0.8268272825430074  0.9717563091759016  1.0000
  O   O8        1.0  0.44621899589293446  0.17318112683503267  0.47174811003555556  1.0000
