data_image0
_chemical_formula_structural       Ba2Cd2H28C32N4O20
_chemical_formula_sum              "Ba2 Cd2 H28 C32 N4 O20"
_cell_length_a       8.068314256533709
_cell_length_b       8.235554569714598
_cell_length_c       14.322129265916802
_cell_angle_alpha    106.21175255850262
_cell_angle_beta     94.44610589904495
_cell_angle_gamma    99.71618541964128

_space_group_name_H-M_alt    "P 1"
_space_group_IT_number       1

loop_
  _space_group_symop_operation_xyz
  'x, y, z'

loop_
  _atom_site_type_symbol
  _atom_site_label
  _atom_site_symmetry_multiplicity
  _atom_site_fract_x
  _atom_site_fract_y
  _atom_site_fract_z
  _atom_site_occupancy
  Ba  Ba1       1.0  0.3704517854058623  0.2636523217540228  0.7240655481184533  1.0000
  Ba  Ba2       1.0  0.6295487068371627  0.7363489811957892  0.2759336025887862  1.0000
  Cd  Cd1       1.0  0.4897047332024372  0.1413748270968043  0.17987720973143695  1.0000
  Cd  Cd2       1.0  0.5102977176858303  0.858623875491645  0.8201209107819097  1.0000
  H   H1        1.0  0.15359477990602238  0.9991965223768204  0.819996823039702  1.0000
  H   H2        1.0  0.8464026964645514  0.0008022167310314982  0.18000317388096224  1.0000
  H   H3        1.0  0.010115060166746999  0.10922002846798048  0.836104964853476  1.0000
  H   H4        1.0  0.9898824273176672  0.8907787202106333  0.16389293944126138  1.0000
  H   H5        1.0  0.9761341374732098  0.15556765449422016  0.5709199167874033  1.0000
  H   H6        1.0  0.02386262480769826  0.8444336766427155  0.4290804668398351  1.0000
  H   H7        1.0  0.9614320795499722  0.3257155959963568  0.6619559529912706  1.0000
  H   H8        1.0  0.038569199130378665  0.6742895745230085  0.3380445563997938  1.0000
  H   H9        1.0  0.6781620444739077  0.10006168325914899  0.5758144675118402  1.0000
  H   H10       1.0  0.32184118544245893  0.8999408805183434  0.4241864067692731  1.0000
  H   H11       1.0  0.6697058539582131  0.0181381389183812  0.6617762931995871  1.0000
  H   H12       1.0  0.3302983571330812  0.981863126273552  0.33822371721358735  1.0000
  H   H13       1.0  0.0296955791268516  0.11412670732967459  0.0760662387999602  1.0000
  H   H14       1.0  0.9703043678318011  0.885871999162326  0.9239359588559425  1.0000
  H   H15       1.0  0.43497975683868617  0.2027494132657139  0.99268334814672  1.0000
  H   H16       1.0  0.5650194908487621  0.7972518980163912  0.007316446047845148  1.0000
  H   H17       1.0  0.2786966142513164  0.05173568239430179  0.0017632466893076051  1.0000
  H   H18       1.0  0.7213023626462488  0.9482643322540271  0.9982377222086001  1.0000
  H   H19       1.0  0.1634097807798582  0.16632815860264571  0.4459283170025757  1.0000
  H   H20       1.0  0.836592658994569  0.8336705344150416  0.5540718961366977  1.0000
  H   H21       1.0  0.4389456830328982  0.5098863162646907  0.06087300920538039  1.0000
  H   H22       1.0  0.5610520530137109  0.49011370990617553  0.939127905637875  1.0000
  H   H23       1.0  0.9632201264073218  0.6390151651644517  0.14204275897594706  1.0000
  H   H24       1.0  0.03677983166517858  0.360983550898318  0.8579573460540217  1.0000
  H   H25       1.0  0.3812315887350906  0.6725307788478715  0.4352341004241111  1.0000
  H   H26       1.0  0.6187745810014463  0.3274678859826992  0.5647648797951632  1.0000
  H   H27       1.0  0.10969798633952618  0.6167311881423672  0.6747735337146565  1.0000
  H   H28       1.0  0.8903072022220826  0.3832687752737555  0.3252263103725568  1.0000
  C   C1        1.0  0.07989858913988002  0.24883765975848599  0.08339074560463898  1.0000
  C   C2        1.0  0.920100398871533  0.7511623644606046  0.9166081306673419  1.0000
  C   C3        1.0  0.1237543357329471  0.3783371000972622  0.5660093190110373  1.0000
  C   C4        1.0  0.8762490815117943  0.6216602911446073  0.43399072780227504  1.0000
  C   C5        1.0  0.18694634850048433  0.3059031542250993  0.4782672369175175  1.0000
  C   C6        1.0  0.8130600772074743  0.6940967944782273  0.5217333587663262  1.0000
  C   C7        1.0  0.244583511780192  0.29752981438375764  0.0633996103029446  1.0000
  C   C8        1.0  0.755415212850572  0.7024689195820598  0.9365990455884231  1.0000
  C   C9        1.0  0.3095515490850929  0.4715761885887845  0.07495479005959282  1.0000
  C   C10       1.0  0.69044743892632  0.5284238356302992  0.925044086212388  1.0000
  C   C11       1.0  0.044439850615972894  0.5457091652632684  0.12228391696531561  1.0000
  C   C12       1.0  0.9555618639549408  0.45429211021272653  0.8777187755064659  1.0000
  C   C13       1.0  0.3085833337514856  0.5914510110547083  0.47180586807346  1.0000
  C   C14       1.0  0.6914203542831315  0.4085476768209445  0.5281930040365168  1.0000
  C   C15       1.0  0.27974134293105374  0.41242683550795084  0.4317390021096373  1.0000
  C   C16       1.0  0.7202635785452927  0.5875718344646472  0.5682613191389407  1.0000
  C   C17       1.0  0.2480564842362085  0.6641543897335038  0.5592717114000719  1.0000
  C   C18       1.0  0.7519487043254002  0.33584557368261864  0.4407281326871413  1.0000
  C   C19       1.0  0.15719135066181164  0.5583904113596673  0.6066953404719655  1.0000
  C   C20       1.0  0.842813837899797  0.44160955205645536  0.3933045036152478  1.0000
  C   C21       1.0  0.21018902069214113  0.596103551737734  0.10444936735310512  1.0000
  C   C22       1.0  0.789808978735117  0.4038977646863983  0.8955517678707708  1.0000
  C   C23       1.0  0.35255762586314177  0.33790879276727986  0.3401949340444546  1.0000
  C   C24       1.0  0.6474478297837294  0.6620924640923677  0.6598044328814013  1.0000
  C   C25       1.0  0.28101016707672244  0.782798027969335  0.11822712468313773  1.0000
  C   C26       1.0  0.7189897872911646  0.217200684903176  0.881773677888809  1.0000
  C   C27       1.0  0.283475405532748  0.85583296007691  0.6038151434647432  1.0000
  C   C28       1.0  0.7165297867334743  0.14416700652947154  0.3961840030804992  1.0000
  C   C29       1.0  0.8019984480276533  0.3209370466649658  0.1316552899882737  1.0000
  C   C30       1.0  0.19800105933583012  0.6790655516801465  0.8683454221288827  1.0000
  C   C31       1.0  0.9800331016264253  0.3726771550913027  0.1125572137140907  1.0000
  C   C32       1.0  0.019968620353715463  0.6273241267652024  0.8874440836737421  1.0000
  N   N1        1.0  0.041227091656395494  0.2713635909753833  0.6163474607719692  1.0000
  N   N2        1.0  0.9587743743523306  0.7286364070083661  0.3836522211512872  1.0000
  N   N3        1.0  0.347899014731212  0.173255288101501  0.03720738592250681  1.0000
  N   N4        1.0  0.6521002292516229  0.8267460199903454  0.9627931058140363  1.0000
  O   O1        1.0  0.4379754533564792  0.43674999297672207  0.2996419332969325  1.0000
  O   O2        1.0  0.562025749271598  0.5632487147537546  0.7003575282457106  1.0000
  O   O3        1.0  0.32683794188110243  0.17296045249331365  0.3050214982746624  1.0000
  O   O4        1.0  0.6731654827728661  0.8270369451290661  0.6949771534546941  1.0000
  O   O5        1.0  0.18458119645151774  0.8889220191653137  0.12285711587431791  1.0000
  O   O6        1.0  0.8154180512359233  0.11107929211679138  0.8771426783202472  1.0000
  O   O7        1.0  0.12355568950350457  0.1065810818938289  0.8137887613878618  1.0000
  O   O8        1.0  0.8764430388318801  0.8934176552622474  0.18620919696152777  1.0000
  O   O9        1.0  0.6601052236287687  0.1258031085542086  0.6457161765522557  1.0000
  O   O10       1.0  0.33989747582168667  0.8741968715264861  0.35428495450960906  1.0000
  O   O11       1.0  0.44527622718540977  0.8289154519494345  0.1268429729016205  1.0000
  O   O12       1.0  0.5547237308870905  0.17108326411333508  0.8731571321283482  1.0000
  O   O13       1.0  0.32604912179768064  0.9147148919800969  0.6965805701431265  1.0000
  O   O14       1.0  0.6739553600834823  0.0852876698456129  0.3034182655667053  1.0000
  O   O15       1.0  0.269533100110401  0.9534537713145923  0.5495768455526431  1.0000
  O   O16       1.0  0.7304735963874337  0.04654747402251049  0.45042257542786507  1.0000
  O   O17       1.0  0.7461513967498518  0.15893660277021837  0.11911192640961592  1.0000
  O   O18       1.0  0.25384909549316587  0.8410647001795934  0.8808872242976236  1.0000
  O   O19       1.0  0.7134926675550375  0.4341385374185763  0.15964819425643378  1.0000
  O   O20       1.0  0.2865102878668395  0.565862726534881  0.84035455227  1.0000
