data_image0
_chemical_formula_structural       Cd2H60C96N6O8
_chemical_formula_sum              "Cd2 H60 C96 N6 O8"
_cell_length_a       9.17745234699268
_cell_length_b       13.678414444027299
_cell_length_c       22.83410918942702
_cell_angle_alpha    74.4823884490658
_cell_angle_beta     83.64561032615026
_cell_angle_gamma    87.97152651646631

_space_group_name_H-M_alt    "P 1"
_space_group_IT_number       1

loop_
  _space_group_symop_operation_xyz
  'x, y, z'

loop_
  _atom_site_type_symbol
  _atom_site_label
  _atom_site_symmetry_multiplicity
  _atom_site_fract_x
  _atom_site_fract_y
  _atom_site_fract_z
  _atom_site_occupancy
  Cd  Cd1       1.0  0.48861279669097957  0.5370478235328238  0.20003100455831194  1.0000
  Cd  Cd2       1.0  0.5113806742036857  0.462950830165056  0.7999699185031517  1.0000
  H   H1        1.0  0.7179264671511376  0.4006252613752112  0.27758774007504167  1.0000
  H   H2        1.0  0.2820680922200722  0.5993741519157965  0.7224130163192014  1.0000
  H   H3        1.0  0.8757588925140002  0.245189478851934  0.2852103172843172  1.0000
  H   H4        1.0  0.1242356239069551  0.754809921939632  0.7147935085562195  1.0000
  H   H5        1.0  0.7308912194675229  0.22496397446634825  0.11540803929872107  1.0000
  H   H6        1.0  0.26911427528412457  0.7750369612053237  0.8845928891768081  1.0000
  H   H7        1.0  0.5750960882351918  0.38071147924368626  0.11590390730427202  1.0000
  H   H8        1.0  0.42491053353256797  0.6192894662018702  0.8840947822635029  1.0000
  H   H9        1.0  0.6198519523908956  0.08671250428007941  0.2450225633571392  1.0000
  H   H10       1.0  0.38014590826389133  0.9132869151193221  0.7549771767140994  1.0000
  H   H11       1.0  0.5126589774995126  0.917073272540243  0.28818170177488867  1.0000
  H   H12       1.0  0.48733779122859733  0.08292690833213363  0.7118170875367085  1.0000
  H   H13       1.0  0.671163646351964  0.7613717855898727  0.2989656407618568  1.0000
  H   H14       1.0  0.3288331056939596  0.23862762939255336  0.7010350227401503  1.0000
  H   H15       1.0  0.934633122547417  0.777018364517332  0.2645330513959721  1.0000
  H   H16       1.0  0.06536142896297287  0.22298180752108723  0.7354675847771759  1.0000
  H   H17       1.0  0.36933502711713123  0.9937751997141577  0.17156953326684735  1.0000
  H   H18       1.0  0.6306617308685107  0.0062188897513096005  0.8284354797214631  1.0000
  H   H19       1.0  0.4786033951875551  0.16311132340052836  0.13202644863139307  1.0000
  H   H20       1.0  0.5213988724780094  0.836881256369935  0.8679776955838675  1.0000
  H   H21       1.0  0.32184536731739394  0.3190131992890315  0.12238197915898749  1.0000
  H   H22       1.0  0.6781601859101017  0.6809809040846558  0.877620908291071  1.0000
  H   H23       1.0  0.05806553176390139  0.3046825699694224  0.1551869382002167  1.0000
  H   H24       1.0  0.9419388919579034  0.6953153280812574  0.8448149560981476  1.0000
  H   H25       1.0  0.013334874170873002  0.5174404032660007  0.1542644819701238  1.0000
  H   H26       1.0  0.9866663088603573  0.4825605504504297  0.845731370381948  1.0000
  H   H27       1.0  0.7973275993215624  0.5116264149197391  0.0981143525106773  1.0000
  H   H28       1.0  0.20267685182490422  0.4883783404277936  0.9018794439205705  1.0000
  H   H29       1.0  0.3054724318370106  0.5012574682124865  0.9967053279148743  1.0000
  H   H30       1.0  0.694536407148469  0.49874348606702773  0.003291514791356988  1.0000
  H   H31       1.0  0.7507967674381889  0.604922839582045  0.3663644833869951  1.0000
  H   H32       1.0  0.249207616215017  0.3950818961235143  0.6336341364598539  1.0000
  H   H33       1.0  0.7607877083210468  0.6090876866212226  0.47463887659827003  1.0000
  H   H34       1.0  0.23923210342784532  0.39090642953235044  0.5253629685599391  1.0000
  H   H35       1.0  0.34932194210729506  0.4377322352017288  0.4163960316047834  1.0000
  H   H36       1.0  0.6506869526684228  0.5622603639280755  0.5836043259951609  1.0000
  H   H37       1.0  0.3142442607402032  0.7135504832093247  0.12148212085448759  1.0000
  H   H38       1.0  0.6857666660437403  0.28645881362624687  0.8785146220044098  1.0000
  H   H39       1.0  0.15518181973339304  0.8655909018582976  0.11905469714896805  1.0000
  H   H40       1.0  0.8448247381872703  0.13441383018178502  0.8809451452826237  1.0000
  H   H41       1.0  0.2260415479557736  0.8320737337778683  0.30723456183587655  1.0000
  H   H42       1.0  0.7739552573908028  0.16792113050571086  0.6927663845003948  1.0000
  H   H43       1.0  0.3850138660190083  0.6816031651099052  0.3015652483790419  1.0000
  H   H44       1.0  0.6149949545592152  0.31839778381270634  0.6984329098041755  1.0000
  H   H45       1.0  0.5878151798964666  0.6413542215452849  0.048491730904899555  1.0000
  H   H46       1.0  0.4121827026157021  0.35864368214492265  0.9515078111162082  1.0000
  H   H47       1.0  0.7438801451270437  0.7853436983127936  0.9815520217192314  1.0000
  H   H48       1.0  0.25611109992457415  0.21465874921636194  0.018447954636648896  1.0000
  H   H49       1.0  0.8599182278597581  0.8443069959253934  0.14708107381858326  1.0000
  H   H50       1.0  0.14007636736540258  0.1556901446946384  0.8529191662543028  1.0000
  H   H51       1.0  0.706549584330439  0.6950547993756261  0.20622771112159904  1.0000
  H   H52       1.0  0.2934482859102303  0.3049431007433229  0.7937727078841591  1.0000
  H   H53       1.0  0.6238797787547128  0.9662016637089011  0.0505130569450998  1.0000
  H   H54       1.0  0.3761081834205839  0.033800783068755905  0.9494866202568062  1.0000
  H   H55       1.0  0.522495021752505  0.13932007367382943  0.03232275854575309  1.0000
  H   H56       1.0  0.47749398077387883  0.8606854017966514  0.9676781452949542  1.0000
  H   H57       1.0  0.6873181119742426  0.29012473924518645  0.991324871808949  1.0000
  H   H58       1.0  0.31267528452689664  0.7098769369429051  0.008678639814405585  1.0000
  H   H59       1.0  0.9504014334250217  0.2662898608693212  0.9645322196871858  1.0000
  H   H60       1.0  0.0495886566173454  0.7337140908095138  0.03547063211890837  1.0000
  C   C1        1.0  0.7221757303102835  0.35807079938167163  0.24331055347116856  1.0000
  C   C2        1.0  0.27782209007985875  0.6419301303700281  0.7566907001271801  1.0000
  C   C3        1.0  0.8102040073599853  0.27220946912891725  0.24698935003782196  1.0000
  C   C4        1.0  0.1897938068944072  0.7277914588371459  0.7530123420528554  1.0000
  C   C5        1.0  0.8139693956801041  0.2213139125013086  0.20112040942503737  1.0000
  C   C6        1.0  0.1860317478510041  0.7786855076495983  0.7988796298001758  1.0000
  C   C7        1.0  0.728633675250272  0.26057610967077244  0.15288204143517697  1.0000
  C   C8        1.0  0.2713707354355179  0.7394248287264561  0.847118056501813  1.0000
  C   C9        1.0  0.6426094103579912  0.3465107610034082  0.15272746925944597  1.0000
  C   C10       1.0  0.35739720527401897  0.6534901826565117  0.8472716588006576  1.0000
  C   C11       1.0  0.9061254516298477  0.1289286066668254  0.20407120317457836  1.0000
  C   C12       1.0  0.0938734948158526  0.871070049473971  0.7959299261486166  1.0000
  C   C13       1.0  0.8423531357272794  0.03216954928341661  0.22864564983424168  1.0000
  C   C14       1.0  0.1576436163186443  0.9678298656990095  0.7713550136677654  1.0000
  C   C15       1.0  0.6894785516573164  0.019496601966750404  0.24904056020973536  1.0000
  C   C16       1.0  0.3105171023261803  0.9805035727030146  0.7509595910249658  1.0000
  C   C17       1.0  0.6297672316628962  0.9247074511844177  0.27336138447241604  1.0000
  C   C18       1.0  0.3702295107971453  0.0752934830784682  0.7266386000950716  1.0000
  C   C19       1.0  0.7193203227783656  0.8364121786486934  0.27948347411506086  1.0000
  C   C20       1.0  0.28067425500010046  0.16358723999920952  0.7205159668021962  1.0000
  C   C21       1.0  0.8666418477268467  0.8451121770860582  0.26023554068802207  1.0000
  C   C22       1.0  0.13335491390495952  0.15488571861590839  0.7397658017485113  1.0000
  C   C23       1.0  0.9332948437697651  0.9421560576861978  0.233916659820018  1.0000
  C   C24       1.0  0.0666986175390178  0.0578441152921414  0.7660835843069194  1.0000
  C   C25       1.0  0.08355273923945111  0.9524368268721447  0.2124903190461039  1.0000
  C   C26       1.0  0.916440739516034  0.04756106807832341  0.787510724236455  1.0000
  C   C27       1.0  0.14718077528797122  0.0491136625818598  0.18791039434049137  1.0000
  C   C28       1.0  0.852816000340404  0.9508834761583244  0.8120906298248087  1.0000
  C   C29       1.0  0.3002272275457046  0.0611579283619221  0.1679339459558875  1.0000
  C   C30       1.0  0.6997706714526117  0.9388354139156477  0.8320685098534355  1.0000
  C   C31       1.0  0.36109806469772826  0.1558725313688782  0.1455871606785806  1.0000
  C   C32       1.0  0.6389042056534464  0.8441215712533109  0.8544154276175034  1.0000
  C   C33       1.0  0.2724240706041812  0.24431066519568392  0.14063850316520637  1.0000
  C   C34       1.0  0.7275782058827501  0.7556834392121418  0.859363646638549  1.0000
  C   C35       1.0  0.12470954348771807  0.2361620340046784  0.1590551539996881  1.0000
  C   C36       1.0  0.8752926657019843  0.7638373780637692  0.8409470312410363  1.0000
  C   C37       1.0  0.0571025926025897  0.13917092491144703  0.18381619105761618  1.0000
  C   C38       1.0  0.9428952530950738  0.8608269680649627  0.8161859819174566  1.0000
  C   C39       1.0  0.30055774933283164  0.5122068577326857  0.11265478259438305  1.0000
  C   C40       1.0  0.699441265370652  0.48778877413226956  0.8873441966592496  1.0000
  C   C41       1.0  0.1715002992752801  0.5093801331849406  0.0781175205139846  1.0000
  C   C42       1.0  0.8284998232725443  0.4906185470148047  0.9218778619628479  1.0000
  C   C43       1.0  0.026859163240743597  0.5123981917188943  0.10712658022292487  1.0000
  C   C44       1.0  0.973143114402774  0.4876035233762935  0.8928686669696049  1.0000
  C   C45       1.0  0.9079821442806805  0.5088845941942353  0.07597888570945338  1.0000
  C   C46       1.0  0.09202451526213908  0.4911186453498929  0.9240150582717633  1.0000
  C   C47       1.0  0.9269150638781624  0.5014720254081196  0.0147176660998909  1.0000
  C   C48       1.0  0.07309488295165781  0.4985319772061914  0.9852755798295405  1.0000
  C   C49       1.0  0.1934358079656846  0.5030889929076993  0.018242647969763888  1.0000
  C   C50       1.0  0.8065708891561485  0.4969112134324121  0.9817513384035124  1.0000
  C   C51       1.0  0.541995710411129  0.5222736582194188  0.3202677944161961  1.0000
  C   C52       1.0  0.458010839648722  0.47773183256807533  0.6797319277943003  1.0000
  C   C53       1.0  0.5481751292770839  0.5211967733588381  0.3857756795288196  1.0000
  C   C54       1.0  0.4518336773045704  0.47880493252555584  0.6142227969256167  1.0000
  C   C55       1.0  0.6655609691301763  0.5698376169998979  0.40221284044826416  1.0000
  C   C56       1.0  0.3344489546856693  0.4301602906362377  0.5977875061425236  1.0000
  C   C57       1.0  0.6707708959704634  0.5716727970879489  0.46189820490747013  1.0000
  C   C58       1.0  0.32924124755268014  0.42832131493127434  0.5381035268812298  1.0000
  C   C59       1.0  0.559318090444613  0.5248361172866042  0.5082205968284085  1.0000
  C   C60       1.0  0.44069405403908496  0.475160278117393  0.49177902032769083  1.0000
  C   C61       1.0  0.43837978135659483  0.47471306231260263  0.43001083793712513  1.0000
  C   C62       1.0  0.5616334533287103  0.5252833321514743  0.5699891712651848  1.0000
  C   C63       1.0  0.29271266290061954  0.7421823085214073  0.16183321869067407  1.0000
  C   C64       1.0  0.7072950578901072  0.25782016062157714  0.8381638685117991  1.0000
  C   C65       1.0  0.20334812828390617  0.8266920581543362  0.16065696611024546  1.0000
  C   C66       1.0  0.7966551826143871  0.17331040046327226  0.8393420608460076  1.0000
  C   C67       1.0  0.1766447027215321  0.861098449161986  0.21339760157007961  1.0000
  C   C68       1.0  0.823354245449238  0.13889944644576965  0.7866040864665463  1.0000
  C   C69       1.0  0.24290566973024144  0.8080959583635876  0.265117979790375  1.0000
  C   C70       1.0  0.757092167342087  0.1919057372780557  0.7348813996175707  1.0000
  C   C71       1.0  0.33160324425460896  0.7243277691916462  0.2620961802433328  1.0000
  C   C72       1.0  0.6683978801047276  0.2756746895201729  0.7379025011128348  1.0000
  C   C73       1.0  0.6515115862679224  0.6886028724221305  0.06783935895251858  1.0000
  C   C74       1.0  0.348484079987074  0.3113973058188933  0.9321599152975253  1.0000
  C   C75       1.0  0.737192203206888  0.7688452607715917  0.031237487206652783  1.0000
  C   C76       1.0  0.26279903743404287  0.23115642443887915  0.9687634863549803  1.0000
  C   C77       1.0  0.8144191573612929  0.8269119783399577  0.05931704338522788  1.0000
  C   C78       1.0  0.1855720815545752  0.17309046740356143  0.9406833714629813  1.0000
  C   C79       1.0  0.802750434553822  0.8007247122930679  0.12324497099955069  1.0000
  C   C80       1.0  0.1972441326782075  0.19927394225052814  0.876755905615795  1.0000
  C   C81       1.0  0.7169310898531408  0.7188757612754205  0.15641911267799458  1.0000
  C   C82       1.0  0.2830656840501645  0.28112213799781227  0.8435813527738815  1.0000
  C   C83       1.0  0.9076751101618612  0.9149346944949528  0.02575089923074358  1.0000
  C   C84       1.0  0.0923160973107358  0.08507078623822653  0.97424903473307  1.0000
  C   C85       1.0  0.8485277483132023  0.013820520141763402  0.017171391159926885  1.0000
  C   C86       1.0  0.1514656552842411  0.9861834412167382  0.9828295673384986  1.0000
  C   C87       1.0  0.6960594412368479  0.0312827864886387  0.0319539821941603  1.0000
  C   C88       1.0  0.3039284850844979  0.9687219329599873  0.96804621132911  1.0000
  C   C89       1.0  0.6396638389237596  0.12801562420320778  0.02204789050927759  1.0000
  C   C90       1.0  0.3603273815848524  0.8719868161834088  0.9779538398159103  1.0000
  C   C91       1.0  0.732883526561956  0.21350804923115876  0.9982851619930811  1.0000
  C   C92       1.0  0.2671065678910978  0.7864966647663605  0.0017166926072534326  1.0000
  C   C93       1.0  0.8801698544627855  0.20020598506253867  0.9833941954539965  1.0000
  C   C94       1.0  0.11982461479325927  0.7997979682135041  0.016608909059947052  1.0000
  C   C95       1.0  0.9427747661342067  0.10071965004373602  0.9914766786690378  1.0000
  C   C96       1.0  0.05721752885438039  0.8992843068977905  0.008525203260162956  1.0000
  N   N1        1.0  0.6389826102300517  0.39436526312618986  0.19722689908793  1.0000
  N   N2        1.0  0.3610206979826316  0.6056356726397  0.8027736837875068  1.0000
  N   N3        1.0  0.356303173837901  0.6917071844847626  0.21146224386070864  1.0000
  N   N4        1.0  0.6437034243474004  0.3082960372030287  0.7885360850437733  1.0000
  N   N5        1.0  0.6417658852234284  0.6637014945030728  0.12928324006769285  1.0000
  N   N6        1.0  0.35823201914612923  0.3362948934779483  0.8707161039032768  1.0000
  O   O1        1.0  0.42852666546549767  0.5209592080344124  0.08457457215111928  1.0000
  O   O2        1.0  0.5714777540416592  0.4790432550001711  0.9154235313743653  1.0000
  O   O3        1.0  0.27196530987247775  0.5055581459502748  0.1698895046717652  1.0000
  O   O4        1.0  0.7280348746013344  0.4944321808854041  0.8301089542064517  1.0000
  O   O5        1.0  0.6406027286358126  0.5711780715525806  0.2802737186507187  1.0000
  O   O6        1.0  0.35939614092678346  0.428827411529305  0.7197267671749259  1.0000
  O   O7        1.0  0.437236735336178  0.47599613883621567  0.30685716455413115  1.0000
  O   O8        1.0  0.5627721026887471  0.5240025320585177  0.6931417927847007  1.0000
