data_image0
_chemical_formula_structural       Cd2P2H48C34N18O18
_chemical_formula_sum              "Cd2 P2 H48 C34 N18 O18"
_cell_length_a       8.342247920111111
_cell_length_b       14.10043679733528
_cell_length_c       14.835253139559592
_cell_angle_alpha    62.35490528526136
_cell_angle_beta     79.31194415625336
_cell_angle_gamma    78.6987738992048

_space_group_name_H-M_alt    "P 1"
_space_group_IT_number       1

loop_
  _space_group_symop_operation_xyz
  'x, y, z'

loop_
  _atom_site_type_symbol
  _atom_site_label
  _atom_site_symmetry_multiplicity
  _atom_site_fract_x
  _atom_site_fract_y
  _atom_site_fract_z
  _atom_site_occupancy
  Cd  Cd1       1.0  0.2477263215285745  0.5299627213000307  0.7644409020836774  1.0000
  Cd  Cd2       1.0  0.7522737079883157  0.47003653467364626  0.23556159833060514  1.0000
  P   P1        1.0  0.18717318514621437  0.026267840473551  0.2609124199067381  1.0000
  P   P2        1.0  0.8128281900645293  0.9737305910406281  0.7390882804864063  1.0000
  H   H1        1.0  0.7189426629091358  0.10205153870455062  0.2946443143544712  1.0000
  H   H2        1.0  0.2810599141125111  0.8979468806869589  0.7053549123676461  1.0000
  H   H3        1.0  0.618839080110348  0.9837673901107638  0.3666708630846995  1.0000
  H   H4        1.0  0.3811632091453845  0.016232653954411105  0.6333290163376475  1.0000
  H   H5        1.0  0.547445346886157  0.08587593356259762  0.24931616473904938  1.0000
  H   H6        1.0  0.4525583246992824  0.9141233072474935  0.7506845976182461  1.0000
  H   H7        1.0  0.7572565278713693  0.9511515357092081  0.11380351014628319  1.0000
  H   H8        1.0  0.24274652659394746  0.048844473177318506  0.8861980912205994  1.0000
  H   H9        1.0  0.5661618748192867  0.9615682781078903  0.18957240537673675  1.0000
  H   H10       1.0  0.4338410266041208  0.03842853781436161  0.8104288516012375  1.0000
  H   H11       1.0  0.7181282236632709  0.8474798353694126  0.23942340783577978  1.0000
  H   H12       1.0  0.2818757723239216  0.15251780197142042  0.7605793847773654  1.0000
  H   H13       1.0  0.49889574318419955  0.9247748938917655  0.07346089569865881  1.0000
  H   H14       1.0  0.5011060594689027  0.07522755537729611  0.9265359383399102  1.0000
  H   H15       1.0  0.48373092783997856  0.8260538289430815  0.033293457042226596  1.0000
  H   H16       1.0  0.5162699332912482  0.17394699187168067  0.9667021857500728  1.0000
  H   H17       1.0  0.49142161140821367  0.7878533835350866  0.1654847224152362  1.0000
  H   H18       1.0  0.5085740814418075  0.2121490680351741  0.8345121018492135  1.0000
  H   H19       1.0  0.19449607119877044  0.7316596788187727  0.11599157959155071  1.0000
  H   H20       1.0  0.8055020802268161  0.2683427803127714  0.8840063217649857  1.0000
  H   H21       1.0  0.2287434737971168  0.8354151465003103  0.9894166352848754  1.0000
  H   H22       1.0  0.7712546501515901  0.16458729672793035  0.01057925385459407  1.0000
  H   H23       1.0  0.048602505272100346  0.8509974137082428  0.07125244703340863  1.0000
  H   H24       1.0  0.9513977711683381  0.14900665115274594  0.9287438304203306  1.0000
  H   H25       1.0  0.11905157507212044  0.9539853454420427  0.5563953478082266  1.0000
  H   H26       1.0  0.8809504080997783  0.046016312694604315  0.4436038428363105  1.0000
  H   H27       1.0  0.10160785361006217  0.7731389404660619  0.7039954451525076  1.0000
  H   H28       1.0  0.8983914473330898  0.22686437189067735  0.2960080162733334  1.0000
  H   H29       1.0  0.3221101937754226  0.6179568640695123  0.5239255070692791  1.0000
  H   H30       1.0  0.6778952120183633  0.38203998591954075  0.4760801806958809  1.0000
  H   H31       1.0  0.34595262398158155  0.7917812029792657  0.36840573640682095  1.0000
  H   H32       1.0  0.6540516414535985  0.2082147990856883  0.6315950620280545  1.0000
  H   H33       1.0  0.0865954091094068  0.3125291401294562  0.8948223798267705  1.0000
  H   H34       1.0  0.9134078922794658  0.6874716776443749  0.10517299857956876  1.0000
  H   H35       1.0  0.0695014724106073  0.16305967380052522  0.0710816818675895  1.0000
  H   H36       1.0  0.9304943826402904  0.8369419760351066  0.9289161575247887  1.0000
  H   H37       1.0  0.44589340576771974  0.29196980482532814  0.13305035075222083  1.0000
  H   H38       1.0  0.5541008200299231  0.7080278393780832  0.8669528286657521  1.0000
  H   H39       1.0  0.4464934830768782  0.43564277366682097  0.953540168510429  1.0000
  H   H40       1.0  0.5535062678330577  0.5643581122816316  0.04646365534310335  1.0000
  H   H41       1.0  0.8777015198860026  0.5112923102533531  0.8955344225354549  1.0000
  H   H42       1.0  0.12229805966409663  0.48870937212861776  0.10446771545112908  1.0000
  H   H43       1.0  0.729063367309692  0.479825839320803  0.84318086306763  1.0000
  H   H44       1.0  0.2709358969976138  0.5201774518315291  0.1568199154021244  1.0000
  H   H45       1.0  0.7954479323199664  0.6112930093298491  0.780240754689629  1.0000
  H   H46       1.0  0.2045517911130901  0.3887078607152858  0.2197610569468367  1.0000
  H   H47       1.0  0.9307999866490205  0.48894002550849086  0.7102130482469562  1.0000
  H   H48       1.0  0.06920005202682943  0.5110592357662824  0.2897901229063464  1.0000
  C   C1        1.0  0.9335055487988483  0.9873589543494462  0.22476678489012872  1.0000
  C   C2        1.0  0.06649442576426878  0.012640269817616501  0.7752316910900204  1.0000
  C   C3        1.0  0.1865997698455217  0.9250558841931069  0.16016560521360637  1.0000
  C   C4        1.0  0.8133976114180257  0.07494415005060523  0.8398327907636087  1.0000
  C   C5        1.0  0.6574988309279776  0.04386062748902483  0.2887260766193265  1.0000
  C   C6        1.0  0.3425051192644088  0.9561369833462907  0.7112733622987193  1.0000
  C   C7        1.0  0.6985381949204025  0.93535920494778  0.19108442003978598  1.0000
  C   C8        1.0  0.301462113203435  0.06463842105112153  0.808916756935247  1.0000
  C   C9        1.0  0.44492235754754716  0.8516880806323429  0.09413831738654459  1.0000
  C   C10       1.0  0.5550783413827958  0.14831354191704094  0.9058563102778265  1.0000
  C   C11       1.0  0.17911828209422956  0.8197003453504126  0.06818815202404226  1.0000
  C   C12       1.0  0.8208835205588728  0.18030210391865614  0.9318086820145268  1.0000
  C   C13       1.0  0.2341418109241502  0.88633491337545  0.45097553819034875  1.0000
  C   C14       1.0  0.7658629369071547  0.11366513825101522  0.5490254183240779  1.0000
  C   C15       1.0  0.16402340039002886  0.8816014969564352  0.54571868183492  1.0000
  C   C16       1.0  0.8359775798076968  0.11839939277265193  0.4542856805646521  1.0000
  C   C17       1.0  0.15533537875756298  0.7806196616205486  0.6285113115752663  1.0000
  C   C18       1.0  0.8446651098850709  0.21937717324593117  0.3714922220057347  1.0000
  C   C19       1.0  0.2776402346175999  0.6939495209353627  0.5282762556508942  1.0000
  C   C20       1.0  0.7223678400394603  0.30605212429787093  0.4717216032897226  1.0000
  C   C21       1.0  0.2910551766741491  0.791460768759777  0.4409797044705498  1.0000
  C   C22       1.0  0.7089494822279719  0.20854012701013158  0.5590256028281287  1.0000
  C   C23       1.0  0.16557385820043183  0.3038121623505745  0.9497273753781172  1.0000
  C   C24       1.0  0.8344226273360532  0.6961862699443417  0.05027318304792759  1.0000
  C   C25       1.0  0.15717482096690114  0.22005350533029858  0.048249973713588135  1.0000
  C   C26       1.0  0.8428247585831983  0.7799481770516724  0.9517521642729959  1.0000
  C   C27       1.0  0.2562703348301056  0.21683042294669977  0.11603177916389737  1.0000
  C   C28       1.0  0.7437188299334353  0.7831680184709742  0.883969572420028  1.0000
  C   C29       1.0  0.36435036230299295  0.2934590778278122  0.08279003292240358  1.0000
  C   C30       1.0  0.6356511751086344  0.7065385519517381  0.9172116825986618  1.0000
  C   C31       1.0  0.364943232939993  0.3736085569649391  0.9828156562176033  1.0000
  C   C32       1.0  0.6350592551524699  0.6263907065700209  0.01718792128875889  1.0000
  C   C33       1.0  0.8335591570897519  0.5246288058012638  0.8250645827491637  1.0000
  C   C34       1.0  0.16644040414242053  0.4753728659785069  0.17493621375938057  1.0000
  N   N1        1.0  0.28373746040117703  0.9620364347882033  0.19893001258130022  1.0000
  N   N2        1.0  0.7162606818654496  0.037966019042244205  0.8010672180362093  1.0000
  N   N3        1.0  0.9924131676167038  0.03380189026438531  0.2731871111544634  1.0000
  N   N4        1.0  0.007588981962591338  0.966192511372235  0.7268159819222217  1.0000
  N   N5        1.0  0.021213488923947862  0.9358621723909409  0.1709695787115847  1.0000
  N   N6        1.0  0.9787846167068323  0.06414026023509221  0.8290249689498452  1.0000
  N   N7        1.0  0.2664043946212829  0.8726416241439594  0.10461533663486472  1.0000
  N   N8        1.0  0.7335961695850699  0.12736081604336394  0.8953802881186448  1.0000
  N   N9        1.0  0.7680041107601668  0.9937799640142589  0.23065784280240095  1.0000
  N   N10       1.0  0.2319958821208772  0.006219270755011104  0.7693419746557879  1.0000
  N   N11       1.0  0.21222156305489648  0.6881438752457572  0.6205652216758961  1.0000
  N   N12       1.0  0.7877792549419452  0.31185781621795894  0.37943812559575457  1.0000
  N   N13       1.0  0.2657134935199963  0.38009031206163263  0.9174377230005035  1.0000
  N   N14       1.0  0.7342898994584957  0.619910558723234  0.08256436279604877  1.0000
  N   N15       1.0  0.518002645549089  0.42594676260711856  0.6798305591828893  1.0000
  N   N16       1.0  0.4819879996323024  0.5740500367131178  0.32016799529075973  1.0000
  N   N17       1.0  0.23553255994774244  0.6489126963635315  0.8831415480172566  1.0000
  N   N18       1.0  0.7644706250350595  0.3510889496504462  0.1168561689562608  1.0000
  O   O1        1.0  0.25188725599343786  0.9871926998758628  0.37055315102679715  1.0000
  O   O2        1.0  0.7481164247509611  0.012806546235332002  0.629448282069518  1.0000
  O   O3        1.0  0.2528930937932827  0.14249576870099653  0.21740697171140513  1.0000
  O   O4        1.0  0.7471054095109508  0.8575051028646004  0.7825949721180477  1.0000
  O   O5        1.0  0.10304619642194267  0.6236720694832771  0.8723385325078467  1.0000
  O   O6        1.0  0.8969591227346714  0.37633118756124884  0.12765823130190052  1.0000
  O   O7        1.0  0.3705349490884302  0.62644991208807  0.8344894517350597  1.0000
  O   O8        1.0  0.6294710005537779  0.37355012741572596  0.16551003110834722  1.0000
  O   O9        1.0  0.23443249347089787  0.6934693391780586  0.9386387465214908  1.0000
  O   O10       1.0  0.7655644103489793  0.3065331055706437  0.06135727481095902  1.0000
  O   O11       1.0  0.3675461302615517  0.4230072167768812  0.6722797866597006  1.0000
  O   O12       1.0  0.6324452625574395  0.5769984515943777  0.3277140444110102  1.0000
  O   O13       1.0  0.5440306700931501  0.486388268052096  0.717539539326971  1.0000
  O   O14       1.0  0.45596499032753  0.5136077075483669  0.28245748928561903  1.0000
  O   O15       1.0  0.6335700854837256  0.37138343664478424  0.6521323117268024  1.0000
  O   O16       1.0  0.36641109063949523  0.6286052954000781  0.34786953489468425  1.0000
  O   O17       1.0  0.9699064721240446  0.4856280199527277  0.769633983725832  1.0000
  O   O18       1.0  0.030095232440906682  0.5143752681586877  0.23036653035796206  1.0000
