data_image0
_chemical_formula_structural       Co10H12C36N36Cl8
_chemical_formula_sum              "Co10 H12 C36 N36 Cl8"
_cell_length_a       15.296352973220198
_cell_length_b       15.295177607744073
_cell_length_c       15.274854680873462
_cell_angle_alpha    60.02999700712445
_cell_angle_beta     60.02974684297815
_cell_angle_gamma    60.31173967243322

_space_group_name_H-M_alt    "P 1"
_space_group_IT_number       1

loop_
  _space_group_symop_operation_xyz
  'x, y, z'

loop_
  _atom_site_type_symbol
  _atom_site_label
  _atom_site_symmetry_multiplicity
  _atom_site_fract_x
  _atom_site_fract_y
  _atom_site_fract_z
  _atom_site_occupancy
  Co  Co1       1.0  0.7512424010854062  0.7512215734644556  0.7467430418555664  1.0000
  Co  Co2       1.0  0.24875810999588316  0.24877877004806243  0.25325577934621174  1.0000
  Co  Co3       1.0  0.02694204831364298  0.6582332627294675  0.657439562396597  1.0000
  Co  Co4       1.0  0.6579510821750816  0.6579640326402582  0.02720231896942232  1.0000
  Co  Co5       1.0  0.6579586233953663  0.658027624270922  0.6569618232311287  1.0000
  Co  Co6       1.0  0.6581769780648373  0.027018613929904206  0.6574029051555214  1.0000
  Co  Co7       1.0  0.3420485934724624  0.3420368074539369  0.9727952346815201  1.0000
  Co  Co8       1.0  0.9730530825129835  0.3417681220868333  0.3425628502656934  1.0000
  Co  Co9       1.0  0.342044199076497  0.3419723785658917  0.34303903500356364  1.0000
  Co  Co10      1.0  0.34182544591145353  0.972975774417826  0.34259835803314337  1.0000
  H   H1        1.0  0.16814520873544575  0.500432754564386  0.8309867814467609  1.0000
  H   H2        1.0  0.8318489565907897  0.499572991716434  0.1690106066697724  1.0000
  H   H3        1.0  0.49965993201726633  0.831800641413082  0.49965090323954087  1.0000
  H   H4        1.0  0.5003440418127526  0.168195234772007  0.500352941608213  1.0000
  H   H5        1.0  0.16775740699181102  0.8321008326035296  0.5000839359966561  1.0000
  H   H6        1.0  0.8322392559613901  0.16789551130451486  0.4999211909656083  1.0000
  H   H7        1.0  0.49999771500359463  0.49996867145812024  0.16879545391677198  1.0000
  H   H8        1.0  0.500005084372944  0.5000340144643687  0.8312011145611252  1.0000
  H   H9        1.0  0.16813348895625785  0.500398603995677  0.5004321345146749  1.0000
  H   H10       1.0  0.8318660887728555  0.4996020340135559  0.4995697554504588  1.0000
  H   H11       1.0  0.5003510285136626  0.16816937997881362  0.8310953834909682  1.0000
  H   H12       1.0  0.49965137236730317  0.831827691454599  0.16890158994090124  1.0000
  C   C1        1.0  0.9931352493429981  0.5538400364822992  0.8992508224802122  1.0000
  C   C2        1.0  0.8993596828978098  0.553748186849255  0.9932754109037842  1.0000
  C   C3        1.0  0.5537066420713684  0.8993959494650879  0.5535919683182158  1.0000
  C   C4        1.0  0.5538707304825934  0.9931330988538178  0.5538276288192917  1.0000
  C   C5        1.0  0.9928348634800059  0.8993854735420258  0.5539418166480774  1.0000
  C   C6        1.0  0.8993152071623102  0.9929143974844337  0.5539223403906208  1.0000
  C   C7        1.0  0.5539943885392591  0.5539128946721447  0.9930354732191303  1.0000
  C   C8        1.0  0.5538941094321286  0.5538536042844414  0.8991105868744854  1.0000
  C   C9        1.0  0.9930986525946038  0.5538185987832093  0.5538566530199489  1.0000
  C   C10       1.0  0.8993845899734508  0.5536658850318402  0.5536045883546378  1.0000
  C   C11       1.0  0.5538668554328581  0.9931609248202874  0.899221645342223  1.0000
  C   C12       1.0  0.5537923794552314  0.8993957159774625  0.9932314180732218  1.0000
  C   C13       1.0  0.10063726751630499  0.4462564219057299  0.006722722966223692  1.0000
  C   C14       1.0  0.006861520202903742  0.44616442213845886  0.10074603197465143  1.0000
  C   C15       1.0  0.4462969369477889  0.10060214018009352  0.44641166263814824  1.0000
  C   C16       1.0  0.44613192017394  0.006865369966639974  0.4461757535525877  1.0000
  C   C17       1.0  0.44620914386467797  0.10060574964829529  0.006762829194371969  1.0000
  C   C18       1.0  0.44613477485837194  0.006839359008317651  0.10077206916350431  1.0000
  C   C19       1.0  0.006902874788643483  0.4461813982818584  0.44614471514781673  1.0000
  C   C20       1.0  0.10061657068381163  0.4463337270862057  0.4463975383306932  1.0000
  C   C21       1.0  0.4460055468629491  0.4460895121662318  0.006961854676120512  1.0000
  C   C22       1.0  0.4461063876067186  0.4461480384316373  0.10088774812282245  1.0000
  C   C23       1.0  0.10068032752806028  0.007083389989659828  0.44608408971538427  1.0000
  C   C24       1.0  0.007160959049905146  0.100611282269135  0.44606536011119147  1.0000
  C   C25       1.0  0.09705939507017547  0.5001988127941105  0.9025159209451983  1.0000
  C   C26       1.0  0.9029369937073  0.4998065600831723  0.0974812058227529  1.0000
  C   C27       1.0  0.49978976407378195  0.9029672090091195  0.49976581893147903  1.0000
  C   C28       1.0  0.5002144835533358  0.09702893471659017  0.5002382863650681  1.0000
  C   C29       1.0  0.09685131067310249  0.9030977561177664  0.5000406088278025  1.0000
  C   C30       1.0  0.9031452593512128  0.09689847038388419  0.49996553710082026  1.0000
  C   C31       1.0  0.5000541194266575  0.500021750566944  0.0973588266287707  1.0000
  C   C32       1.0  0.4999463776121901  0.4999798921491347  0.90263950836853  1.0000
  C   C33       1.0  0.09703062392030412  0.5002219788881702  0.5002704123707886  1.0000
  C   C34       1.0  0.9029688608799163  0.4997785417146615  0.49973249656069646  1.0000
  C   C35       1.0  0.5001664985322735  0.09706136910038772  0.9025547590852623  1.0000
  C   C36       1.0  0.49983672872954793  0.9029365896334695  0.09743967834512535  1.0000
  N   N1        1.0  0.9572512213721612  0.6148136390373227  0.8133064744876606  1.0000
  N   N2        1.0  0.8137159659291983  0.6147424939577919  0.9572046664329504  1.0000
  N   N3        1.0  0.614789334393848  0.8136991858039194  0.6140807430230308  1.0000
  N   N4        1.0  0.6149608853666212  0.9572190040179007  0.6145038831163278  1.0000
  N   N5        1.0  0.9566985521223542  0.8135394111926219  0.614802299754672  1.0000
  N   N6        1.0  0.8134785638157566  0.9567769258102673  0.6147626498713592  1.0000
  N   N7        1.0  0.6151323550455033  0.614999817094855  0.9567991748968863  1.0000
  N   N8        1.0  0.6149732471890131  0.6149022649062558  0.8129829697020554  1.0000
  N   N9        1.0  0.9571507177301513  0.6149053934637511  0.6145806982066233  1.0000
  N   N10       1.0  0.8136878693390771  0.6147548216124576  0.6141180542279088  1.0000
  N   N11       1.0  0.6148555526862299  0.9572798919933874  0.8132610312541431  1.0000
  N   N12       1.0  0.6148252199392205  0.8137260325255653  0.9571612014028333  1.0000
  N   N13       1.0  0.18628237250242555  0.3852622379753328  0.04279193853763273  1.0000
  N   N14       1.0  0.042747145144325184  0.3851884944886877  0.1866911028918707  1.0000
  N   N15       1.0  0.3852149780772791  0.1862996737353058  0.38592137089820966  1.0000
  N   N16       1.0  0.38504286546786665  0.04278061964362926  0.3854972237028563  1.0000
  N   N17       1.0  0.3851760295835902  0.1862751655595716  0.042832785415974704  1.0000
  N   N18       1.0  0.38514467554507087  0.042721567860624574  0.18673372594653162  1.0000
  N   N19       1.0  0.04285184498704819  0.3850930426288813  0.3854203857837532  1.0000
  N   N20       1.0  0.18631403881259698  0.38524426119607114  0.3858830416267692  1.0000
  N   N21       1.0  0.3848679611251241  0.3850016754869898  0.043197880685276975  1.0000
  N   N22       1.0  0.3850276306182537  0.38509846355329097  0.18701509298216482  1.0000
  N   N23       1.0  0.1865183588921155  0.043220984841958875  0.3852422513352209  1.0000
  N   N24       1.0  0.04329846351439678  0.18645861686600546  0.38520158248555697  1.0000
  N   N25       1.0  0.850795004291115  0.6496495162929821  0.8501818489400891  1.0000
  N   N26       1.0  0.6498834050897457  0.8506383129082951  0.6490519541696006  1.0000
  N   N27       1.0  0.8500581744161909  0.8501054962906524  0.6496827367788286  1.0000
  N   N28       1.0  0.6500554927972287  0.6499190650578798  0.8497881567602334  1.0000
  N   N29       1.0  0.8506031737950438  0.6498307681686483  0.6491301154479315  1.0000
  N   N30       1.0  0.6497386279754805  0.85079127658075  0.8501363712510113  1.0000
  N   N31       1.0  0.14920438351688858  0.3503523554641461  0.14981495805758266  1.0000
  N   N32       1.0  0.350121000310267  0.14936066403733153  0.35094914078528916  1.0000
  N   N33       1.0  0.35026067189318866  0.14921056244855177  0.14985813736517167  1.0000
  N   N34       1.0  0.14939873435662326  0.35016831463988746  0.3508709804067465  1.0000
  N   N35       1.0  0.3499440899214291  0.35008165762992144  0.15021041585705328  1.0000
  N   N36       1.0  0.14993874829168166  0.14989241436158093  0.35032216442775177  1.0000
  Cl  Cl1       1.0  0.19799319649232677  0.6011156961489235  0.6002317710477597  1.0000
  Cl  Cl2       1.0  0.600470552129991  0.6003787533456375  0.19893257074471637  1.0000
  Cl  Cl3       1.0  0.6007258642766403  0.6005177300198669  0.6000119358667533  1.0000
  Cl  Cl4       1.0  0.6011796061835497  0.1980772131442875  0.6002109748744076  1.0000
  Cl  Cl5       1.0  0.39952785651380646  0.3996194825697046  0.8010664652482404  1.0000
  Cl  Cl6       1.0  0.8019950409850409  0.3988905563544307  0.39976868763171314  1.0000
  Cl  Cl7       1.0  0.3992788008780439  0.39948281366994093  0.3999889333324447  1.0000
  Cl  Cl8       1.0  0.3988212452223081  0.801909073941907  0.3997911566439072  1.0000
