data_image0
_chemical_formula_structural       Mn8H56C72N56O8
_chemical_formula_sum              "Mn8 H56 C72 N56 O8"
_cell_length_a       16.951825694464958
_cell_length_b       16.95191553906394
_cell_length_c       16.951899545590983
_cell_angle_alpha    108.69667216651162
_cell_angle_beta     109.8603393000787
_cell_angle_gamma    109.85970358491612

_space_group_name_H-M_alt    "P 1"
_space_group_IT_number       1

loop_
  _space_group_symop_operation_xyz
  'x, y, z'

loop_
  _atom_site_type_symbol
  _atom_site_label
  _atom_site_symmetry_multiplicity
  _atom_site_fract_x
  _atom_site_fract_y
  _atom_site_fract_z
  _atom_site_occupancy
  Mn  Mn1       1.0  0.08891310829189078  0.9578557334752135  0.08027289003049991  1.0000
  Mn  Mn2       1.0  0.3775855780762711  0.36893646735673974  0.4578558800135824  1.0000
  Mn  Mn3       1.0  0.41108152511532847  0.49135659224482003  0.8689340673940578  1.0000
  Mn  Mn4       1.0  0.12241325251956428  0.5802701588959137  0.9913491879026565  1.0000
  Mn  Mn5       1.0  0.9110775615587912  0.042142591299537416  0.9197244095372239  1.0000
  Mn  Mn6       1.0  0.6224181593267062  0.631065441251586  0.5421479520935718  1.0000
  Mn  Mn7       1.0  0.5889222122341807  0.5086496210027818  0.13106478503638644  1.0000
  Mn  Mn8       1.0  0.8775832251121684  0.4197302721726929  0.008648524487000531  1.0000
  H   H1        1.0  0.8543858851247278  0.6186358306348153  0.07953875495481094  1.0000
  H   H2        1.0  0.039097779380441004  0.2642526952942958  0.1186381443645246  1.0000
  H   H3        1.0  0.6456120331102541  0.7251537276354939  0.7642508010128637  1.0000
  H   H4        1.0  0.4609080832815949  0.5795473394165569  0.22515630509968795  1.0000
  H   H5        1.0  0.1456113184754102  0.3813631852591967  0.9204574516145028  1.0000
  H   H6        1.0  0.9609023281417493  0.7357505476960284  0.8813644968164309  1.0000
  H   H7        1.0  0.35439025233407756  0.274849814931585  0.2357523061128859  1.0000
  H   H8        1.0  0.5390949281287334  0.42045320921378965  0.7748440501678148  1.0000
  H   H9        1.0  0.3695594867931574  0.9470679628448693  0.01843027352413873  1.0000
  H   H10       1.0  0.4286364245781016  0.07750692317661388  0.4470723071706715  1.0000
  H   H11       1.0  0.1304355259271404  0.14886859935611343  0.5775074909755277  1.0000
  H   H12       1.0  0.0713613333829812  0.5184348466900701  0.6488696962963587  1.0000
  H   H13       1.0  0.6304369908422629  0.05292833013258762  0.9815655690628377  1.0000
  H   H14       1.0  0.5713600530621931  0.9224881898355407  0.5529235349190956  1.0000
  H   H15       1.0  0.869568211444289  0.8511323040476031  0.4224913592174602  1.0000
  H   H16       1.0  0.9286380481708535  0.4815654739852988  0.35113195813191583  1.0000
  H   H17       1.0  0.42918926945982616  0.09789598099150257  0.005278315784764276  1.0000
  H   H18       1.0  0.592618536944599  0.16870841656257343  0.5979001642013203  1.0000
  H   H19       1.0  0.07081083716741432  0.07608989751425807  0.6687104941733181  1.0000
  H   H20       1.0  0.9073801589830311  0.5052816614448831  0.57608764664532  1.0000
  H   H21       1.0  0.5708072081828776  0.9021007107827756  0.994718772342907  1.0000
  H   H22       1.0  0.4073772147358313  0.8312849623124947  0.4020965596954014  1.0000
  H   H23       1.0  0.9291914482563327  0.9239089005538688  0.33128700677627876  1.0000
  H   H24       1.0  0.0926199485221915  0.49471920518968193  0.4239112574163428  1.0000
  H   H25       1.0  0.343857337798724  0.192837304183918  0.01838332888958397  1.0000
  H   H26       1.0  0.6744552704049767  0.34898128849093285  0.6928400434575294  1.0000
  H   H27       1.0  0.15614625988078498  0.17453003326790656  0.8489839534015716  1.0000
  H   H28       1.0  0.8255440126868551  0.5183864365882372  0.6745247867760968  1.0000
  H   H29       1.0  0.6561413177685366  0.807161265929224  0.9816154712207847  1.0000
  H   H30       1.0  0.3255433851866414  0.6510113817956765  0.3071587541667711  1.0000
  H   H31       1.0  0.8438523956743255  0.8254693180137237  0.15101360166531216  1.0000
  H   H32       1.0  0.17445682079402047  0.48161558241333313  0.3254751032924403  1.0000
  H   H33       1.0  0.20148931126690434  0.1323517487309473  0.04337477810946671  1.0000
  H   H34       1.0  0.5889754926671458  0.43085940681623214  0.6323540398416085  1.0000
  H   H35       1.0  0.2985117069872132  0.3418893048228852  0.9308604168303558  1.0000
  H   H36       1.0  0.9110233889615245  0.5433801898346219  0.8418835268862708  1.0000
  H   H37       1.0  0.7985107962601818  0.8676481455492892  0.9566266162877639  1.0000
  H   H38       1.0  0.41102751876994853  0.569136820749705  0.3676475589777368  1.0000
  H   H39       1.0  0.7014884005204393  0.658110971829032  0.06913848698270882  1.0000
  H   H40       1.0  0.08897599257164761  0.45662189257613767  0.1581162602253912  1.0000
  H   H41       1.0  0.9836855121223279  0.8264854752873845  0.11809535081271598  1.0000
  H   H42       1.0  0.20839229970236775  0.3428023678005161  0.3264885033860311  1.0000
  H   H43       1.0  0.5163134876787508  0.6344088830511296  0.8428014701930308  1.0000
  H   H44       1.0  0.2916102886851348  0.6180998984786895  0.13441165571050115  1.0000
  H   H45       1.0  0.0163138694290978  0.17351326662586075  0.8819050575776544  1.0000
  H   H46       1.0  0.7916099857432002  0.6571997954028391  0.6735139804721585  1.0000
  H   H47       1.0  0.48368516788117694  0.3655936257547482  0.15719857694966777  1.0000
  H   H48       1.0  0.708391270784773  0.3819011123576673  0.8655898421408212  1.0000
  H   H49       1.0  0.0430565510155958  0.9337621851326007  0.20608275576230276  1.0000
  H   H50       1.0  0.22768488647815127  0.3907052224176013  0.4337654637585828  1.0000
  H   H51       1.0  0.45694506433068943  0.6630227751782983  0.8907096455481422  1.0000
  H   H52       1.0  0.27231593659526954  0.7060818303465269  0.1630205471414641  1.0000
  H   H53       1.0  0.956942830544321  0.06623774495852096  0.7939195211877106  1.0000
  H   H54       1.0  0.7723203028713216  0.6092958334004805  0.566237848286491  1.0000
  H   H55       1.0  0.5430535912377507  0.33697875306069147  0.1092910238676906  1.0000
  H   H56       1.0  0.7276841709087448  0.29391824690698337  0.8369777339012571  1.0000
  C   C1        1.0  0.9154219446028408  0.6337193293675798  0.06732857405145169  1.0000
  C   C2        1.0  0.0663924973061469  0.2183003522637392  0.1337211090886257  1.0000
  C   C3        1.0  0.5845772489836635  0.6519073857888815  0.7182994676472491  1.0000
  C   C4        1.0  0.43361391472566885  0.5673360775505146  0.15191021757800632  1.0000
  C   C5        1.0  0.0845759849875378  0.3662794677422879  0.9326698633196031  1.0000
  C   C6        1.0  0.9336068842464583  0.7817013477753463  0.8662811686072017  1.0000
  C   C7        1.0  0.41542648841928553  0.3480966915642298  0.28170561074641404  1.0000
  C   C8        1.0  0.5663890966858602  0.4326652604609008  0.8480907607084517  1.0000
  C   C9        1.0  0.0389075047777681  0.7034398349860496  0.058189801998771905  1.0000
  C   C10       1.0  0.1452491702294409  0.1645326215425058  0.2034391314005433  1.0000
  C   C11       1.0  0.4610929747123437  0.5192814195864061  0.664531179379388  1.0000
  C   C12       1.0  0.35475124300596417  0.5581913125052369  0.019282049512774766  1.0000
  C   C13       1.0  0.9610911507943385  0.2965597239065617  0.9418102439008963  1.0000
  C   C14       1.0  0.8547502113158814  0.8354686796997584  0.7965619007545967  1.0000
  C   C15       1.0  0.5389107626748456  0.4807210707920008  0.33547078491393734  1.0000
  C   C16       1.0  0.6452488645089645  0.44180936294349493  0.9807180998409778  1.0000
  C   C17       1.0  0.1192100420683602  0.7684456427363103  0.05676945028599081  1.0000
  C   C18       1.0  0.21167553478512247  0.14923418221855658  0.2684447652077679  1.0000
  C   C19       1.0  0.38078893471674036  0.4375574237659379  0.6492339732209871  1.0000
  C   C20       1.0  0.2883269132006632  0.5567736573416937  0.9375607691731034  1.0000
  C   C21       1.0  0.8807878875305236  0.23155217380665513  0.9432296093581983  1.0000
  C   C22       1.0  0.7883252987115411  0.8507672550129258  0.7315569926745908  1.0000
  C   C23       1.0  0.6192133507264188  0.5624431606752937  0.3507672645992913  1.0000
  C   C24       1.0  0.7116746462704526  0.4432281428757321  0.062441351697167115  1.0000
  C   C25       1.0  0.21598612169136544  0.8768029647389781  0.04616622252063961  1.0000
  C   C26       1.0  0.33063570849617463  0.16081391702483935  0.3768065545716865  1.0000
  C   C27       1.0  0.2840085021963077  0.3301776515351094  0.660811185365432  1.0000
  C   C28       1.0  0.16936601650452593  0.5461711431298683  0.8301791370286293  1.0000
  C   C29       1.0  0.7840074520607844  0.12319484263314714  0.9538319054825805  1.0000
  C   C30       1.0  0.6693643990272663  0.8391857778569901  0.6231942170552004  1.0000
  C   C31       1.0  0.7159923312748829  0.6698223899075159  0.3391862131245063  1.0000
  C   C32       1.0  0.8306340910031053  0.45383130226682766  0.16982101307094402  1.0000
  C   C33       1.0  0.2567977601690358  0.9636553866307196  0.03967971540856752  1.0000
  C   C34       1.0  0.4239709043989421  0.20685431636557886  0.4636595162165377  1.0000
  C   C35       1.0  0.24319553186699494  0.2828818336330343  0.7068523486527666  1.0000
  C   C36       1.0  0.07602731085103902  0.5396868652287878  0.7828834789687703  1.0000
  C   C37       1.0  0.7431950875868552  0.03633869262024076  0.9603130666981484  1.0000
  C   C38       1.0  0.5760262992291275  0.793143336589857  0.5363398032100833  1.0000
  C   C39       1.0  0.7568067535555231  0.7171183437988091  0.29314577556439053  1.0000
  C   C40       1.0  0.9239727966760184  0.4603151977962342  0.2171191617149759  1.0000
  C   C41       1.0  0.3357500415556771  0.9913997236403985  0.024390878785517617  1.0000
  C   C42       1.0  0.4670091928337996  0.15564898213836637  0.4914065044973767  1.0000
  C   C43       1.0  0.16424595249046806  0.18864026301515932  0.6556478324681335  1.0000
  C   C44       1.0  0.0329902724567219  0.5243960016113149  0.6886405445878053  1.0000
  C   C45       1.0  0.6642449841320541  0.008596632746247184  0.9756048608445838  1.0000
  C   C46       1.0  0.5329901887310058  0.8443475992426741  0.5085945256689115  1.0000
  C   C47       1.0  0.8357577848773162  0.81136044099015  0.3443503949545105  1.0000
  C   C48       1.0  0.9670112870265442  0.4756050174376157  0.3113628213259504  1.0000
  C   C49       1.0  0.36774451722369855  0.07441912512607732  0.01686971084529891  1.0000
  C   C50       1.0  0.5575515211797466  0.2066782509125247  0.574426057241908  1.0000
  C   C51       1.0  0.13225428791022859  0.1491271988150089  0.7066751996305739  1.0000
  C   C52       1.0  0.9424502291389202  0.5168728963214733  0.6491243901993967  1.0000
  C   C53       1.0  0.6322526863800989  0.9255779214215638  0.9831258722078575  1.0000
  C   C54       1.0  0.4424471343924096  0.7933169704905367  0.4255714960847286  1.0000
  C   C55       1.0  0.8677472715439193  0.8508722250466506  0.29332318412041053  1.0000
  C   C56       1.0  0.05755278228719621  0.4831270705387993  0.3508778328819345  1.0000
  C   C57       1.0  0.3201524387304389  0.1273512749006329  0.023709171512720655  1.0000
  C   C58       1.0  0.6036442591833833  0.3072041325344018  0.6273579989241186  1.0000
  C   C59       1.0  0.17984887032790914  0.20356159742855331  0.8072020574397172  1.0000
  C   C60       1.0  0.8963578171375558  0.5237132635109489  0.7035583010489644  1.0000
  C   C61       1.0  0.679846216834413  0.8726457164503855  0.9762883825597442  1.0000
  C   C62       1.0  0.39635584835590976  0.6927906430877968  0.372642147943573  1.0000
  C   C63       1.0  0.8201505111967863  0.7964392968043229  0.1927958611122947  1.0000
  C   C64       1.0  0.10364446830680409  0.4762881103113443  0.2964435597902694  1.0000
  C   C65       1.0  0.24210909346894743  0.09466931513648554  0.03859275782508586  1.0000
  C   C66       1.0  0.5560737079008291  0.3525557085086106  0.5946701729497618  1.0000
  C   C67       1.0  0.2578887686328812  0.2964868698177767  0.8525601685665122  1.0000
  C   C68       1.0  0.9439256474405796  0.538596098185984  0.7964832020557395  1.0000
  C   C69       1.0  0.7578888361250975  0.9053275126270038  0.961405056029804  1.0000
  C   C70       1.0  0.44392494769442686  0.6474371611764057  0.40532924744488247  1.0000
  C   C71       1.0  0.7421106129063942  0.7035126532639636  0.1474389947803728  1.0000
  C   C72       1.0  0.05607663799770529  0.461405666220557  0.20351803626175516  1.0000
  N   N1        1.0  0.9749319028708854  0.7200529521682526  0.0815018587383278  1.0000
  N   N2        1.0  0.13855040029906007  0.2451230278479315  0.22005242009556977  1.0000
  N   N3        1.0  0.5250674151831447  0.6065698945132141  0.7451205768009571  1.0000
  N   N4        1.0  0.36145395827936977  0.5815078545508713  0.10657221119929267  1.0000
  N   N5        1.0  0.025068204635537897  0.27994870384737414  0.9184976683422903  1.0000
  N   N6        1.0  0.8614482552669499  0.7548790903737058  0.7799482495688678  1.0000
  N   N7        1.0  0.4749334183086519  0.39343272268358487  0.2548811815786181  1.0000
  N   N8        1.0  0.6385490531333957  0.41849210409682774  0.8934281438196052  1.0000
  N   N9        1.0  0.0196222012101828  0.6121193823666147  0.030453461984841092  1.0000
  N   N10       1.0  0.08166516349134409  0.09249807011115509  0.11211824039865799  1.0000
  N   N11       1.0  0.4803787013247813  0.5108303887762277  0.5924982670075138  1.0000
  N   N12       1.0  0.41833494680111016  0.5304540093084641  0.010831457078516812  1.0000
  N   N13       1.0  0.9803779063193333  0.38787992193097415  0.9695479321637848  1.0000
  N   N14       1.0  0.9183342180588241  0.9075042199105783  0.8878840375457813  1.0000
  N   N15       1.0  0.5196272140003444  0.4891718194088527  0.4075060310444271  1.0000
  N   N16       1.0  0.5816666126530096  0.46954758329798113  0.9891681729589835  1.0000
  N   N17       1.0  0.9398691512034887  0.5672724370382342  0.03657672501134351  1.0000
  N   N18       1.0  0.0306948350164191  0.1274045229535474  0.06727133088490689  1.0000
  N   N19       1.0  0.5601318509304463  0.5967073770399338  0.6274035830539616  1.0000
  N   N20       1.0  0.46930685180615933  0.536579578376795  0.09670961703302082  1.0000
  N   N21       1.0  0.0601302303406328  0.4327280748229682  0.9634236841248408  1.0000
  N   N22       1.0  0.9693023686116291  0.872595298746667  0.9327292348282298  1.0000
  N   N23       1.0  0.4398733384214353  0.4032952575402647  0.3726009750290231  1.0000
  N   N24       1.0  0.5306954336260786  0.4634204078692149  0.9032897524762261  1.0000
  N   N25       1.0  0.138560537643805  0.8538140849763849  0.060761773544058394  1.0000
  N   N26       1.0  0.2930502266290845  0.21524916233298091  0.3538155154192495  1.0000
  N   N27       1.0  0.36143574780533083  0.42219927133859875  0.7152490566531071  1.0000
  N   N28       1.0  0.20695025601584396  0.560767568290551  0.9221996559563337  1.0000
  N   N29       1.0  0.861434488048765  0.1461832601897299  0.939235211875342  1.0000
  N   N30       1.0  0.7069506068639412  0.7847520755000945  0.6461856196927657  1.0000
  N   N31       1.0  0.6385658116512262  0.5778017312851916  0.2847505731357884  1.0000
  N   N32       1.0  0.7930520294309317  0.43923538429386605  0.07780345092081119  1.0000
  N   N33       1.0  0.2435399045012261  0.8103501967893436  0.03442083945677152  1.0000
  N   N34       1.0  0.2759240910370053  0.06680817713719735  0.31035153536284815  1.0000
  N   N35       1.0  0.2564551242585154  0.2908799220353514  0.566805762528311  1.0000
  N   N36       1.0  0.22407295701945168  0.5344248334460318  0.7908820552103819  1.0000
  N   N37       1.0  0.7564558471621582  0.18964731196430046  0.965575886180197  1.0000
  N   N38       1.0  0.7240752905107541  0.9331925341224122  0.6896494965436871  1.0000
  N   N39       1.0  0.7435471611724864  0.7091214435743751  0.4331942302484961  1.0000
  N   N40       1.0  0.7759264245270785  0.46557725717729437  0.2091195999637064  1.0000
  N   N41       1.0  0.18132432721521496  0.7407753888335478  0.041578075866013385  1.0000
  N   N42       1.0  0.1991940475598994  0.05945019055373279  0.2407732085436649  1.0000
  N   N43       1.0  0.3186750567818208  0.36025207813666776  0.5594476219939252  1.0000
  N   N44       1.0  0.30080445180079346  0.5415818491178043  0.860254913841281  1.0000
  N   N45       1.0  0.8186736023739557  0.259222618895258  0.9584197384860859  1.0000
  N   N46       1.0  0.800805333978147  0.9405507118917174  0.7592265780707877  1.0000
  N   N47       1.0  0.6813279546200021  0.6397494510605881  0.44055211100044994  1.0000
  N   N48       1.0  0.6991956557165439  0.45842040509305104  0.13974648155037542  1.0000
  N   N49       1.0  0.2112309322015591  0.015382136611862107  0.04719023867096439  1.0000
  N   N50       1.0  0.4681877319863402  0.30414682478924965  0.5153860201401911  1.0000
  N   N51       1.0  0.28876535705104095  0.33596076773617517  0.80414743453656  1.0000
  N   N52       1.0  0.0318078975804781  0.5471956210643044  0.8359573184963339  1.0000
  N   N53       1.0  0.788764819460617  0.9846145827607204  0.9528058639470486  1.0000
  N   N54       1.0  0.5318145534774743  0.695851997916591  0.48461708499670647  1.0000
  N   N55       1.0  0.711236202407946  0.6640396449049604  0.19585219500371662  1.0000
  N   N56       1.0  0.9681900320086426  0.45280672415405127  0.16404298842879683  1.0000
  O   O1        1.0  0.9953902349422775  0.8951296043883872  0.1373607746713645  1.0000
  O   O2        1.0  0.2577725376997506  0.3997410118226624  0.39513265039907697  1.0000
  O   O3        1.0  0.5046111741722542  0.6419675687420964  0.8997405950763522  1.0000
  O   O4        1.0  0.24222737816184287  0.6373605313549221  0.14196640267230257  1.0000
  O   O5        1.0  0.0046091466176392  0.10487032570273408  0.8626415022786418  1.0000
  O   O6        1.0  0.7422304737129863  0.6002611155698149  0.6048689509063294  1.0000
  O   O7        1.0  0.49538820736091793  0.3580345136686632  0.1002591920353098  1.0000
  O   O8        1.0  0.7577720033810778  0.36263919112522564  0.8580333834449335  1.0000
