data_image0
_chemical_formula_structural       Cd2H28C28N4O10
_chemical_formula_sum              "Cd2 H28 C28 N4 O10"
_cell_length_a       7.651057082497184
_cell_length_b       10.248886649910416
_cell_length_c       11.123745557785794
_cell_angle_alpha    76.76646360989304
_cell_angle_beta     71.14918611234522
_cell_angle_gamma    63.45357516399804

_space_group_name_H-M_alt    "P 1"
_space_group_IT_number       1

loop_
  _space_group_symop_operation_xyz
  'x, y, z'

loop_
  _atom_site_type_symbol
  _atom_site_label
  _atom_site_symmetry_multiplicity
  _atom_site_fract_x
  _atom_site_fract_y
  _atom_site_fract_z
  _atom_site_occupancy
  Cd  Cd1       1.0  0.28760602065599294  0.7381668192767564  0.21043677702938618  1.0000
  Cd  Cd2       1.0  0.7124301684562373  0.26182283776414284  0.7895579801940966  1.0000
  H   H1        1.0  0.2673350062551948  0.0211121230788791  0.3106228767922231  1.0000
  H   H2        1.0  0.7326391859521385  0.9788891604397492  0.6893793974718676  1.0000
  H   H3        1.0  0.6463671643388835  0.5190750485507041  0.5214915728122377  1.0000
  H   H4        1.0  0.35365982142940333  0.48094639942763  0.47850390049465824  1.0000
  H   H5        1.0  0.692938748069246  0.6781916739133892  0.4840880268007907  1.0000
  H   H6        1.0  0.3071054496848051  0.3218134454483348  0.515916650561536  1.0000
  H   H7        1.0  0.21757784454590745  0.0659214200615708  0.7683262388830058  1.0000
  H   H8        1.0  0.782388111442451  0.9340757121620415  0.2316736334383478  1.0000
  H   H9        1.0  0.9971432012670295  0.4115389967351248  0.4368988682949463  1.0000
  H   H10       1.0  0.0028777153527741427  0.5884468533807592  0.5630944516646464  1.0000
  H   H11       1.0  0.91541337192318  0.4388444332250074  0.30042998615499517  1.0000
  H   H12       1.0  0.08458151572370554  0.5611771744721424  0.6995647590450531  1.0000
  H   H13       1.0  0.2236974750215169  0.3660703758598984  0.00030569145118158273  1.0000
  H   H14       1.0  0.7762576787069553  0.6339280649203332  0.9996909578081625  1.0000
  H   H15       1.0  0.3099679907734869  0.5748978033127302  0.9880107653763444  1.0000
  H   H16       1.0  0.6900295022127808  0.4250926233486895  0.011988637807696977  1.0000
  H   H17       1.0  0.21966229920393238  0.205073793606843  0.8684147227352239  1.0000
  H   H18       1.0  0.7802981601355231  0.7949204070757929  0.1315866069365511  1.0000
  H   H19       1.0  0.24538881078509442  0.879992301666903  0.648114146457999  1.0000
  H   H20       1.0  0.7545922576785176  0.11999746021820103  0.351881485860865  1.0000
  H   H21       1.0  0.2989091663081711  0.6231574707108508  0.7593665720273036  1.0000
  H   H22       1.0  0.7010995232882994  0.3768292648027369  0.24063289374277017  1.0000
  H   H23       1.0  0.2560770000523078  0.2735504551320389  0.2250547377927248  1.0000
  H   H24       1.0  0.7438831985442038  0.726455149315335  0.774938683820153  1.0000
  H   H25       1.0  0.9193640475936182  0.8317437607889462  0.44053981243889934  1.0000
  H   H26       1.0  0.08064433672715418  0.16826288177219337  0.559466199393995  1.0000
  H   H27       1.0  0.055452984643174795  0.8722687145012246  0.4880842225051154  1.0000
  H   H28       1.0  0.9445876814576054  0.1277238091923749  0.5119074293739913  1.0000
  C   C1        1.0  0.25989627040485175  0.06449278051302092  0.2123746055480069  1.0000
  C   C2        1.0  0.7400806721253166  0.9355124636214923  0.7876236716187603  1.0000
  C   C3        1.0  0.7010362282164095  0.5883671109899781  0.44142026418475666  1.0000
  C   C4        1.0  0.29900542100550376  0.41164396025628497  0.5585744161215657  1.0000
  C   C5        1.0  0.04773063180275028  0.5812170282395217  0.3024881180759279  1.0000
  C   C6        1.0  0.9523095582523953  0.41878148437625384  0.6975122589900947  1.0000
  C   C7        1.0  0.24582946340299844  0.023944363823936488  0.018007578341013183  1.0000
  C   C8        1.0  0.7541399419200092  0.9760455907825261  0.9820006143304666  1.0000
  C   C9        1.0  0.24176671017627901  0.9556423683170223  0.8145396100666034  1.0000
  C   C10       1.0  0.7582121825999979  0.0443454811377109  0.18545857750124373  1.0000
  C   C11       1.0  0.5486325386737223  0.6527637707655459  0.3613972054639802  1.0000
  C   C12       1.0  0.4513782185141084  0.3472608584413521  0.638620817797097  1.0000
  C   C13       1.0  0.2550124286104707  0.9184665138130726  0.9414571447860779  1.0000
  C   C14       1.0  0.7449631708515556  0.08153470083155409  0.0585449365422477  1.0000
  C   C15       1.0  0.9162836609852363  0.4977827931164997  0.3709504822721996  1.0000
  C   C16       1.0  0.08374515893053332  0.5022127310414534  0.6290467940339112  1.0000
  C   C17       1.0  0.23250376012018148  0.2565921141399842  0.04107236837184302  1.0000
  C   C18       1.0  0.7674508871561162  0.7434051697816387  0.9589227971174025  1.0000
  C   C19       1.0  0.2928148073414935  0.6815297157083932  0.934311628036724  1.0000
  C   C20       1.0  0.707180435018117  0.3184601560246847  0.06569457556099681  1.0000
  C   C21       1.0  0.23014437582239838  0.1656178066719676  0.9663163670361569  1.0000
  C   C22       1.0  0.7698220933741458  0.8343782335813189  0.033683669509052466  1.0000
  C   C23       1.0  0.25703167026375  0.8504955278754808  0.746811665503415  1.0000
  C   C24       1.0  0.7429630926676796  0.1494841916832499  0.25318777613919957  1.0000
  C   C25       1.0  0.2842597867491321  0.7102901440406485  0.80732261380804  1.0000
  C   C26       1.0  0.7157260059339666  0.2896955783902726  0.19268046031784533  1.0000
  C   C27       1.0  0.24958029490082378  0.2054951121642362  0.16578242603373639  1.0000
  C   C28       1.0  0.7503633744505012  0.7945274188443109  0.8342115307656712  1.0000
  N   N1        1.0  0.2795735729702076  0.7823148401377936  0.998999925585913  1.0000
  N   N2        1.0  0.7204268641360515  0.21767948025836148  0.000994560035941594  1.0000
  N   N3        1.0  0.25803252126543463  0.9769583345938243  0.14018389149644858  1.0000
  N   N4        1.0  0.7419554200810131  0.023038295583212676  0.8598219055654466  1.0000
  O   O1        1.0  0.6055095758081992  0.617488710336808  0.24691704433704587  1.0000
  O   O2        1.0  0.39450718537910506  0.3824971609232152  0.7531077069398647  1.0000
  O   O3        1.0  0.9800626956959213  0.7183091517477181  0.31711152193514625  1.0000
  O   O4        1.0  0.019983317175146592  0.2816890184909155  0.6828871629229311  1.0000
  O   O5        1.0  0.36692120294404884  0.7353018985295422  0.41075749286627417  1.0000
  O   O6        1.0  0.6331312246121288  0.26476469551308673  0.5892324502466763  1.0000
  O   O7        1.0  0.22363204575841436  0.5138643051628832  0.2350331216373718  1.0000
  O   O8        1.0  0.776398822993315  0.48612186142298  0.7649713484083875  1.0000
  O   O9        1.0  0.9138149580674629  0.9003453105461998  0.4920435658589069  1.0000
  O   O10       1.0  0.08621454458889137  0.09965081155630172  0.5079634496891714  1.0000
