data_image0
_chemical_formula_structural       K4H32Pt2C56N16
_chemical_formula_sum              "K4 H32 Pt2 C56 N16"
_cell_length_a       8.219436632
_cell_length_b       8.42262486941443
_cell_length_c       20.405
_cell_angle_alpha    90.0
_cell_angle_beta     90.0
_cell_angle_gamma    105.41168090545766

_space_group_name_H-M_alt    "P 1"
_space_group_IT_number       1

loop_
  _space_group_symop_operation_xyz
  'x, y, z'

loop_
  _atom_site_type_symbol
  _atom_site_label
  _atom_site_symmetry_multiplicity
  _atom_site_fract_x
  _atom_site_fract_y
  _atom_site_fract_z
  _atom_site_occupancy
  K   K1        1.0  0.9685711140008307  0.12022279826712892  0.577921097770151  1.0000
  K   K2        1.0  0.031449500214606  0.3797810339284737  0.0779240382259232  1.0000
  K   K3        1.0  0.031449692751195406  0.8797873292517409  0.4220764518500387  1.0000
  K   K4        1.0  0.9685669465693394  0.6202130832605663  0.922078902229849  1.0000
  H   H1        1.0  0.3421601564438603  0.9793814333131436  0.5648811565792684  1.0000
  H   H2        1.0  0.6578368919221091  0.5206140529438275  0.0648801764273443  1.0000
  H   H3        1.0  0.657840053207117  0.0206200732588897  0.4351188434207316  1.0000
  H   H4        1.0  0.342163863592944  0.4793849905005416  0.9351208037245797  1.0000
  H   H5        1.0  0.5587297514385056  0.871461957739456  0.6215589316344037  1.0000
  H   H6        1.0  0.4412651990528289  0.628534760081344  0.1215555011026694  1.0000
  H   H7        1.0  0.4412676895735217  0.1285383172687418  0.37844253859348237  1.0000
  H   H8        1.0  0.5587365626087006  0.3714679780545254  0.8784440088213684  1.0000
  H   H9        1.0  0.5535483509571861  0.8558752858667662  0.7453207547169782  1.0000
  H   H10       1.0  0.4464415225386489  0.644125126645541  0.24531683410928906  1.0000
  H   H11       1.0  0.44644233614853585  0.1441225260137742  0.2546807155109008  1.0000
  H   H12       1.0  0.5535584766304069  0.3558800746179926  0.7546826758147489  1.0000
  H   H13       1.0  0.42374215134645976  0.9087610999910751  0.8504895858858105  1.0000
  H   H14       1.0  0.5762435264001127  0.5912417756488966  0.3504876255819624  1.0000
  H   H15       1.0  0.57624421510976  0.0912342487617934  0.14951041411418936  1.0000
  H   H16       1.0  0.4237512708732041  0.4087621940508086  0.6495123744180373  1.0000
  H   H17       1.0  0.2071254618461538  0.0087675029283929  0.9091271747120826  1.0000
  H   H18       1.0  0.7928634344493304  0.491244950214039  0.4091266846361208  1.0000
  H   H19       1.0  0.792866020924137  0.991237698335148  0.0908718451359931  1.0000
  H   H20       1.0  0.20712960033151262  0.5087614826133307  0.5908747855917653  1.0000
  H   H21       1.0  0.9503362472597985  0.1120156568828321  0.9065425140896861  1.0000
  H   H22       1.0  0.04965353028192249  0.387995564695764  0.4065454545454514  1.0000
  H   H23       1.0  0.049656452138890465  0.8879895443807015  0.0934550355305106  1.0000
  H   H24       1.0  0.9503410565094796  0.6120120996954341  0.5934584660622375  1.0000
  H   H25       1.0  0.7351244491545615  0.2033336519852824  0.8408787061994615  1.0000
  H   H26       1.0  0.264865203486913  0.2966726433379847  0.34088311688311984  1.0000
  H   H27       1.0  0.2648687961082032  0.7966690861505867  0.15911688311688005  1.0000
  H   H28       1.0  0.7351287125401669  0.703332557925556  0.6591222739524625  1.0000
  H   H29       1.0  0.7556994303882191  0.2020848462584439  0.7179701053663337  1.0000
  H   H30       1.0  0.24429274109171928  0.2979128281179939  0.21797500612594684  1.0000
  H   H31       1.0  0.24429679399541024  0.797915428749761  0.2820254839500151  1.0000
  H   H32       1.0  0.7557055811665379  0.702086215326382  0.7820308747855904  1.0000
  Pt  Pt1       1.0  0.5000159637854579  0.4999964428126021  0.5000068610634685  1.0000
  Pt  Pt2       1.0  0.5000099482798319  0.9999978118805402  0.9999892183288424  1.0000
  C   C1        1.0  0.6821246174411473  0.7022586342630248  0.5165082087723576  1.0000
  C   C2        1.0  0.3179014195243893  0.7977405466854464  0.0164944866454277  1.0000
  C   C3        1.0  0.3179137679724916  0.2977490301281804  0.48350061259495186  1.0000
  C   C4        1.0  0.6821122586205988  0.2022523389397577  0.9834932614555285  1.0000
  C   C5        1.0  0.6463431251470908  0.3625982553279812  0.5313354569958334  1.0000
  C   C6        1.0  0.3536684730685948  0.1373858718462913  0.03131879441313149  1.0000
  C   C7        1.0  0.35367340721852253  0.6373872409142294  0.4686782651310962  1.0000
  C   C8        1.0  0.6463447447939927  0.862600855959748  0.9686625827003181  1.0000
  C   C9        1.0  0.3413650773653316  0.9700597266598265  0.6183146287674575  1.0000
  C   C10       1.0  0.6586305438903253  0.5299394542886517  0.11831413869149539  1.0000
  C   C11       1.0  0.6586308116361367  0.0299393167845494  0.3816848811565804  1.0000
  C   C12       1.0  0.34137088238904306  0.4700620522833888  0.8816873315363905  1.0000
  C   C13       1.0  0.46442489787750657  0.909873202132438  0.6504827248223463  1.0000
  C   C14       1.0  0.5355667381107948  0.5901247472522044  0.1504812545944603  1.0000
  C   C15       1.0  0.5355701098777246  0.09012707287576663  0.34951727517765346  1.0000
  C   C16       1.0  0.46443070290122523  0.4098755277560002  0.8495187454055397  1.0000
  C   C17       1.0  0.46105444300329174  0.9015441359286529  0.71807449154619  1.0000
  C   C18       1.0  0.5389363117387801  0.5984550450198187  0.218073021318304  1.0000
  C   C19       1.0  0.5389371253486671  0.0984524443880517  0.2819255084538098  1.0000
  C   C20       1.0  0.46106213541972346  0.4015489246798865  0.7819274687576581  1.0000
  C   C21       1.0  0.3361462251944545  0.9537636740192212  0.7531041411418755  1.0000
  C   C22       1.0  0.6638426421549041  0.5462330438015854  0.2531031609899514  1.0000
  C   C23       1.0  0.6638446723931891  0.046230443169818614  0.24689536878216237  1.0000
  C   C24       1.0  0.3361554696214384  0.45376969433428377  0.7468978191619726  1.0000
  C   C25       1.0  0.21553210700929526  0.010736773497640703  0.7159926488605706  1.0000
  C   C26       1.0  0.7844570853497785  0.4892633640064616  0.21599264886057057  1.0000
  C   C27       1.0  0.7844591259605095  0.989258575255228  0.2840058809115433  1.0000
  C   C28       1.0  0.21554069104440293  0.5107381425655788  0.7840098015192325  1.0000
  C   C29       1.0  0.3295684777649797  0.9521663357275898  0.8232271502082824  1.0000
  C   C30       1.0  0.6704192978562203  0.547835308348553  0.3232271502082824  1.0000
  C   C31       1.0  0.6704206573301903  0.0478302445891146  0.1767713795638315  1.0000
  C   C32       1.0  0.3295751640349351  0.45216742978731633  0.6767743200196037  1.0000
  C   C33       1.0  0.20890797093231578  0.005846233516095402  0.8556265621171305  1.0000
  C   C34       1.0  0.79108478573027  0.4941625249348435  0.3556275422690546  1.0000
  C   C35       1.0  0.7910837223198894  0.9941552730559452  0.1443714775790212  1.0000
  C   C36       1.0  0.2089118989357601  0.5058439078925332  0.6443749081107554  1.0000
  C   C37       1.0  0.08317859330009011  0.06075550701831391  0.8205283018867958  1.0000
  C   C38       1.0  0.9168107239592231  0.4392495567411175  0.3205297721146748  1.0000
  C   C39       1.0  0.9168134353342765  0.9392472311175555  0.17946973780936298  1.0000
  C   C40       1.0  0.08318528994249158  0.5607544129585875  0.6794731683410902  1.0000
  C   C41       1.0  0.08412434801147839  0.0632678972379992  0.7506130850281778  1.0000
  C   C42       1.0  0.9158655151119106  0.4367347033937677  0.2506150453320259  1.0000
  C   C43       1.0  0.9158675557226416  0.9367299146425412  0.24938446459201194  1.0000
  C   C44       1.0  0.08413104465387285  0.5632668031782659  0.7493878951237463  1.0000
  C   C45       1.0  0.9548106108623102  0.1127558267465716  0.8531805929919114  1.0000
  C   C46       1.0  0.04518038330780879  0.3872553948320245  0.3531835334476838  1.0000
  C   C47       1.0  0.04518020114366548  0.8872469113892976  0.1468169566282782  1.0000
  C   C48       1.0  0.954813532719271  0.6127498064315091  0.6468208772359745  1.0000
  C   C49       1.0  0.8357388604288402  0.16321176542802365  0.8169139916687057  1.0000
  C   C50       1.0  0.1642511275947953  0.3367957614590722  0.31691889242832616  1.0000
  C   C51       1.0  0.16425539098040082  0.836794667399346  0.18308159764763587  1.0000
  C   C52       1.0  0.8357436696785214  0.6632082082406257  0.683087478559173  1.0000
  C   C53       1.0  0.8475838806467806  0.1620811898291663  0.7481494731683396  1.0000
  C   C54       1.0  0.1524084157333974  0.3379214108026005  0.24815388385199807  1.0000
  C   C55       1.0  0.15240902923381583  0.837920316742867  0.2518466062239639  1.0000
  C   C56       1.0  0.8475905772891821  0.6620800957694402  0.7518524871355081  1.0000
  N   N1        1.0  0.7910907135161694  0.8224863587854829  0.525559911786324  1.0000
  N   N2        1.0  0.20893322557473226  0.6775140537268172  0.0255579514824831  1.0000
  N   N3        1.0  0.2089293831529559  0.17750775840355  0.4744386179857897  1.0000
  N   N4        1.0  0.7910924476908717  0.3224960737920526  0.9744420485175169  1.0000
  N   N5        1.0  0.7336377100702975  0.2817534790628713  0.5495280568488141  1.0000
  N   N6        1.0  0.2663734278629874  0.2182244902922363  0.0495153148738083  1.0000
  N   N7        1.0  0.26637248935285374  0.7182221646686742  0.45048272482235047  1.0000
  N   N8        1.0  0.7336465439058985  0.7817647006414676  0.9504704729232997  1.0000
  N   N9        1.0  0.22026636084984827  0.0179845266558942  0.6494761087968612  1.0000
  N   N10       1.0  0.779728243886879  0.4820131477205437  0.1494761087968612  1.0000
  N   N11       1.0  0.779731080162172  0.9820157483523104  0.3505229110512146  1.0000
  N   N12       1.0  0.2202725116281741  0.5179858957238253  0.8505258515069869  1.0000
  N   N13       1.0  0.9663674262878033  0.11372999373861603  0.7156049987748077  1.0000
  N   N14       1.0  0.03362231193534631  0.3862676806378219  0.2156069590786558  1.0000
  N   N15       1.0  0.03362602945687601  0.8862690497057528  0.28439304092134415  1.0000
  N   N16       1.0  0.9663756749407566  0.6137301312427184  0.7843969615290403  1.0000
