data_image0
_chemical_formula_structural       Co2H48C44S2N8O14
_chemical_formula_sum              "Co2 H48 C44 S2 N8 O14"
_cell_length_a       8.357057753083168
_cell_length_b       11.326993725863929
_cell_length_c       11.847676270332027
_cell_angle_alpha    103.67100834832203
_cell_angle_beta     90.00038608535712
_cell_angle_gamma    90.00025074468024

_space_group_name_H-M_alt    "P 1"
_space_group_IT_number       1

loop_
  _space_group_symop_operation_xyz
  'x, y, z'

loop_
  _atom_site_type_symbol
  _atom_site_label
  _atom_site_symmetry_multiplicity
  _atom_site_fract_x
  _atom_site_fract_y
  _atom_site_fract_z
  _atom_site_occupancy
  Co  Co1       1.0  0.5188642588528154  0.15653563543433785  0.3487063552935368  1.0000
  Co  Co2       1.0  0.018871124550536  0.8434657406535493  0.6512913874354922  1.0000
  H   H1        1.0  0.5485643949475687  0.5616080888541076  0.7342739195988698  1.0000
  H   H2        1.0  0.0485782601215448  0.4383898221168465  0.2657316191987462  1.0000
  H   H3        1.0  0.44519252745908483  0.3573491458001854  0.7324688830897657  1.0000
  H   H4        1.0  0.9452053851226268  0.6426434330483346  0.267537199520163  1.0000
  H   H5        1.0  0.3709638041538383  0.7223129677508026  0.6878635193898361  1.0000
  H   H6        1.0  0.8709643913994894  0.2776892382373575  0.3121427018310712  1.0000
  H   H7        1.0  0.1584213684078435  0.30492107980634126  0.6870813059121232  1.0000
  H   H8        1.0  0.6584337805289024  0.6950937051374807  0.3129225763112942  1.0000
  H   H9        1.0  0.7907902778566863  0.6268027785978844  0.6006352122081324  1.0000
  H   H10       1.0  0.2907932078369697  0.37319899239665927  0.39935536809257133  1.0000
  H   H11       1.0  0.7545532254905253  0.18649565046299435  0.7106624672290137  1.0000
  H   H12       1.0  0.25455858204260545  0.8135032347883778  0.2893332179491495  1.0000
  H   H13       1.0  0.6342815376067107  0.07140840329848429  0.8297580727680297  1.0000
  H   H14       1.0  0.13428269216477415  0.9285926373991983  0.17024347620984057  1.0000
  H   H15       1.0  0.7925064439178016  0.08527044969466856  0.930906346113069  1.0000
  H   H16       1.0  0.292510068248248  0.9147331758823825  0.06909478477584234  1.0000
  H   H17       1.0  0.15122482864442333  0.19301158529340504  0.23826496160402397  1.0000
  H   H18       1.0  0.6512185495725547  0.8069859231274703  0.7617426244825366  1.0000
  H   H19       1.0  0.0641521783154175  0.22734629123022645  0.8879793529712003  1.0000
  H   H20       1.0  0.5641581445946642  0.7726535202574637  0.11202921090426798  1.0000
  H   H21       1.0  0.9691459951230996  0.2359125918987885  0.08688483509938291  1.0000
  H   H22       1.0  0.4691467642004881  0.76408556264186  0.9131251305338707  1.0000
  H   H23       1.0  0.6921456393764485  0.34985567374427257  0.0746063523616414  1.0000
  H   H24       1.0  0.19214472611579228  0.6501429116218205  0.9253906808154254  1.0000
  H   H25       1.0  0.835941242218446  0.5706649773892136  0.8432355964379423  1.0000
  H   H26       1.0  0.3359503426227803  0.42933520899922667  0.15675904755147485  1.0000
  H   H27       1.0  0.7294311193236921  0.09480468798478367  0.1357081778312477  1.0000
  H   H28       1.0  0.22942855254783717  0.9051940794257476  0.8642890591713268  1.0000
  H   H29       1.0  0.3491755201930573  0.17886236039412037  0.8328326986241805  1.0000
  H   H30       1.0  0.8491894966708172  0.8211379123971128  0.1671696190463194  1.0000
  H   H31       1.0  0.7680650620518534  0.5494863214647336  0.04022733648010759  1.0000
  H   H32       1.0  0.2680622342701183  0.4505135383238894  0.9597686255973628  1.0000
  H   H33       1.0  0.8806546982354178  0.3036708905627066  0.5869793379840686  1.0000
  H   H34       1.0  0.3806726691883568  0.6963349680922376  0.41301761339332893  1.0000
  H   H35       1.0  0.7222200768880711  0.4078363695073931  0.5957602605813435  1.0000
  H   H36       1.0  0.2222326106694368  0.5921659922327649  0.4042360600834272  1.0000
  H   H37       1.0  0.5067259298065775  0.15423457723608183  0.5648403894195653  1.0000
  H   H38       1.0  0.0067473262253017  0.8457776426402931  0.43515972366380856  1.0000
  H   H39       1.0  0.6881675218260525  0.14727095821703529  0.5189904403548198  1.0000
  H   H40       1.0  0.1881774636464542  0.8527258147753967  0.4810146109030739  1.0000
  H   H41       1.0  0.4476669536104864  0.9553592090944676  0.3964641759353427  1.0000
  H   H42       1.0  0.9476681032530576  0.0446415348782381  0.6035353017629816  1.0000
  H   H43       1.0  0.6114143996032766  0.9444787547790269  0.3294925944100484  1.0000
  H   H44       1.0  0.1114315867680915  0.05551489111245188  0.6705021376088709  1.0000
  H   H45       1.0  0.27932502884726057  0.1643868461206708  0.5025465252216037  1.0000
  H   H46       1.0  0.7793305310828202  0.8356121649194178  0.4974509845600608  1.0000
  H   H47       1.0  0.19005604215774946  0.11513826639622951  0.3874516729928246  1.0000
  H   H48       1.0  0.6900606056172263  0.8848566816988777  0.6125470703251564  1.0000
  C   C1        1.0  0.42349149717745854  0.541326468604204  0.7117137609082747  1.0000
  C   C2        1.0  0.9234987938282017  0.4586686961586962  0.2882809879458748  1.0000
  C   C3        1.0  0.36426938542348347  0.4248291883026522  0.7119204943773879  1.0000
  C   C4        1.0  0.8642796995187253  0.5751757011009176  0.2880829210772191  1.0000
  C   C5        1.0  0.3260757511559688  0.6320140553282982  0.6873365945436021  1.0000
  C   C6        1.0  0.8260828122367414  0.36798518397864644  0.31266117081636213  1.0000
  C   C7        1.0  0.16457612868995847  0.6035972455452736  0.6634039140900398  1.0000
  C   C8        1.0  0.6645800001648041  0.3964093824871142  0.3365947958885513  1.0000
  C   C9        1.0  0.2044928481353239  0.3948242249341618  0.6870158868463676  1.0000
  C   C10       1.0  0.7045023843906293  0.6051844321127079  0.3129893596112865  1.0000
  C   C11       1.0  0.10689282516230489  0.4855934472957557  0.6622923347409468  1.0000
  C   C12       1.0  0.6068985391521194  0.5144101854408872  0.3377096736903411  1.0000
  C   C13       1.0  0.9090412654075024  0.5995248618173931  0.6225178208508808  1.0000
  C   C14       1.0  0.4090453124918199  0.4004784120671231  0.37747952109356214  1.0000
  C   C15       1.0  0.7187044180213462  0.25473378582307754  0.8938677036183335  1.0000
  C   C16       1.0  0.2187087106777383  0.7452694697357883  0.1061296454517375  1.0000
  C   C17       1.0  0.4088034320314264  0.16021301810925334  0.006759105711537898  1.0000
  C   C18       1.0  0.9088080982743206  0.8397802698586002  0.9932393796828618  1.0000
  C   C19       1.0  0.7985587337319799  0.379941082530756  0.7622501565663953  1.0000
  C   C20       1.0  0.29855773068049263  0.6200598347343343  0.2377461752730099  1.0000
  C   C21       1.0  0.7568775962569488  0.2670099819742191  0.7822526491319052  1.0000
  C   C22       1.0  0.2568757970198163  0.7329871095352442  0.2177468655767  1.0000
  C   C23       1.0  0.6823564446314023  0.12904417727452258  0.9103250510184394  1.0000
  C   C24       1.0  0.18235765315844077  0.8709580018980743  0.08967527464648839  1.0000
  C   C25       1.0  0.3558033254969573  0.16425182079873218  0.1215552292249171  1.0000
  C   C26       1.0  0.8557996039274869  0.8357466574628489  0.8784433401535665  1.0000
  C   C27       1.0  0.1953607207137082  0.19068374164420016  0.15146936593553306  1.0000
  C   C28       1.0  0.6953577444650774  0.8093157873540517  0.8485346445962421  1.0000
  C   C29       1.0  0.1483052833432623  0.2090487020522005  0.952111497352547  1.0000
  C   C30       1.0  0.6483118816915195  0.790949695891584  0.04789458668270911  1.0000
  C   C31       1.0  0.0938305841461258  0.21285583568467806  0.06549897028437358  1.0000
  C   C32       1.0  0.5938283773093997  0.7871413925154798  0.9345083020539064  1.0000
  C   C33       1.0  0.7218270864197506  0.3572912669245553  0.98685670863847  1.0000
  C   C34       1.0  0.22183225971674858  0.6427110880402153  0.013137920675717394  1.0000
  C   C35       1.0  0.8029318449247353  0.4816260536548355  0.8562174005942039  1.0000
  C   C36       1.0  0.302935306902519  0.5183757983966616  0.1437808474021338  1.0000
  C   C37       1.0  0.6101761709396455  0.11815716974921739  0.112193706346261  1.0000
  C   C38       1.0  0.1101725250723078  0.8818428325594636  0.8878032848295163  1.0000
  C   C39       1.0  0.3073035927953923  0.1828676070680899  0.9206893882194578  1.0000
  C   C40       1.0  0.8073094600888595  0.8171324685191976  0.0793152342990666  1.0000
  C   C41       1.0  0.7645061865694345  0.4699814868481693  0.967713647308443  1.0000
  C   C42       1.0  0.2645061655005705  0.5300165408203624  0.032282733800343515  1.0000
  C   C43       1.0  0.8328177882832077  0.389704269480056  0.6390299162946107  1.0000
  C   C44       1.0  0.33282997233532546  0.6102995529403258  0.360971434989338  1.0000
  S   S1        1.0  0.8880310604889344  0.025537493842996594  0.3770609878733353  1.0000
  S   S2        1.0  0.3880419271847373  0.9744602429002498  0.622940933033874  1.0000
  N   N1        1.0  0.4862334587346807  0.1377103355695013  0.1852841856766219  1.0000
  N   N2        1.0  0.9862268279747112  0.8622924114379201  0.8147150643543952  1.0000
  N   N3        1.0  0.5701196850616556  0.13052934889520879  0.004673318611892805  1.0000
  N   N4        1.0  0.07012426357540139  0.8694677321007022  0.9953228444400465  1.0000
  N   N5        1.0  0.9456436209896707  0.48635920549340017  0.635061522831279  1.0000
  N   N6        1.0  0.4456529331973725  0.5136451484440554  0.36493368850596397  1.0000
  N   N7        1.0  0.0360417177315497  0.6727598619640174  0.6391074227944245  1.0000
  N   N8        1.0  0.5360466651000237  0.3272434248361904  0.3608941983101843  1.0000
  O   O1        1.0  0.8010361154069087  0.09075003961589798  0.30192161711276805  1.0000
  O   O2        1.0  0.30103663878595904  0.9092454454972552  0.6980760437112891  1.0000
  O   O3        1.0  0.8735794427270419  0.09796809319927746  0.5013625893772726  1.0000
  O   O4        1.0  0.37358384884807794  0.9020277654747347  0.49864222476126224  1.0000
  O   O5        1.0  0.8139953530073072  0.9021486612013236  0.3683488308165863  1.0000
  O   O6        1.0  0.31401475937653334  0.09785235083823102  0.6316543421949419  1.0000
  O   O7        1.0  0.0586659866229056  0.007562923909119899  0.344256615787188  1.0000
  O   O8        1.0  0.5586739681759029  0.9924350557235259  0.6557557349454655  1.0000
  O   O9        1.0  0.5809265128021579  0.18630090430843183  0.5147600539308712  1.0000
  O   O10       1.0  0.0809362884849278  0.8136962391423451  0.4852395465775672  1.0000
  O   O11       1.0  0.5021822641746352  0.9785330252810664  0.3288144322861228  1.0000
  O   O12       1.0  0.0021944888825942  0.0214628057630364  0.6711777779703496  1.0000
  O   O13       1.0  0.2692864407527368  0.17901879274883473  0.42407532462791414  1.0000
  O   O14       1.0  0.769290282216076  0.8209783496840612  0.5759208795678604  1.0000
