data_image0
_chemical_formula_structural       Ca2H64C60N4O12
_chemical_formula_sum              "Ca2 H64 C60 N4 O12"
_cell_length_a       7.592025250749056
_cell_length_b       10.225780436809544
_cell_length_c       18.243641436136564
_cell_angle_alpha    94.28933039567612
_cell_angle_beta     91.7454595521408
_cell_angle_gamma    104.79368021024109

_space_group_name_H-M_alt    "P 1"
_space_group_IT_number       1

loop_
  _space_group_symop_operation_xyz
  'x, y, z'

loop_
  _atom_site_type_symbol
  _atom_site_label
  _atom_site_symmetry_multiplicity
  _atom_site_fract_x
  _atom_site_fract_y
  _atom_site_fract_z
  _atom_site_occupancy
  Ca  Ca1       1.0  0.6808385608944433  0.3979296148984517  0.5207310515213095  1.0000
  Ca  Ca2       1.0  0.3191420145597448  0.6020838053030318  0.4792670224205508  1.0000
  H   H1        1.0  0.3373856126606399  0.28089338901098426  0.4398591274147277  1.0000
  H   H2        1.0  0.6625741038699644  0.7191099606987735  0.5601414097064816  1.0000
  H   H3        1.0  0.36591383241704994  0.1401679765437082  0.4606099836143043  1.0000
  H   H4        1.0  0.6340735652437742  0.8598355808414767  0.5393793760289396  1.0000
  H   H5        1.0  0.8963905621440703  0.210060884964129  0.5900792673045101  1.0000
  H   H6        1.0  0.1036228214748363  0.7899522005097169  0.4099164320677743  1.0000
  H   H7        1.0  0.7285926596330158  0.21958927166635087  0.63490213306693  1.0000
  H   H8        1.0  0.2714234516382065  0.7804204215161692  0.3650988862828654  1.0000
  H   H9        1.0  0.7361351316782246  0.572585824680587  0.12278798057431564  1.0000
  H   H10       1.0  0.26387291059664625  0.42739492769109705  0.8772205955278022  1.0000
  H   H11       1.0  0.0215281014386051  0.5112937948710511  0.15206855879641518  1.0000
  H   H12       1.0  0.9784972412633338  0.48872255115474433  0.847958726346725  1.0000
  H   H13       1.0  0.11399367901487521  0.4896643189016814  0.2824660746836684  1.0000
  H   H14       1.0  0.8860198785650867  0.5103875525723752  0.717569702332838  1.0000
  H   H15       1.0  0.9036779403340705  0.5199629222391097  0.3815983860707347  1.0000
  H   H16       1.0  0.0962984914267722  0.4800779530647788  0.6184231581508539  1.0000
  H   H17       1.0  0.4404725008810575  0.644199177295427  0.2683605012536602  1.0000
  H   H18       1.0  0.5594939814549919  0.35578702375875093  0.7316336422103118  1.0000
  H   H19       1.0  0.1121328705792806  0.6315487862102104  0.9765274546157197  1.0000
  H   H20       1.0  0.8878662066633113  0.3684329444648499  0.02346516979913099  1.0000
  H   H21       1.0  0.27493225103363983  0.4509407414426506  0.9866813980730738  1.0000
  H   H22       1.0  0.7251012971566199  0.5490556686740434  0.013314673183266705  1.0000
  H   H23       1.0  0.4560014511896569  0.44348998212850443  0.10064419310260318  1.0000
  H   H24       1.0  0.5440328517870868  0.5565084571115549  0.8993520041594605  1.0000
  H   H25       1.0  0.3456605740042492  0.9380964878189318  0.19158303120540404  1.0000
  H   H26       1.0  0.6543626182238071  0.061900599731686226  0.808403086600428  1.0000
  H   H27       1.0  0.45177031807698853  0.8456841339483104  0.24808219126331463  1.0000
  H   H28       1.0  0.548254325499343  0.15431677906493496  0.7519085513347006  1.0000
  H   H29       1.0  0.2092297093390628  0.8149583619152455  0.24327177212455092  1.0000
  H   H30       1.0  0.7907955048779273  0.18504056096194432  0.7567177656092878  1.0000
  H   H31       1.0  0.9883581678680147  0.8149645852040381  0.11720514383746654  1.0000
  H   H32       1.0  0.011669248852655339  0.1850260570507914  0.8827855870131669  1.0000
  H   H33       1.0  0.041351667209198674  0.8317379990287251  0.0236672498969384  1.0000
  H   H34       1.0  0.9586699226542523  0.168247598945797  0.9763236695267633  1.0000
  H   H35       1.0  0.1847473788879058  0.9381038838210929  0.0952062347121796  1.0000
  H   H36       1.0  0.8152789129311202  0.06188374384669973  0.9047837605322752  1.0000
  H   H37       1.0  0.07633026204969451  0.9988842032521039  0.22004412242066704  1.0000
  H   H38       1.0  0.9236782849769797  0.0011121935558620149  0.7799587822063783  1.0000
  H   H39       1.0  0.8102830604998986  0.8279182119685942  0.25685566129556736  1.0000
  H   H40       1.0  0.18973653140253083  0.17206892978246202  0.7431451942170212  1.0000
  H   H41       1.0  0.639631315723591  0.8780164250983237  0.36614498446098037  1.0000
  H   H42       1.0  0.36037665703133837  0.12196782663734503  0.6338555673491368  1.0000
  H   H43       1.0  0.7438472777764816  0.10632938617711574  0.436661892126942  1.0000
  H   H44       1.0  0.25614448122318134  0.8936574353752679  0.5633331333354474  1.0000
  H   H45       1.0  0.2662239030849207  0.32222632153400355  0.3256863281678689  1.0000
  H   H46       1.0  0.7337658302788058  0.6777727708021433  0.6743093816452087  1.0000
  H   H47       1.0  0.6851083426887643  0.15656865665813063  0.09174535169908178  1.0000
  H   H48       1.0  0.3148976098848167  0.8434349480144833  0.9082573900034911  1.0000
  H   H49       1.0  0.7732162611531949  0.1947280408429535  0.22633411965047398  1.0000
  H   H50       1.0  0.22678445339109038  0.8052827228176725  0.7736700702469148  1.0000
  H   H51       1.0  0.5471236884782584  0.23430663024178244  0.3154165794838305  1.0000
  H   H52       1.0  0.45287179168372665  0.765697186296521  0.6845849543296791  1.0000
  H   H53       1.0  0.037496280496228  0.26364071059933997  0.17121264182632953  1.0000
  H   H54       1.0  0.9624992469812811  0.7363491744167164  0.8287815081229366  1.0000
  H   H55       1.0  0.004507162502832811  0.10878208005082973  0.11552263738197865  1.0000
  H   H56       1.0  0.9954978820742827  0.8912085395758855  0.8844744089152525  1.0000
  H   H57       1.0  0.10787178277314521  0.2647004106614972  0.07934579909682067  1.0000
  H   H58       1.0  0.8921381424507828  0.7352891757647201  0.9206501483493026  1.0000
  H   H59       1.0  0.4710118928438122  0.12408206046181652  0.993230430045919  1.0000
  H   H60       1.0  0.5289942456991029  0.8759185104150479  0.006771590387202802  1.0000
  H   H61       1.0  0.35940553707485634  0.25533934109603956  0.0021941090014507966  1.0000
  H   H62       1.0  0.640596063647543  0.7446560789977569  0.9978097541342376  1.0000
  H   H63       1.0  0.23401217104078853  0.08603308175756301  0.009176431930995897  1.0000
  H   H64       1.0  0.7659960549938422  0.9139695863280015  0.9908240890518196  1.0000
  C   C1        1.0  0.58454861116374  0.5765711629706091  0.3705505364196212  1.0000
  C   C2        1.0  0.4154161665125145  0.4234492789084143  0.6294543369990889  1.0000
  C   C3        1.0  0.7030057886059637  0.562347949012903  0.3090567258193814  1.0000
  C   C4        1.0  0.29698362595936356  0.4376607064099006  0.6909515961591237  1.0000
  C   C5        1.0  0.6530666684337164  0.5791357284567128  0.23472281026973005  1.0000
  C   C6        1.0  0.34693157577101635  0.4208648412803413  0.7652813105333391  1.0000
  C   C7        1.0  0.7717566875989448  0.5592859819579631  0.179349717497601  1.0000
  C   C8        1.0  0.22824654861756954  0.4407172828578825  0.8206601013001771  1.0000
  C   C9        1.0  0.9333565682564144  0.5260085807102755  0.19627700325807493  1.0000
  C   C10       1.0  0.06665461724612241  0.47401936900405434  0.8037474946167433  1.0000
  C   C11       1.0  0.9855955573386127  0.5137337316730708  0.2693263283417905  1.0000
  C   C12       1.0  0.014394821994542943  0.4863055394991492  0.7307024163496931  1.0000
  C   C13       1.0  0.8692975652279031  0.5312118220341091  0.3244295046242769  1.0000
  C   C14       1.0  0.1306853226415825  0.4688144437436962  0.6755956593685537  1.0000
  C   C15       1.0  0.40742003637099344  0.6261514829244278  0.15340517092906938  1.0000
  C   C16       1.0  0.592588256989913  0.373844393988094  0.8465883785360828  1.0000
  C   C17       1.0  0.3181523460783779  0.7310677826896922  0.14805505989713194  1.0000
  C   C18       1.0  0.6818651670478458  0.268928134349956  0.8519353103396197  1.0000
  C   C19       1.0  0.20950443095997437  0.7313443172017885  0.08401649743007057  1.0000
  C   C20       1.0  0.7905084111465258  0.268642633481477  0.9159705584562157  1.0000
  C   C21       1.0  0.1965929663666302  0.6313562540426149  0.0259025049711212  1.0000
  C   C22       1.0  0.8034253801676103  0.3686311687992758  0.9740934168264128  1.0000
  C   C23       1.0  0.28809598764321726  0.5300908171928854  0.03141179874106109  1.0000
  C   C24       1.0  0.7119184190000284  0.46989663417711125  0.968584626643867  1.0000
  C   C25       1.0  0.3924079579361647  0.5264248267614279  0.09476276405583658  1.0000
  C   C26       1.0  0.6076209028546914  0.47356961185801794  0.9052331381845702  1.0000
  C   C27       1.0  0.332395484412615  0.8372127723600687  0.21096867228532545  1.0000
  C   C28       1.0  0.667625782635291  0.1627861499472162  0.7890219156334835  1.0000
  C   C29       1.0  0.10096164308960451  0.8346673461675921  0.07943472341536756  1.0000
  C   C30       1.0  0.8990637225297818  0.16532134436860701  0.9205547738976203  1.0000
  C   C31       1.0  0.026242987491549675  0.3088937357600514  0.4179781501101372  1.0000
  C   C32       1.0  0.9737205211746628  0.6911057116522487  0.5820178195658341  1.0000
  C   C33       1.0  0.9691483759875369  0.17964402921483472  0.3700349581672383  1.0000
  C   C34       1.0  0.030827829428211818  0.820347013003456  0.6299617727218203  1.0000
  C   C35       1.0  0.06567139509836302  0.1509788737976976  0.3070890430611114  1.0000
  C   C36       1.0  0.9343248580532802  0.8490129239496654  0.6929074192842462  1.0000
  C   C37       1.0  0.0027668580725404  0.022475471250125202  0.26736578908140257  1.0000
  C   C38       1.0  0.9972348427195855  0.9775274092710334  0.7326324738273795  1.0000
  C   C39       1.0  0.852834662851649  0.9263916092932264  0.2885130424574881  1.0000
  C   C40       1.0  0.14716960328122042  0.07360394697123955  0.7114875697661274  1.0000
  C   C41       1.0  0.7568566218882113  0.9543229366624151  0.3497407860244904  1.0000
  C   C42       1.0  0.24314892054869125  0.045665401848104616  0.6502605213844673  1.0000
  C   C43       1.0  0.8155170220628137  0.08062184775805294  0.3889939257450975  1.0000
  C   C44       1.0  0.18446761194132935  0.9193670599739222  0.6110022328977889  1.0000
  C   C45       1.0  0.33549930967652847  0.2197928729914054  0.2316362318051047  1.0000
  C   C46       1.0  0.664497681881933  0.7802079487384719  0.7683635018805075  1.0000
  C   C47       1.0  0.2841875204676114  0.20065465418943518  0.15577033077089195  1.0000
  C   C48       1.0  0.7158101858558156  0.7993339159653916  0.8442287042272907  1.0000
  C   C49       1.0  0.4127448954135176  0.17674534248331508  0.10521830285722437  1.0000
  C   C50       1.0  0.5872544773398614  0.8232441357304406  0.8947824492733357  1.0000
  C   C51       1.0  0.587155298506545  0.1742900220434649  0.13137251259154675  1.0000
  C   C52       1.0  0.4128497151347261  0.8257075342463551  0.8686287722353965  1.0000
  C   C53       1.0  0.6372183495827457  0.19618649650426076  0.20638706842440505  1.0000
  C   C54       1.0  0.36278894479765716  0.803810152296528  0.7936114490851833  1.0000
  C   C55       1.0  0.511662181494529  0.218859826699159  0.2564726577578965  1.0000
  C   C56       1.0  0.4883364764938777  0.7811419030896474  0.7435287930600862  1.0000
  C   C57       1.0  0.09902086452737542  0.20986247674414935  0.12913224095890288  1.0000
  C   C58       1.0  0.9009828837349406  0.7901282202872938  0.8708636978064133  1.0000
  C   C59       1.0  0.36652690859400394  0.15882261002182224  0.023511998732971093  1.0000
  C   C60       1.0  0.6334760685021551  0.8411730527453898  0.976486959361146  1.0000
  N   N1        1.0  0.4971087406472562  0.619008691900838  0.22052769661777197  1.0000
  N   N2        1.0  0.502877517941819  0.3809738962468217  0.7794714066036759  1.0000
  N   N3        1.0  0.21412636766511642  0.2458938381266692  0.2853358860924685  1.0000
  N   N4        1.0  0.7858650102943018  0.7541060749743667  0.7146631806457575  1.0000
  O   O1        1.0  0.4308248956296268  0.23339013529590602  0.45462156688070354  1.0000
  O   O2        1.0  0.5691449868767009  0.7666193320217902  0.545376701290152  1.0000
  O   O3        1.0  0.7675423894469517  0.20780746237355172  0.5849242715811511  1.0000
  O   O4        1.0  0.23246985289063102  0.7922096033723919  0.415073837519479  1.0000
  O   O5        1.0  0.6084717376551866  0.5292843921007063  0.4319765129366003  1.0000
  O   O6        1.0  0.39148661521843314  0.47075406750551707  0.5680375501301639  1.0000
  O   O7        1.0  0.45535821095155177  0.636007674727118  0.36221041910244617  1.0000
  O   O8        1.0  0.5445984223677556  0.3639981400063236  0.6377830952456092  1.0000
  O   O9        1.0  0.9142630193646043  0.34378758576571766  0.4602433628768451  1.0000
  O   O10       1.0  0.085679839619047  0.6562096880524423  0.5397412707877008  1.0000
  O   O11       1.0  0.19278544190872537  0.38203980245934593  0.4159695844989527  1.0000
  O   O12       1.0  0.8071819102098559  0.6179662912058321  0.5840350394976566  1.0000
