data_image0
_chemical_formula_structural       Zr6H19C50Br10ClO32
_chemical_formula_sum              "Zr6 H19 C50 Br10 Cl1 O32"
_cell_length_a       14.783214469169472
_cell_length_b       14.80335236399799
_cell_length_c       14.838269751130294
_cell_angle_alpha    60.07166339441562
_cell_angle_beta     59.945987553459574
_cell_angle_gamma    60.18625068108455

_space_group_name_H-M_alt    "P 1"
_space_group_IT_number       1

loop_
  _space_group_symop_operation_xyz
  'x, y, z'

loop_
  _atom_site_type_symbol
  _atom_site_label
  _atom_site_symmetry_multiplicity
  _atom_site_fract_x
  _atom_site_fract_y
  _atom_site_fract_z
  _atom_site_occupancy
  Zr  Zr1       1.0  0.8767417876754496  0.8856397507731015  0.6140757128906104  1.0000
  Zr  Zr2       1.0  0.12305274152581099  0.1166051959460717  0.38309172178995243  1.0000
  Zr  Zr3       1.0  0.11552133721526323  0.878337299698451  0.621275059387642  1.0000
  Zr  Zr4       1.0  0.8844219806786809  0.12455611826494115  0.3752713704837658  1.0000
  Zr  Zr5       1.0  0.11880377709739072  0.8819261023073323  0.3794580780911971  1.0000
  Zr  Zr6       1.0  0.8804950796993297  0.12027993497789422  0.6180012655856685  1.0000
  H   H1        1.0  0.08745598563368889  0.7196399498601098  0.5925553858854401  1.0000
  H   H2        1.0  0.09995096012890772  0.0952656591072341  0.21696179200810656  1.0000
  H   H3        1.0  0.09400284295888645  0.08925369859140642  0.5983847800255971  1.0000
  H   H4        1.0  0.7174001552558168  0.10101633050116723  0.5873617133501056  1.0000
  H   H5        1.0  0.1524797812120371  0.5768931471086418  0.38589631861170653  1.0000
  H   H6        1.0  0.8404953815869335  0.4311438709335745  0.6062060312571019  1.0000
  H   H7        1.0  0.6255288052904646  0.10325083185302475  0.9328502179305783  1.0000
  H   H8        1.0  0.38812610806713405  0.8830085422625658  0.07848761048011016  1.0000
  H   H9        1.0  0.8581080735699588  0.13306531372480623  0.09765928511583873  1.0000
  H   H10       1.0  0.130779819385289  0.8574670395127344  0.9110413214289819  1.0000
  H   H11       1.0  0.599921511947514  0.4128795471589227  0.3555048742933806  1.0000
  H   H12       1.0  0.41103739987701005  0.600693957063875  0.6299448687102113  1.0000
  H   H13       1.0  0.1345438787926412  0.599893774197277  0.911616657480941  1.0000
  H   H14       1.0  0.7369421856565382  0.6182623259440588  0.9719886179067669  1.0000
  H   H15       1.0  0.8244213306910739  0.5335953662604495  0.8868410053097192  1.0000
  H   H16       1.0  0.8362149617946742  0.3638750411703099  0.05619771611331724  1.0000
  H   H17       1.0  0.7486508257814396  0.4486069752324083  0.14158500282097472  1.0000
  H   H18       1.0  0.6048915426385195  0.8643230299363721  0.6258060018294667  1.0000
  H   H19       1.0  0.4036285101341692  0.12920416130855014  0.36308047218243183  1.0000
  C   C1        1.0  0.986705181406123  0.7063264796366724  0.49479312520391955  1.0000
  C   C2        1.0  0.3127020618080042  0.9954024239500396  0.2053657593185037  1.0000
  C   C3        1.0  0.006500252245295742  0.3015863657196292  0.49753141870692724  1.0000
  C   C4        1.0  0.695587848639896  0.9976028998684113  0.801066565052359  1.0000
  C   C5        1.0  0.9893718990665478  0.7026908284059061  0.8048151016408981  1.0000
  C   C6        1.0  0.7007805734833  0.009684414578714577  0.48267267775938183  1.0000
  C   C7        1.0  0.002942453350144215  0.3074948418184036  0.19994764943501755  1.0000
  C   C8        1.0  0.30680276144468643  0.9850394403144022  0.5069768031202811  1.0000
  C   C9        1.0  0.30295295276110323  0.6978639680497878  0.49395309110668956  1.0000
  C   C10       1.0  0.9875172375469181  0.9970885320163348  0.8098989313405909  1.0000
  C   C11       1.0  0.705373211625279  0.3127763230302776  0.4942958880526332  1.0000
  C   C12       1.0  0.0043018670517014366  0.9965058651555766  0.19550841075156464  1.0000
  C   C13       1.0  0.007321594685798566  0.4037616759559057  0.4948827004988984  1.0000
  C   C14       1.0  0.9858427702450502  0.6039893998975998  0.49773753062164167  1.0000
  C   C15       1.0  0.09678229844118393  0.44491165967900775  0.433148644616736  1.0000
  C   C16       1.0  0.897389239966017  0.5613099819412428  0.5616443149024873  1.0000
  C   C17       1.0  0.08420166334052227  0.543981009150052  0.434255989717691  1.0000
  C   C18       1.0  0.9090392600446505  0.46365801948520863  0.55843850019275  1.0000
  C   C19       1.0  0.41519584584739283  0.9955500760476781  0.10512007643047397  1.0000
  C   C20       1.0  0.5973785839494713  0.9921617063090551  0.9052010154590275  1.0000
  C   C21       1.0  0.48350825463479896  0.058022969242088586  0.06340824858448713  1.0000
  C   C22       1.0  0.5296233503158663  0.9289417488507115  0.947408262396017  1.0000
  C   C23       1.0  0.5724447990149955  0.05525644910467515  0.9654159239154722  1.0000
  C   C24       1.0  0.4411143824326303  0.9311495626200638  0.04573065052566274  1.0000
  C   C25       1.0  0.9855557867401363  0.9999763067111543  0.910722231681781  1.0000
  C   C26       1.0  0.003960032960307674  0.9912742680719474  0.09718075344764542  1.0000
  C   C27       1.0  0.9079099959228217  0.07896626135187307  0.9642385902316447  1.0000
  C   C28       1.0  0.08170173348613474  0.9123529449265889  0.043645794365851004  1.0000
  C   C29       1.0  0.9181241134376563  0.07294054707705303  0.05550990115906267  1.0000
  C   C30       1.0  0.07094204939584628  0.9178607888574107  0.95289823439429  1.0000
  C   C31       1.0  0.40722040234930995  0.5998137027373643  0.4884961293887356  1.0000
  C   C32       1.0  0.6037938837157384  0.4137234571651265  0.4969396062229592  1.0000
  C   C33       1.0  0.4620048542129498  0.5461509997319993  0.40965696402090396  1.0000
  C   C34       1.0  0.5493188719202425  0.4677669926594277  0.5753909500415374  1.0000
  C   C35       1.0  0.5579236808091252  0.45535060960657586  0.41530425481768407  1.0000
  C   C36       1.0  0.4533879936519941  0.5586132727127334  0.5697569834693823  1.0000
  C   C37       1.0  0.9897202755211012  0.6038267500537555  0.9062331973216827  1.0000
  C   C38       1.0  0.0019027638076495003  0.40884684517380515  0.10074426580904126  1.0000
  C   C39       1.0  0.9130551501716795  0.5489966817318078  0.9601013242014033  1.0000
  C   C40       1.0  0.07984589456650333  0.46548251219932274  0.04515264148994901  1.0000
  C   C41       1.0  0.9198835731006839  0.45506462311185186  0.053830250442004485  1.0000
  C   C42       1.0  0.07292295660714414  0.5596111670574757  0.9514606226887847  1.0000
  C   C43       1.0  0.8119968463824989  0.5467991044352158  0.9594362397476456  1.0000
  C   C44       1.0  0.8193148990980604  0.44038504694241  0.06567770667593457  1.0000
  C   C45       1.0  0.4089456250537043  0.9851669975457042  0.505546613951246  1.0000
  C   C46       1.0  0.5999992189461665  0.00810871925141041  0.4828490745876123  1.0000
  C   C47       1.0  0.46648002904942865  0.909425551052223  0.5809635209663851  1.0000
  C   C48       1.0  0.5422095204935857  0.08407924229267391  0.4077134857185313  1.0000
  C   C49       1.0  0.5596960218868718  0.922105581904553  0.5682692938949643  1.0000
  C   C50       1.0  0.4491473677116603  0.07126168210449188  0.4202907169686582  1.0000
  Br  Br1       1.0  0.24069748403017852  0.37186830556125033  0.3504271069390299  1.0000
  Br  Br2       1.0  0.7567417725077661  0.6281197890693807  0.6537948775572104  1.0000
  Br  Br3       1.0  0.46743703510778545  0.14677597120828517  0.1323527658534687  1.0000
  Br  Br4       1.0  0.544719417840227  0.8414982285296801  0.8773012875272882  1.0000
  Br  Br5       1.0  0.7857306365009366  0.19838326960903171  0.9222179837349171  1.0000
  Br  Br6       1.0  0.20569375525340666  0.7949823433334656  0.08374360889595774  1.0000
  Br  Br7       1.0  0.41571632439160316  0.5863235604025403  0.2919076300854827  1.0000
  Br  Br8       1.0  0.5955595160739336  0.4273676044146981  0.6931334588525286  1.0000
  Br  Br9       1.0  0.4270421746912165  0.7872332820387555  0.7035445793506907  1.0000
  Br  Br10      1.0  0.5802112674429409  0.20775174611537744  0.2864946785166039  1.0000
  Cl  Cl1       1.0  0.18898173385201747  0.4233711508385695  0.08697283506096906  1.0000
  O   O1        1.0  0.9117786580726633  0.7462711589230578  0.5712806651240855  1.0000
  O   O2        1.0  0.2705654506748303  0.07302515779456802  0.24391548099438143  1.0000
  O   O3        1.0  0.08311874547839446  0.25983218610515735  0.422912226182653  1.0000
  O   O4        1.0  0.7350094023595019  0.9239019665653742  0.7582142788136251  1.0000
  O   O5        1.0  0.06806424073866439  0.7409527553657895  0.7638876546865631  1.0000
  O   O6        1.0  0.7408511027594289  0.08647813625635337  0.40832485364076365  1.0000
  O   O7        1.0  0.9263042264510659  0.26803032601649324  0.23556223593422487  1.0000
  O   O8        1.0  0.26421198938666657  0.9107207749858829  0.5837594330255269  1.0000
  O   O9        1.0  0.26029574439468234  0.7374676465466835  0.4201703857012972  1.0000
  O   O10       1.0  0.9134752346364367  0.07348406254148204  0.7674171975858142  1.0000
  O   O11       1.0  0.7449455613518835  0.26977410675495866  0.5711824408508618  1.0000
  O   O12       1.0  0.08068849110043173  0.922319107315225  0.23563108695701365  1.0000
  O   O13       1.0  0.06481219040834678  0.9196363419798247  0.7724088236533146  1.0000
  O   O14       1.0  0.7434403887939569  0.2756706269097294  0.41642815296815183  1.0000
  O   O15       1.0  0.9286144128299938  0.07554839359139003  0.23138352209011243  1.0000
  O   O16       1.0  0.2638440044160294  0.7340354923055942  0.5727309921465249  1.0000
  O   O17       1.0  0.9136238461610949  0.7410611626357518  0.7649502532523795  1.0000
  O   O18       1.0  0.2687152705051404  0.06234634348714967  0.4301656609681855  1.0000
  O   O19       1.0  0.07740890134531511  0.26543943226862865  0.24229029678756578  1.0000
  O   O20       1.0  0.738348135538736  0.9328586335847858  0.5600229430588397  1.0000
  O   O21       1.0  0.7328837692016706  0.07562900614718868  0.7629797850392916  1.0000
  O   O22       1.0  0.0647388592949129  0.7438167479855335  0.41805931581480854  1.0000
  O   O23       1.0  0.2727362368497808  0.9197070242472734  0.24221802303189574  1.0000
  O   O24       1.0  0.92817931674432  0.26429556173449936  0.5741932714190977  1.0000
  O   O25       1.0  0.7976367218592628  0.0734159573160297  0.561298033577728  1.0000
  O   O26       1.0  0.06718526004523549  0.06355104739579795  0.5707039482636984  1.0000
  O   O27       1.0  0.0717044483389273  0.06800467652519869  0.29696774974316736  1.0000
  O   O28       1.0  0.06235917653303621  0.7996497735050168  0.5655528836477615  1.0000
  O   O29       1.0  0.14826660263278094  0.9483316083606252  0.4523597317044191  1.0000
  O   O30       1.0  0.9501236556229389  0.9553104576065368  0.44582136373878006  1.0000
  O   O31       1.0  0.9535406899649247  0.1490403092772469  0.449534306837059  1.0000
  O   O32       1.0  0.9471123246495737  0.9518119531761615  0.6468405037984795  1.0000
