data_image0
_chemical_formula_structural       Zn8H12C48S12O26
_chemical_formula_sum              "Zn8 H12 C48 S12 O26"
_cell_length_a       20.824558590472936
_cell_length_b       20.826255994652552
_cell_length_c       20.81219658884778
_cell_angle_alpha    60.01727647737833
_cell_angle_beta     60.01866298042706
_cell_angle_gamma    60.04135101885209

_space_group_name_H-M_alt    "P 1"
_space_group_IT_number       1

loop_
  _space_group_symop_operation_xyz
  'x, y, z'

loop_
  _atom_site_type_symbol
  _atom_site_label
  _atom_site_symmetry_multiplicity
  _atom_site_fract_x
  _atom_site_fract_y
  _atom_site_fract_z
  _atom_site_occupancy
  Zn  Zn1       1.0  0.7891468400844419  0.6344245432936473  0.788213337187436  1.0000
  Zn  Zn2       1.0  0.7888993919099151  0.7889085063187053  0.7879999591001762  1.0000
  Zn  Zn3       1.0  0.634411441441749  0.7881414999482175  0.7892246052624187  1.0000
  Zn  Zn4       1.0  0.7879283637188413  0.7889000847985842  0.6341861475549848  1.0000
  Zn  Zn5       1.0  0.2108548241584175  0.36557333291724337  0.2117877447868821  1.0000
  Zn  Zn6       1.0  0.21109912960623947  0.21109198602314896  0.21199753024216517  1.0000
  Zn  Zn7       1.0  0.3655879045283187  0.21185885685073905  0.21077572575060796  1.0000
  Zn  Zn8       1.0  0.2120713407098976  0.2111006304811197  0.3658128778364542  1.0000
  H   H1        1.0  0.9390813084782368  0.9392561586459748  0.45803825321566183  1.0000
  H   H2        1.0  0.6635463474887405  0.45813876279495935  0.9391372795276566  1.0000
  H   H3        1.0  0.4578117323059847  0.9392625946725273  0.6636674210312988  1.0000
  H   H4        1.0  0.9391312598657322  0.6634987743620328  0.9389959921346503  1.0000
  H   H5        1.0  0.9389645279240785  0.6634970047857249  0.45836586571259375  1.0000
  H   H6        1.0  0.6635076163770611  0.9391654265993238  0.9389580799321349  1.0000
  H   H7        1.0  0.06091958544635644  0.060743826444301874  0.5419626666264179  1.0000
  H   H8        1.0  0.33645272122454645  0.5418613167582008  0.06086360615886113  1.0000
  H   H9        1.0  0.5421878909208646  0.0607380393722323  0.3363323553082296  1.0000
  H   H10       1.0  0.060868478214104016  0.3365019744586348  0.06100473142755192  1.0000
  H   H11       1.0  0.061035291357647785  0.3365038252698866  0.5416341069015259  1.0000
  H   H12       1.0  0.3364926893828725  0.06083397045838979  0.06104225108617099  1.0000
  C   C1        1.0  0.9514703953377508  0.9515708977677303  0.49491398467863945  1.0000
  C   C2        1.0  0.602024997722069  0.49502726137126957  0.9514667050685403  1.0000
  C   C3        1.0  0.4947833177001899  0.9515535890078791  0.6021268190022936  1.0000
  C   C4        1.0  0.951505810403184  0.6019362280858189  0.9514018066907183  1.0000
  C   C5        1.0  0.9514068546713691  0.6019354626052189  0.4951499118436827  1.0000
  C   C6        1.0  0.6019418958713846  0.9515164137891502  0.9513894292401304  1.0000
  C   C7        1.0  0.628968725346816  0.6255629755976101  0.8729379020805439  1.0000
  C   C8        1.0  0.5783651443849964  0.5763541988770766  0.9226882287954224  1.0000
  C   C9        1.0  0.8726506902149471  0.8730429354509821  0.6254215879508747  1.0000
  C   C10       1.0  0.9226661349600961  0.9227538387668089  0.5762857048806396  1.0000
  C   C11       1.0  0.6252681133095381  0.8727796208665524  0.6291555708621955  1.0000
  C   C12       1.0  0.5760990228625008  0.9226892280174251  0.5785476077801803  1.0000
  C   C13       1.0  0.8732046834114375  0.6286789942973455  0.8723759195879522  1.0000
  C   C14       1.0  0.9227836544834178  0.5781226115258844  0.9225565076977632  1.0000
  C   C15       1.0  0.872789000650791  0.6286730100489347  0.6257381638200028  1.0000
  C   C16       1.0  0.9226907308098194  0.5781182050359986  0.5765345347038177  1.0000
  C   C17       1.0  0.6286781934293872  0.8727854742344832  0.8728046943946451  1.0000
  C   C18       1.0  0.5781182337733742  0.9226792371606933  0.922669513765406  1.0000
  C   C19       1.0  0.46356148195754815  0.5310401197434729  0.002719344817720063  1.0000
  C   C20       1.0  0.9973018588570074  0.9973398775739848  0.4688969643285289  1.0000
  C   C21       1.0  0.5311094456033771  0.002661504734284364  0.4635693170106662  1.0000
  C   C22       1.0  0.0027156971055646278  0.46353010126858146  0.002716439555761909  1.0000
  C   C23       1.0  0.002751546763818316  0.4635285882734124  0.5310390241388276  1.0000
  C   C24       1.0  0.4635252544002172  0.0026863904525527478  0.0027517784680525783  1.0000
  C   C25       1.0  0.04852961999886679  0.048430128298740265  0.5050861842100645  1.0000
  C   C26       1.0  0.3979748281429354  0.5049726155570652  0.048533625947122384  1.0000
  C   C27       1.0  0.5052163121099298  0.04844609190960372  0.3978733157387778  1.0000
  C   C28       1.0  0.048493332928721725  0.3980648858295622  0.048597969646166875  1.0000
  C   C29       1.0  0.048593444505293376  0.39806488757977126  0.5048500607730728  1.0000
  C   C30       1.0  0.39805840330528514  0.04848393639583998  0.048610543376625556  1.0000
  C   C31       1.0  0.3710325467862675  0.3744345085915767  0.12706278734459184  1.0000
  C   C32       1.0  0.4216359185266613  0.4236449955558043  0.07731154755202846  1.0000
  C   C33       1.0  0.12734988621849658  0.12695769197981113  0.3745778299923828  1.0000
  C   C34       1.0  0.0773351174231678  0.07724650480420792  0.4237139093398525  1.0000
  C   C35       1.0  0.3747307527655864  0.12722121580303267  0.3708447601481879  1.0000
  C   C36       1.0  0.4239003165242894  0.07731208190881488  0.4214523648312963  1.0000
  C   C37       1.0  0.12679693327903863  0.37131595544978774  0.12762284124947595  1.0000
  C   C38       1.0  0.07721528621033262  0.42187925950592126  0.07744271396298062  1.0000
  C   C39       1.0  0.12720939211267537  0.37132735336399486  0.3742625255892804  1.0000
  C   C40       1.0  0.07730900727001712  0.4218825437846689  0.4234661888583915  1.0000
  C   C41       1.0  0.371321625852339  0.12721535582112864  0.12719527821946744  1.0000
  C   C42       1.0  0.42188151088973314  0.07732055853269769  0.0773315681983462  1.0000
  C   C43       1.0  0.53643862116423  0.46896003443066525  0.9972804315244445  1.0000
  C   C44       1.0  0.0026995083792514278  0.0026605807729396316  0.5311035971146438  1.0000
  C   C45       1.0  0.46889026540863205  0.9973382574181429  0.536430066782316  1.0000
  C   C46       1.0  0.9972818507210166  0.5364713366615063  0.9972851970709229  1.0000
  C   C47       1.0  0.9972481913160184  0.5364721605472551  0.46896169942338145  1.0000
  C   C48       1.0  0.5364747741029423  0.9973127293593577  0.9972491072237515  1.0000
  S   S1        1.0  0.47677115006903426  0.6213557400465173  0.9510184482741834  1.0000
  S   S2        1.0  0.9509725621567005  0.9509127575418429  0.621449034549123  1.0000
  S   S3        1.0  0.6213261572173472  0.950891364283201  0.4769088911991587  1.0000
  S   S4        1.0  0.9510565877658625  0.4765233328286413  0.9509400770414942  1.0000
  S   S5        1.0  0.9511174832772442  0.4765162301527821  0.6214851209485417  1.0000
  S   S6        1.0  0.47651011750475925  0.9509028326530636  0.9511081002678028  1.0000
  S   S7        1.0  0.5232296290025645  0.37864413026784394  0.04898152434521553  1.0000
  S   S8        1.0  0.049027933074853536  0.04908778865399908  0.3785511343422243  1.0000
  S   S9        1.0  0.3786736686476574  0.049108512645133814  0.523091439816504  1.0000
  S   S10       1.0  0.04894226514272066  0.5234794100955041  0.049059537165788834  1.0000
  S   S11       1.0  0.04888217360069558  0.5234844374329412  0.37851635356175706  1.0000
  S   S12       1.0  0.5234899109984  0.04909628715884651  0.048892785424001814  1.0000
  O   O1        1.0  0.7501047395758961  0.7501081262145559  0.7498944879551316  1.0000
  O   O2        1.0  0.7031949785839233  0.590051525475559  0.853386313409679  1.0000
  O   O3        1.0  0.853397261998076  0.8533869039861129  0.6999049382971092  1.0000
  O   O4        1.0  0.5934980212851007  0.7000035889654511  0.853791684922804  1.0000
  O   O5        1.0  0.8529898506885872  0.8540919055538293  0.5897785960623666  1.0000
  O   O6        1.0  0.5897880367655478  0.8533649526522068  0.7034465770151499  1.0000
  O   O7        1.0  0.8540829110182458  0.7028805739965165  0.8529825719287345  1.0000
  O   O8        1.0  0.6996911390426777  0.8533717610165751  0.5935229403487624  1.0000
  O   O9        1.0  0.8538018611616425  0.5932652821158867  0.8526970805442602  1.0000
  O   O10       1.0  0.8529681675717031  0.7028733801290982  0.5900505238735504  1.0000
  O   O11       1.0  0.702879160172657  0.8540749562581026  0.8530016910077762  1.0000
  O   O12       1.0  0.8537859136855774  0.5932606523032289  0.7002338378637702  1.0000
  O   O13       1.0  0.5932664611108581  0.8526809759239952  0.8538237105400835  1.0000
  O   O14       1.0  0.24989506580455167  0.2498898109182618  0.25010486169286134  1.0000
  O   O15       1.0  0.29681009979229617  0.4099468853850182  0.14661258402885116  1.0000
  O   O16       1.0  0.14660443004576262  0.14661387930059527  0.3000926193537126  1.0000
  O   O17       1.0  0.40650374390946825  0.2999915090985537  0.14620972130806817  1.0000
  O   O18       1.0  0.14701006954484805  0.1459061463548962  0.4102217008083073  1.0000
  O   O19       1.0  0.4102107210398601  0.14663481611419363  0.296553165174103  1.0000
  O   O20       1.0  0.1459206728043584  0.2971153827318743  0.1470185100561565  1.0000
  O   O21       1.0  0.3003082339952102  0.14662958245062896  0.40647873043347715  1.0000
  O   O22       1.0  0.14619527480377315  0.4067357444045498  0.14729831807285618  1.0000
  O   O23       1.0  0.14703019154066524  0.29712694974286785  0.40994846736496976  1.0000
  O   O24       1.0  0.29711957129966765  0.14592862501740458  0.14699661757528296  1.0000
  O   O25       1.0  0.14621306724254177  0.406740299142264  0.2997674403692868  1.0000
  O   O26       1.0  0.4067346018007998  0.1473182185088859  0.14617606580736012  1.0000
