data_image0
_chemical_formula_structural       Ca2H24C8O19
_chemical_formula_sum              "Ca2 H24 C8 O19"
_cell_length_a       6.2744032758518
_cell_length_b       8.011874847077317
_cell_length_c       10.23315714435576
_cell_angle_alpha    96.58726318182515
_cell_angle_beta     105.48882726509778
_cell_angle_gamma    106.5882440621405

_space_group_name_H-M_alt    "P 1"
_space_group_IT_number       1

loop_
  _space_group_symop_operation_xyz
  'x, y, z'

loop_
  _atom_site_type_symbol
  _atom_site_label
  _atom_site_symmetry_multiplicity
  _atom_site_fract_x
  _atom_site_fract_y
  _atom_site_fract_z
  _atom_site_occupancy
  Ca  Ca1       1.0  0.3209456421536884  0.7059924691789519  0.7764695551804762  1.0000
  Ca  Ca2       1.0  0.6757710068720398  0.29337244070822527  0.2229978426450501  1.0000
  H   H1        1.0  0.7441630158477182  0.25523135009463266  0.6116347410775161  1.0000
  H   H2        1.0  0.5210983515379225  0.2536773316420593  0.781668151994367  1.0000
  H   H3        1.0  0.8142621118640888  0.526896477628874  0.5589071300205717  1.0000
  H   H4        1.0  0.678230995167894  0.516215158360737  0.9279443300169276  1.0000
  H   H5        1.0  0.7383164490110303  0.0044701550659312  0.7627089994765938  1.0000
  H   H6        1.0  0.6708960828309216  0.8466273438239756  0.6303445475155058  1.0000
  H   H7        1.0  0.6951476147652258  0.9417828381126159  0.04856879037213706  1.0000
  H   H8        1.0  0.6507164036792048  0.7395309182599163  0.04662606749852218  1.0000
  H   H9        1.0  0.0012688762779972252  0.836411633093171  0.5555961317886683  1.0000
  H   H10       1.0  0.24168651505787137  0.9856001459248915  0.5829702896549023  1.0000
  H   H11       1.0  0.9546202242076233  0.8566475578123802  0.8235986569973548  1.0000
  H   H12       1.0  0.08940705620877763  0.8367029204581303  0.970872796382281  1.0000
  H   H13       1.0  0.22516325342614607  0.7538935863486175  0.38087999088950397  1.0000
  H   H14       1.0  0.3477908418382397  0.5123230122947221  0.17890805778953478  1.0000
  H   H15       1.0  0.4455382557033899  0.748414447703162  0.20401071250053346  1.0000
  H   H16       1.0  0.16066924491010326  0.481944725076815  0.43392749152068427  1.0000
  H   H17       1.0  0.2363926640122429  0.004612450352333001  0.22444409237818513  1.0000
  H   H18       1.0  0.3100487734200853  0.16129858405993497  0.3584079955359271  1.0000
  H   H19       1.0  0.3217620101595386  0.30725211056826407  0.9604179319421817  1.0000
  H   H20       1.0  0.28370323939780917  0.10103361570892133  0.9502655845885144  1.0000
  H   H21       1.0  0.983122680279969  0.15978712353255284  0.4358263407385364  1.0000
  H   H22       1.0  0.7426132431219229  0.009538421986164298  0.4085274014715806  1.0000
  H   H23       1.0  0.9025269489711149  0.18141803347950972  0.015653186613249735  1.0000
  H   H24       1.0  0.040037151620659024  0.15851117745004478  0.164778433890497  1.0000
  C   C1        1.0  0.966406478401268  0.3417916999445795  0.8212973550277027  1.0000
  C   C2        1.0  0.7949466228442289  0.37147312790058623  0.696593395826035  1.0000
  C   C3        1.0  0.5722230330328344  0.3716205313120682  0.7366233550333375  1.0000
  C   C4        1.0  0.3727391258562704  0.35151309279510207  0.6065677236159884  1.0000
  C   C5        1.0  0.00012349240898150334  0.6672379780042094  0.17152884256583428  1.0000
  C   C6        1.0  0.17629516569552806  0.6389981021115858  0.29510592927040596  1.0000
  C   C7        1.0  0.3948874510705948  0.6362057857387882  0.2543728872563804  1.0000
  C   C8        1.0  0.59660675690899  0.6512562657541068  0.3801856626416864  1.0000
  O   O1        1.0  0.16729930605035287  0.4560311385598297  0.8790904597346624  1.0000
  O   O2        1.0  0.8900467715322976  0.19741911350472213  0.8608969727616227  1.0000
  O   O3        1.0  0.9004171475710694  0.5306440293411542  0.658099096665019  1.0000
  O   O4        1.0  0.615076814227784  0.5298504236927927  0.8316175521531617  1.0000
  O   O5        1.0  0.30757186037667583  0.4849441328564482  0.5869512014671087  1.0000
  O   O6        1.0  0.28426959206124275  0.19934543439031674  0.5235904542204891  1.0000
  O   O7        1.0  0.6725032356534797  0.8721507277846143  0.7275862306810053  1.0000
  O   O8        1.0  0.5699980216438405  0.8224460601993614  0.014317039491949408  1.0000
  O   O9        1.0  0.17276699020217015  0.8651099298899964  0.5982478614849711  1.0000
  O   O10       1.0  0.11503521749059328  0.8739142485934654  0.8852712357371428  1.0000
  O   O11       1.0  0.7983630030248675  0.5490856443648154  0.11676695755244276  1.0000
  O   O12       1.0  0.06662603526076794  0.8102316358327075  0.12951692529130554  1.0000
  O   O13       1.0  0.07297802928563613  0.4792733955367512  0.3347798678499315  1.0000
  O   O14       1.0  0.6543991809015353  0.5137918687718326  0.3989760430634419  1.0000
  O   O15       1.0  0.699310539588936  0.8027261479029023  0.4640396875846591  1.0000
  O   O16       1.0  0.3097862563415035  0.1367282494027862  0.2610318417299098  1.0000
  O   O17       1.0  0.4000826592308043  0.22205236240453982  0.9940916770914895  1.0000
  O   O18       1.0  0.8115332667888354  0.1303031388741971  0.3925037902331496  1.0000
  O   O19       1.0  0.882495345324223  0.15245231802941117  0.10579761655357338  1.0000
