data_image0
_chemical_formula_structural       Cd2H16C20N16Cl4
_chemical_formula_sum              "Cd2 H16 C20 N16 Cl4"
_cell_length_a       6.9806042879672985
_cell_length_b       8.576759889949608
_cell_length_c       12.050677867288297
_cell_angle_alpha    90.89769532525327
_cell_angle_beta     83.57352108763996
_cell_angle_gamma    83.10046022608458

_space_group_name_H-M_alt    "P 1"
_space_group_IT_number       1

loop_
  _space_group_symop_operation_xyz
  'x, y, z'

loop_
  _atom_site_type_symbol
  _atom_site_label
  _atom_site_symmetry_multiplicity
  _atom_site_fract_x
  _atom_site_fract_y
  _atom_site_fract_z
  _atom_site_occupancy
  Cd  Cd1       1.0  0.24574224844783285  0.9718802821124868  0.05958076100478142  1.0000
  Cd  Cd2       1.0  0.7542617192212902  0.028120164307928516  0.9404197693409844  1.0000
  H   H1        1.0  0.19756549003330545  0.7270687733516398  0.49597114844672785  1.0000
  H   H2        1.0  0.8024338654395107  0.2729329734920398  0.5040320999039453  1.0000
  H   H3        1.0  0.22236337002804157  0.8856773659398841  0.5872744743173188  1.0000
  H   H4        1.0  0.7776370267792811  0.11432783378182171  0.4127270473297245  1.0000
  H   H5        1.0  0.13839393253481092  0.5940459171364908  0.027411280633359108  1.0000
  H   H6        1.0  0.8616102368385297  0.40595332599767897  0.97258841396544  1.0000
  H   H7        1.0  0.10095290601109495  0.35365099820666057  0.14688398719742682  1.0000
  H   H8        1.0  0.8990386369986322  0.6463449264798203  0.853118846934301  1.0000
  H   H9        1.0  0.125766988934906  0.38678455617386487  0.3529320858527783  1.0000
  H   H10       1.0  0.8742318834674236  0.6132207142658289  0.6470711729136411  1.0000
  H   H11       1.0  0.4119642513653972  0.5150698002511619  0.5992602500666637  1.0000
  H   H12       1.0  0.5880302156430233  0.4849387458706999  0.4007349140728708  1.0000
  H   H13       1.0  0.34910927282662385  0.40020029178867833  0.7908208120673595  1.0000
  H   H14       1.0  0.6508774552128429  0.5998118727310031  0.20917555760939177  1.0000
  H   H15       1.0  0.2648402428974634  0.12115616167834992  0.7974623511633897  1.0000
  H   H16       1.0  0.7351603962948017  0.8788478060028666  0.2025375024616381  1.0000
  C   C1        1.0  0.28391267575076984  0.07924300165691989  0.4274292029068435  1.0000
  C   C2        1.0  0.7160972251160374  0.9207562173934322  0.5725710336898687  1.0000
  C   C3        1.0  0.22606103407884598  0.8893547850060912  0.3179354026094714  1.0000
  C   C4        1.0  0.7739424566877061  0.11063862743179702  0.6820651794740656  1.0000
  C   C5        1.0  0.18404140359262303  0.7407401314495135  0.2732468573708218  1.0000
  C   C6        1.0  0.8159653783688583  0.25925190751191013  0.7267485824519471  1.0000
  C   C7        1.0  0.14416454687049193  0.5968528034496785  0.11756883326602015  1.0000
  C   C8        1.0  0.8558255971752046  0.4031452247221736  0.8824265899033822  1.0000
  C   C9        1.0  0.12400109076408229  0.4660059992980905  0.18301256012402695  1.0000
  C   C10       1.0  0.8759920952940233  0.5339876493775789  0.8169926913197332  1.0000
  C   C11       1.0  0.13566412759405463  0.4847887501781473  0.29707314614390173  1.0000
  C   C12       1.0  0.8643275295905397  0.5152165863091155  0.7029304754689322  1.0000
  C   C13       1.0  0.30377278229413207  0.170750571008881  0.5277798735935664  1.0000
  C   C14       1.0  0.6962353551815355  0.8292520698300551  0.47221711688798984  1.0000
  C   C15       1.0  0.3682057912905279  0.39726883925709444  0.6090454483091963  1.0000
  C   C16       1.0  0.6317843855685794  0.6027386582240198  0.3909524268914169  1.0000
  C   C17       1.0  0.3353699756471968  0.334527374008033  0.7147047612741633  1.0000
  C   C18       1.0  0.6646199243141594  0.6654708266892584  0.2852956555455394  1.0000
  C   C19       1.0  0.28864962192635346  0.18106728428210767  0.7188235970852263  1.0000
  C   C20       1.0  0.7113539050523983  0.8189377164951354  0.2811727857729665  1.0000
  N   N1        1.0  0.27771317811658486  0.008379453430706006  0.2550655500510076  1.0000
  N   N2        1.0  0.7222917556935113  0.9916139457976674  0.7449349594632511  1.0000
  N   N3        1.0  0.313335076613498  0.1258999579463875  0.32179086965292225  1.0000
  N   N4        1.0  0.6866752276617445  0.8740968545314729  0.6782076954498635  1.0000
  N   N5        1.0  0.23012169532442073  0.9295260580050452  0.42751728365851  1.0000
  N   N6        1.0  0.7698844815243999  0.0704695908151152  0.572480663405152  1.0000
  N   N7        1.0  0.1673833916734893  0.844233002469629  0.5181270143273978  1.0000
  N   N8        1.0  0.8326169237723846  0.15577225476054932  0.48187617186974324  1.0000
  N   N9        1.0  0.17229076275129526  0.7349124759535499  0.162509117802813  1.0000
  N   N10       1.0  0.8277114476945968  0.265080834676894  0.8374882077498146  1.0000
  N   N11       1.0  0.1667359682851738  0.621653889847785  0.3432316617019995  1.0000
  N   N12       1.0  0.8332631102898984  0.3783385602120717  0.6567741282677632  1.0000
  N   N13       1.0  0.35333969471840726  0.31682212623315564  0.5146132793321885  1.0000
  N   N14       1.0  0.6466629112686133  0.683178275888295  0.4853856590327583  1.0000
  N   N15       1.0  0.2721002810123848  0.09880582171548721  0.6255760228312399  1.0000
  N   N16       1.0  0.7279020808903026  0.9011947529313958  0.374427909184  1.0000
  Cl  Cl1       1.0  0.10928571052609473  0.8712424307950856  0.8837460798859811  1.0000
  Cl  Cl2       1.0  0.8907194595010353  0.12876029397134664  0.11625272028423694  1.0000
  Cl  Cl3       1.0  0.4103856681429077  0.20824745505237272  0.9877368653505986  1.0000
  Cl  Cl4       1.0  0.5896155337818954  0.7917518720092931  0.012264638936862596  1.0000
