data_image0
_chemical_formula_structural       Co9H144C186N6O42
_chemical_formula_sum              "Co9 H144 C186 N6 O42"
_cell_length_a       13.041692679136565
_cell_length_b       25.40199929780962
_cell_length_c       25.402075645228994
_cell_angle_alpha    119.99706260997841
_cell_angle_beta     89.99669290257152
_cell_angle_gamma    90.00326654896264

_space_group_name_H-M_alt    "P 1"
_space_group_IT_number       1

loop_
  _space_group_symop_operation_xyz
  'x, y, z'

loop_
  _atom_site_type_symbol
  _atom_site_label
  _atom_site_symmetry_multiplicity
  _atom_site_fract_x
  _atom_site_fract_y
  _atom_site_fract_z
  _atom_site_occupancy
  Co  Co1       1.0  0.8098723683815408  0.7229354961827781  0.6098882174751736  1.0000
  Co  Co2       1.0  0.14305196849821303  0.8869689034407742  0.2769697204659919  1.0000
  Co  Co3       1.0  0.4765224898068752  0.3900660423145297  0.11302074121731923  1.0000
  Co  Co4       1.0  0.19012574974667737  0.6098888434566021  0.7229352052950446  1.0000
  Co  Co5       1.0  0.8569493321166278  0.2769703020525469  0.8869675427664774  1.0000
  Co  Co6       1.0  0.5234723609719226  0.11302278176524547  0.3900701923497465  1.0000
  Co  Co7       1.0  0.9999987654393581  0.6848657783221768  0.6848666789439689  1.0000
  Co  Co8       1.0  0.3332699105538168  0.9999753359314171  0.3151107493786397  1.0000
  Co  Co9       1.0  0.6667136510527599  0.3151089041475999  0.9999721550866739  1.0000
  H   H1        1.0  0.5846546759758271  0.7497932630929827  0.7589468263246032  1.0000
  H   H2        1.0  0.5189567011254824  0.7329746267110907  0.8415176241324929  1.0000
  H   H3        1.0  0.7698378236335871  0.6095399559432478  0.8088280788199214  1.0000
  H   H4        1.0  0.8324671657772954  0.6256643094724127  0.7257958028064948  1.0000
  H   H5        1.0  0.81017341677736  0.42878061587015287  0.8695024304863351  1.0000
  H   H6        1.0  0.7620559534229374  0.5261468138935187  0.8746308413654518  1.0000
  H   H7        1.0  0.4821824005878242  0.5300900361835518  0.9669014505843663  1.0000
  H   H8        1.0  0.5318066060186624  0.43257585138863436  0.9609904351379939  1.0000
  H   H9        1.0  0.2796387649477409  0.7602048554757844  0.13400123864346358  1.0000
  H   H10       1.0  0.3704275432298871  0.6806367222899115  0.04266704923186655  1.0000
  H   H11       1.0  0.5532308235568094  0.8195082524472852  0.037879961985922445  1.0000
  H   H12       1.0  0.46233462487484905  0.8984373929463557  0.12986888630490503  1.0000
  H   H13       1.0  0.6568217406891179  0.5672878146101326  0.8366039023639614  1.0000
  H   H14       1.0  0.521847094013296  0.6326898486592683  0.012679430842311504  1.0000
  H   H15       1.0  0.54160582226028  0.7501983448627313  0.9363615885635568  1.0000
  H   H16       1.0  0.6035441571608686  0.8652487326312938  0.6402767061410157  1.0000
  H   H17       1.0  0.7290814635757386  0.8822169646689628  0.6720684489013492  1.0000
  H   H18       1.0  0.6665229015484471  0.8143814268918844  0.6589288967485911  1.0000
  H   H19       1.0  0.6285038847144763  0.896538030383006  0.5388941706318207  1.0000
  H   H20       1.0  0.7579179323443909  0.9228440382308707  0.5536586224711613  1.0000
  H   H21       1.0  0.6824213914334933  0.9234572380824914  0.6124213408303234  1.0000
  H   H22       1.0  0.8082618088744978  0.7604330927273252  0.475832303854645  1.0000
  H   H23       1.0  0.8401509658238953  0.8308435144444672  0.4791924064519079  1.0000
  H   H24       1.0  0.7188826838153589  0.7959727750739417  0.4497381191638539  1.0000
  H   H25       1.0  0.9176211471497241  0.00926495835403066  0.25032604045289725  1.0000
  H   H26       1.0  0.8521886745223384  0.10868145239959402  0.2670575496088574  1.0000
  H   H27       1.0  0.1031559297879525  0.19931204868370866  0.3904571506062595  1.0000
  H   H28       1.0  0.16562250788148702  0.10012478004617985  0.374340405283796  1.0000
  H   H29       1.0  0.14319079064489423  0.44083809005866936  0.5713487150028627  1.0000
  H   H30       1.0  0.09546881683008479  0.34861302647546916  0.47386123289606985  1.0000
  H   H31       1.0  0.8153475199814652  0.43667096979441306  0.4698259025479317  1.0000
  H   H32       1.0  0.8647111164937799  0.5283228188230709  0.567375636749844  1.0000
  H   H33       1.0  0.6129860051297201  0.3738329641393322  0.2397356347300317  1.0000
  H   H34       1.0  0.7034346127177431  0.36190575246527606  0.31931788671954553  1.0000
  H   H35       1.0  0.8861944582787091  0.21822944015727333  0.1804663332237482  1.0000
  H   H36       1.0  0.7954936126349211  0.23134277465855752  0.10152607877630969  1.0000
  H   H37       1.0  0.9901351032949465  0.2693405809295798  0.43267580601318667  1.0000
  H   H38       1.0  0.8548879505969041  0.3799595915049069  0.3672816595470891  1.0000
  H   H39       1.0  0.8750475847157516  0.18616569881903194  0.2497511198926077  1.0000
  H   H40       1.0  0.9370235439747321  0.7749798286119969  0.134624148091831  1.0000
  H   H41       1.0  0.06265568623105369  0.789750030928687  0.1177184073297043  1.0000
  H   H42       1.0  3.19081030753e-05  0.844475320761319  0.18549752010321907  1.0000
  H   H43       1.0  0.9618145529348398  0.6423005426098811  0.10339834861779455  1.0000
  H   H44       1.0  0.09127885034254042  0.6307929649141713  0.07717004750833922  1.0000
  H   H45       1.0  0.0158218214494852  0.6889489185058083  0.07655200992066832  1.0000
  H   H46       1.0  0.14137220102970363  0.7153655878596155  0.23962544325463148  1.0000
  H   H47       1.0  0.17328623596534956  0.6483048762961374  0.1692426510129722  1.0000
  H   H48       1.0  0.0519751705843703  0.6537365334765397  0.20408230938495822  1.0000
  H   H49       1.0  0.2509710654206573  0.2410492668965746  0.9908925038024632  1.0000
  H   H50       1.0  0.18526280805531306  0.15850196054928042  0.8914964164513961  1.0000
  H   H51       1.0  0.4362210508240239  0.19117187391346857  0.8007702372221244  1.0000
  H   H52       1.0  0.4988929294944954  0.2741502988598654  0.8999351841575631  1.0000
  H   H53       1.0  0.47666237057844546  0.13051222531529313  0.5592767294443277  1.0000
  H   H54       1.0  0.42861174942812136  0.12535206740241028  0.6515068641921927  1.0000
  H   H55       1.0  0.14873150723613554  0.03308141452887271  0.5632221553000747  1.0000
  H   H56       1.0  0.19837855165263113  0.03893095505835483  0.4715890914864289  1.0000
  H   H57       1.0  0.9461883934709692  0.865958760288521  0.6262281019086018  1.0000
  H   H58       1.0  0.03679858508363051  0.9573717487997868  0.6380524273016802  1.0000
  H   H59       1.0  0.21960599502953224  0.9621945660688098  0.7817106223849775  1.0000
  H   H60       1.0  0.12887719494066371  0.8701457194274835  0.7686141002090706  1.0000
  H   H61       1.0  0.3233876347690342  0.16338827546805867  0.7307260376288128  1.0000
  H   H62       1.0  0.18828313502343264  0.9873526639210723  0.620057508734007  1.0000
  H   H63       1.0  0.2079698455445751  0.0636625607774166  0.8138792944371717  1.0000
  H   H64       1.0  0.2700972752127769  0.3597297415961052  0.22503548761282127  1.0000
  H   H65       1.0  0.3956122581223838  0.32791174767491066  0.21018124792163206  1.0000
  H   H66       1.0  0.3330413668124876  0.34105519624016273  0.1554967462169472  1.0000
  H   H67       1.0  0.29512977354675485  0.4610983250571864  0.3576691363373428  1.0000
  H   H68       1.0  0.4245662578655711  0.4463467139211091  0.3691895276366424  1.0000
  H   H69       1.0  0.3490722273817469  0.3875775887472058  0.31105749845748676  1.0000
  H   H70       1.0  0.47484335995442  0.5241540500302903  0.28457878468130815  1.0000
  H   H71       1.0  0.5067470683948229  0.5208108514872265  0.3516342927110045  1.0000
  H   H72       1.0  0.3854656739078664  0.5502596082956259  0.34621891067519067  1.0000
  H   H73       1.0  0.415347155835839  0.7589458840615038  0.7497919605552782  1.0000
  H   H74       1.0  0.48104738612845216  0.841515675052193  0.7329717309882752  1.0000
  H   H75       1.0  0.23016637030548281  0.8088278072207445  0.609537686797438  1.0000
  H   H76       1.0  0.16753554028036188  0.7257965364482857  0.6256636342362683  1.0000
  H   H77       1.0  0.18982625822459204  0.8695028070122247  0.4287846904701097  1.0000
  H   H78       1.0  0.23794671875264584  0.8746328885782048  0.5261509900180386  1.0000
  H   H79       1.0  0.5178209727641914  0.9669003359968471  0.5300890394088639  1.0000
  H   H80       1.0  0.4681937708455025  0.9609888894590172  0.4325750853942835  1.0000
  H   H81       1.0  0.7203596529457812  0.13400314237970432  0.7602021754411652  1.0000
  H   H82       1.0  0.6295679241500524  0.04266882416292369  0.6806365288314211  1.0000
  H   H83       1.0  0.44676991961340917  0.03788223297702594  0.8195091954284024  1.0000
  H   H84       1.0  0.5376683020263044  0.12987168361040355  0.8984362468432536  1.0000
  H   H85       1.0  0.34318553014392716  0.836605071696127  0.567288379067989  1.0000
  H   H86       1.0  0.47815149354230624  0.012682069041787326  0.6326929474473174  1.0000
  H   H87       1.0  0.4583935877594029  0.9363628542981818  0.7501998032160487  1.0000
  H   H88       1.0  0.39645460980883485  0.6402782740717257  0.8652490376311163  1.0000
  H   H89       1.0  0.2709172700726583  0.6720699289811805  0.8822175386933893  1.0000
  H   H90       1.0  0.333476654191145  0.6589302707849783  0.814381602532599  1.0000
  H   H91       1.0  0.3714972304339383  0.5388948851386602  0.8965376223623309  1.0000
  H   H92       1.0  0.24208315470814062  0.5536589363200264  0.9228440564122238  1.0000
  H   H93       1.0  0.31757965512485953  0.612422315816076  0.9234568892744405  1.0000
  H   H94       1.0  0.19173867545229234  0.47583304333166865  0.7604340179176887  1.0000
  H   H95       1.0  0.15985023495148457  0.4791930909559098  0.8308433276792399  1.0000
  H   H96       1.0  0.28111702734147315  0.4497383173622397  0.7959722309230769  1.0000
  H   H97       1.0  0.082367735910168  0.25032248651646677  0.009260819897960572  1.0000
  H   H98       1.0  0.14780396318552394  0.2670551423898075  0.108676409550803  1.0000
  H   H99       1.0  0.8968403956506563  0.3904581581505581  0.19930953708470864  1.0000
  H   H100      1.0  0.8343700623082099  0.3743388587818258  0.10012221839903652  1.0000
  H   H101      1.0  0.8568060127088231  0.5713483098485098  0.4408405925660546  1.0000
  H   H102      1.0  0.9045273494249103  0.4738613471457356  0.3486141556488676  1.0000
  H   H103      1.0  0.18465088923917966  0.4698259218627854  0.43667138105450215  1.0000
  H   H104      1.0  0.13528639665746306  0.5673741849785189  0.5283231982144799  1.0000
  H   H105      1.0  0.3870133709376021  0.23973917481754375  0.3738365739417091  1.0000
  H   H106      1.0  0.2965647171523785  0.31931983451404033  0.3619076344165038  1.0000
  H   H107      1.0  0.1138111986394748  0.18046565670774586  0.21823017294051536  1.0000
  H   H108      1.0  0.20451208920697886  0.10152637371586341  0.23134506537002858  1.0000
  H   H109      1.0  0.0098619121393071  0.4326768185803831  0.269340122308826  1.0000
  H   H110      1.0  0.145112101067582  0.3672827598164475  0.3799586753319915  1.0000
  H   H111      1.0  0.12494884565383302  0.24975113021812234  0.1861647711609606  1.0000
  H   H112      1.0  0.0629717960093075  0.13462826213033463  0.7749847829982599  1.0000
  H   H113      1.0  0.9373404219574654  0.1177222697485334  0.789755192536063  1.0000
  H   H114      1.0  0.9999633496357916  0.18550168787544427  0.8444809968491144  1.0000
  H   H115      1.0  0.0381847328808291  0.1034030670546784  0.6423055205843226  1.0000
  H   H116      1.0  0.9087181608504551  0.0771732891085576  0.6307979054408789  1.0000
  H   H117      1.0  0.9841774507936023  0.07655611947359381  0.6889541570725511  1.0000
  H   H118      1.0  0.8586284754144203  0.2396294730290834  0.7153694577814349  1.0000
  H   H119      1.0  0.826713767509773  0.1692460902223728  0.6483093402191783  1.0000
  H   H120      1.0  0.9480271056051279  0.20408413639520973  0.6537411227716561  1.0000
  H   H121      1.0  0.7490278882883887  0.9908951288196236  0.24105254089299427  1.0000
  H   H122      1.0  0.8147370368948331  0.8915004364102544  0.15850290284513602  1.0000
  H   H123      1.0  0.5637780669219411  0.8007736319803483  0.19117367108205485  1.0000
  H   H124      1.0  0.5011060638231656  0.8999391657536079  0.27415322705459744  1.0000
  H   H125      1.0  0.5233407873284863  0.5592759163820985  0.13051087460138425  1.0000
  H   H126      1.0  0.5713921157173019  0.6515069125277506  0.12535276733518688  1.0000
  H   H127      1.0  0.8512740149728799  0.5632255523088289  0.033081733692398536  1.0000
  H   H128      1.0  0.801628562755674  0.47158966045576983  0.038927254314714325  1.0000
  H   H129      1.0  0.053812682794991004  0.6262282077025673  0.8659599027177051  1.0000
  H   H130      1.0  0.9632024207375522  0.6380529120674012  0.9573721541893149  1.0000
  H   H131      1.0  0.7803941426040596  0.7817111192468502  0.96219514063241  1.0000
  H   H132      1.0  0.8711245479841382  0.7686138475201076  0.8701466642455175  1.0000
  H   H133      1.0  0.6766123165510577  0.7307283786939678  0.1633892149495538  1.0000
  H   H134      1.0  0.8117178625874643  0.6200580832408917  0.9873535896114091  1.0000
  H   H135      1.0  0.7920324173822522  0.8138803243098208  0.06366267680668611  1.0000
  H   H136      1.0  0.729897519668171  0.22503131452740632  0.35972978723182075  1.0000
  H   H137      1.0  0.6043825687301307  0.21017842789699165  0.3279114215811915  1.0000
  H   H138      1.0  0.666951954838119  0.1554930368257388  0.341054518624432  1.0000
  H   H139      1.0  0.7048709955399134  0.3576644971715339  0.46110061765394755  1.0000
  H   H140      1.0  0.5754368138941146  0.369187556370541  0.4463489533836267  1.0000
  H   H141      1.0  0.6509309241789225  0.31105476336053073  0.38757975319314397  1.0000
  H   H142      1.0  0.5251581828828691  0.2845757159600312  0.5241556602783035  1.0000
  H   H143      1.0  0.49325289736785294  0.3516308901364198  0.5208124548277837  1.0000
  H   H144      1.0  0.6145350423684235  0.34621595936069127  0.5502588872664019  1.0000
  C   C1        1.0  0.7530833148306472  0.7005515218184826  0.6904851212413874  1.0000
  C   C2        1.0  0.7126113365837625  0.6893135727693717  0.7381097123890112  1.0000
  C   C3        1.0  0.6242307710053225  0.7193075956321736  0.7707024029336226  1.0000
  C   C4        1.0  0.5885474634121337  0.7099711697255273  0.8169750167778105  1.0000
  C   C5        1.0  0.6399212031396645  0.6700235479993706  0.8312965161438581  1.0000
  C   C6        1.0  0.7273625150429127  0.6393460803719933  0.7972898964776931  1.0000
  C   C7        1.0  0.7637872763340996  0.6487476055710673  0.7513387482991262  1.0000
  C   C8        1.0  0.7068342913695389  0.3688697843422304  0.915386383462625  1.0000
  C   C9        1.0  0.6734690787074555  0.4247006020388044  0.9144725270061471  1.0000
  C   C10       1.0  0.7376997947515137  0.45104430515734606  0.8897319037090482  1.0000
  C   C11       1.0  0.7101778444314989  0.5052051466488053  0.8925751464855339  1.0000
  C   C12       1.0  0.617922263187552  0.5348578442094407  0.9204208347113578  1.0000
  C   C13       1.0  0.5538809208913094  0.5078652669248742  0.944855331974118  1.0000
  C   C14       1.0  0.5808369949495997  0.4533262632962547  0.9416171195919744  1.0000
  C   C15       1.0  0.3119415436393781  0.8804277113115617  0.1942977875266011  1.0000
  C   C16       1.0  0.3646132680911691  0.8343055047605719  0.13723207924812902  1.0000
  C   C17       1.0  0.33951403959934373  0.7726289044698902  0.11230677195008819  1.0000
  C   C18       1.0  0.39097938350255396  0.7283865215163702  0.06151847848238391  1.0000
  C   C19       1.0  0.46831000245672527  0.7442519985476893  0.03336487293058353  1.0000
  C   C20       1.0  0.49185271419594306  0.806242083055146  0.058072749200761116  1.0000
  C   C21       1.0  0.4414508513057101  0.8506467875630932  0.1095765624229371  1.0000
  C   C22       1.0  0.6051647023111785  0.6602837342738184  0.8810823543759198  1.0000
  C   C23       1.0  0.6218252623251035  0.6040295942054569  0.8774170256148962  1.0000
  C   C24       1.0  0.5921633028891125  0.5932677524323039  0.9242269689122296  1.0000
  C   C25       1.0  0.5415614695529953  0.6396532582383969  0.9748986651161502  1.0000
  C   C26       1.0  0.5555358190164696  0.7061749851019173  0.9327435146202915  1.0000
  C   C27       1.0  0.5223191489149457  0.6962552114393787  0.9796278146489854  1.0000
  C   C28       1.0  0.7239921104590153  0.8100154910066165  0.5786425967559694  1.0000
  C   C29       1.0  0.6777457935676524  0.8453095682657049  0.6411016274127377  1.0000
  C   C30       1.0  0.6987963706333176  0.8982289838591625  0.5637289501042559  1.0000
  C   C31       1.0  0.778236239307333  0.8039941681945066  0.4837814628066184  1.0000
  C   C32       1.0  0.08622331790656551  0.9899680715627497  0.29941659988103436  1.0000
  C   C33       1.0  0.0457108880621888  0.04884471761347706  0.3107301416685573  1.0000
  C   C34       1.0  0.9573121805865699  0.05146795575913645  0.2807628305806773  1.0000
  C   C35       1.0  0.9217518808194856  0.1070839566849671  0.29006172704058025  1.0000
  C   C36       1.0  0.973223729901747  0.16131805917603967  0.32996237462936046  1.0000
  C   C37       1.0  0.060639354848611  0.15797171128037488  0.3606598771912814  1.0000
  C   C38       1.0  0.09694574291231113  0.10261474438413391  0.3512704304199161  1.0000
  C   C39       1.0  0.0396959939895325  0.5464885933467089  0.6312061086267065  1.0000
  C   C40       1.0  0.006378987808346901  0.48973952158593903  0.5753574105055392  1.0000
  C   C41       1.0  0.07073737733982452  0.43872049284284037  0.5490229888999352  1.0000
  C   C42       1.0  0.0434090689806368  0.38741414480056585  0.4947952630213877  1.0000
  C   C43       1.0  0.9511616695241687  0.38555706876652346  0.4651135003497727  1.0000
  C   C44       1.0  0.8870041564521075  0.436921980163497  0.4921042756033954  1.0000
  C   C45       1.0  0.9137880374067893  0.4882267000960071  0.5466776803610074  1.0000
  C   C46       1.0  0.6454422828202695  0.3139606127113481  0.1195518534812123  1.0000
  C   C47       1.0  0.6979307277917073  0.3029346587467571  0.16565513500319895  1.0000
  C   C48       1.0  0.6727339499949851  0.339654183779139  0.22731541040842276  1.0000
  C   C49       1.0  0.724044216318859  0.3330445659832506  0.2715737081218919  1.0000
  C   C50       1.0  0.8013493441648764  0.2890240983844024  0.2557196343463488  1.0000
  C   C51       1.0  0.8248845135469267  0.2517154887099764  0.19373123487364552  1.0000
  C   C52       1.0  0.7746063600117666  0.2588504620165324  0.149313679438869  1.0000
  C   C53       1.0  0.9385638141018477  0.22082968772000566  0.3396611813418744  1.0000
  C   C54       1.0  0.9551871803777062  0.27341596927416845  0.3959227356451436  1.0000
  C   C55       1.0  0.9254727729616476  0.33097445088797883  0.4066889620002669  1.0000
  C   C56       1.0  0.8747414074234641  0.33523139261831864  0.3603161795740917  1.0000
  C   C57       1.0  0.8888921818984559  0.22657021307317393  0.2937778003708189  1.0000
  C   C58       1.0  0.8555080086812339  0.2833504889839277  0.3037177094614236  1.0000
  C   C59       1.0  0.057310646337342105  0.7685861502073409  0.18996147068007468  1.0000
  C   C60       1.0  0.011221201605245302  0.7957231199702832  0.15460368287438087  1.0000
  C   C61       1.0  0.0321267956287841  0.6654565450845098  0.10176448905521351  1.0000
  C   C62       1.0  0.1113711990285324  0.6797502034145353  0.1960601786945304  1.0000
  C   C63       1.0  0.419660016156314  0.3094414260193901  0.010084068372243815  1.0000
  C   C64       1.0  0.3790230156456219  0.2618570288849186  0.9512517903791888  1.0000
  C   C65       1.0  0.2905673430280729  0.229304864332228  0.9486570961351787  1.0000
  C   C66       1.0  0.25486624693276383  0.1830479803904482  0.8930471880874221  1.0000
  C   C67       1.0  0.3062659739345648  0.16872166677197248  0.8387790013615586  1.0000
  C   C68       1.0  0.39373945042721203  0.202710038695358  0.8421112355566437  1.0000
  C   C69       1.0  0.4301735762931927  0.24862699672413413  0.8974548453606559  1.0000
  C   C70       1.0  0.37325818284652706  0.08460991383630308  0.45348792596458753  1.0000
  C   C71       1.0  0.33993191112708143  0.08553633692224598  0.5102565196649493  1.0000
  C   C72       1.0  0.4041881765766321  0.11029064620363738  0.5613249423653031  1.0000
  C   C73       1.0  0.3766940660765883  0.10743179669650975  0.612645316501407  1.0000
  C   C74       1.0  0.28444902089062657  0.07958751692257951  0.6144730979886005  1.0000
  C   C75       1.0  0.22040442094471052  0.05513164748273169  0.5630503387850041  1.0000
  C   C76       1.0  0.24733497420123746  0.05835776107116436  0.5117390329061635  1.0000
  C   C77       1.0  0.9786506156029875  0.8056310275451253  0.6860893778889263  1.0000
  C   C78       1.0  0.031182601240423904  0.8627517587624851  0.6970913521904336  1.0000
  C   C79       1.0  0.006008341234064601  0.8876852056011302  0.6603587829080836  1.0000
  C   C80       1.0  0.05738142938517401  0.9385148148051813  0.6669347325758395  1.0000
  C   C81       1.0  0.1346772332350596  0.9666871177354822  0.710953357428899  1.0000
  C   C82       1.0  0.1582489216913601  0.9419853231018179  0.7482494505944075  1.0000
  C   C83       1.0  0.1079508387478896  0.8904485088001907  0.7411281053337646  1.0000
  C   C84       1.0  0.27158624171350004  0.11892958723117886  0.7792493132011556  1.0000
  C   C85       1.0  0.28834259817229935  0.12258423371491026  0.726655259043575  1.0000
  C   C86       1.0  0.258683742925598  0.07578514612137616  0.6690815697807153  1.0000
  C   C87       1.0  0.20801443167586345  0.02512815863229893  0.66479882621352  1.0000
  C   C88       1.0  0.22192526387626543  0.06728486328649555  0.7734805997358194  1.0000
  C   C89       1.0  0.18872694318218922  0.020407762299463145  0.7166753877576892  1.0000
  C   C90       1.0  0.3905931379708179  0.42133335357114277  0.23137786100704003  1.0000
  C   C91       1.0  0.3443004231866454  0.3588928817516718  0.2042467286804097  1.0000
  C   C92       1.0  0.3654242523180429  0.4362691595520118  0.3345192106671107  1.0000
  C   C93       1.0  0.44482870541595804  0.5162160029973819  0.3202006634851884  1.0000
  C   C94       1.0  0.24691706386095555  0.6904868815366852  0.7005522485551835  1.0000
  C   C95       1.0  0.28738825054109185  0.7381109448126891  0.6893127895895005  1.0000
  C   C96       1.0  0.37577107362181283  0.7707014170052914  0.7193058323827443  1.0000
  C   C97       1.0  0.4114566563078768  0.8169742219144496  0.7099695234860236  1.0000
  C   C98       1.0  0.3600814005614765  0.8312957111659786  0.6700214884465368  1.0000
  C   C99       1.0  0.27264166634460457  0.7972903960913484  0.6393459095627135  1.0000
  C   C100      1.0  0.23621462969711626  0.7513382709732285  0.6487465311042797  1.0000
  C   C101      1.0  0.29316922742330587  0.915392176331871  0.36887293923685865  1.0000
  C   C102      1.0  0.3265321020946459  0.9144734518591378  0.42470196096842017  1.0000
  C   C103      1.0  0.26229908456402035  0.8897331992645972  0.4510473953507416  1.0000
  C   C104      1.0  0.28982329637570814  0.8925768503578267  0.5052067125878779  1.0000
  C   C105      1.0  0.38208037197637884  0.9204232388077856  0.5348586314019101  1.0000
  C   C106      1.0  0.44612018240083984  0.9448556080872876  0.507865295023045  1.0000
  C   C107      1.0  0.41916184748105684  0.9416171082078221  0.4533261197117895  1.0000
  C   C108      1.0  0.6880598179695526  0.194301156651683  0.8804279531987972  1.0000
  C   C109      1.0  0.6353866305144039  0.13723365136017654  0.8343027926985016  1.0000
  C   C110      1.0  0.6604820841819858  0.11230823665562191  0.7726280769074165  1.0000
  C   C111      1.0  0.609018338739304  0.061520074485251625  0.7283855610588219  1.0000
  C   C112      1.0  0.5316907951848081  0.0333680327644998  0.7442539902087616  1.0000
  C   C113      1.0  0.508148024294961  0.05807595340811381  0.8062430362190511  1.0000
  C   C114      1.0  0.5585459877856991  0.10957822999740342  0.8506469211518137  1.0000
  C   C115      1.0  0.394840174255954  0.8810832084457232  0.6602850717847487  1.0000
  C   C116      1.0  0.37817812169210197  0.8774170910546603  0.6040288994504907  1.0000
  C   C117      1.0  0.4078400564851705  0.9242297608877834  0.5932701665539283  1.0000
  C   C118      1.0  0.4584372229163734  0.9749007613054275  0.6396547821905187  1.0000
  C   C119      1.0  0.44446362353595253  0.9327436782084535  0.7061754367707636  1.0000
  C   C120      1.0  0.4776802684720991  0.9796292493237642  0.6962554963970077  1.0000
  C   C121      1.0  0.2760075030853458  0.5786440725438954  0.8100159380175  1.0000
  C   C122      1.0  0.32225375317496235  0.6411028112376442  0.8453104365975648  1.0000
  C   C123      1.0  0.3012062598948546  0.5637285446516671  0.8982283118538844  1.0000
  C   C124      1.0  0.2217634430748774  0.48378095488899925  0.8039937427960097  1.0000
  C   C125      1.0  0.9137794304659936  0.2994123649200021  0.9899639158441004  1.0000
  C   C126      1.0  0.9542817605302716  0.31072715714890353  0.048841857311479914  1.0000
  C   C127      1.0  0.0426774195408086  0.28075881311676204  0.05146502651742685  1.0000
  C   C128      1.0  0.07824304243307273  0.2900580770027403  0.10708035553982852  1.0000
  C   C129      1.0  0.026768062058906104  0.3299618384511191  0.1613160195963772  1.0000
  C   C130      1.0  0.9393570189635269  0.3606582269476135  0.15797032104870112  1.0000
  C   C131      1.0  0.9030437742445445  0.35126797396406323  0.10261131408152831  1.0000
  C   C132      1.0  0.96030146311918  0.6312049064133802  0.5464899671512597  1.0000
  C   C133      1.0  0.9936185461624946  0.5753558586835368  0.48974122597251585  1.0000
  C   C134      1.0  0.9292594427053802  0.5490220783018316  0.43872253888491025  1.0000
  C   C135      1.0  0.9565878231789926  0.49479546977347866  0.3874166104980006  1.0000
  C   C136      1.0  0.04883907815801081  0.46511348665228525  0.3855571042528254  1.0000
  C   C137      1.0  0.11299423735962928  0.4921030017221355  0.4369215076639605  1.0000
  C   C138      1.0  0.08620951728315158  0.5466764712673609  0.48822698940219306  1.0000
  C   C139      1.0  0.3545556823265485  0.11954972713846966  0.3139648263979851  1.0000
  C   C140      1.0  0.30206798032630644  0.16565499213850643  0.3029380581495857  1.0000
  C   C141      1.0  0.3272662246143271  0.22731696193388023  0.3396568075321156  1.0000
  C   C142      1.0  0.27595593263328067  0.27157513633204644  0.3330460818313554  1.0000
  C   C143      1.0  0.19865161249670393  0.2557192082426454  0.2890229707261085  1.0000
  C   C144      1.0  0.1751195779035513  0.19373130922975432  0.2517168787183905  1.0000
  C   C145      1.0  0.2253969900994264  0.14931449673189687  0.2588531242553458  1.0000
  C   C146      1.0  0.061434831517225105  0.3396611121694164  0.22082843090828422  1.0000
  C   C147      1.0  0.044810624193672814  0.3959232472355085  0.2734141659866154  1.0000
  C   C148      1.0  0.07452575167472021  0.40668932960029025  0.3309732758448334  1.0000
  C   C149      1.0  0.12525791282006793  0.36031662243844664  0.3352290134834419  1.0000
  C   C150      1.0  0.11110572438612822  0.2937777448993657  0.22656859583592853  1.0000
  C   C151      1.0  0.14449291913002332  0.3037175678498727  0.2833486518584749  1.0000
  C   C152      1.0  0.9426861938196752  0.18996595125479837  0.7685904638773237  1.0000
  C   C153      1.0  0.9887741105459611  0.1546072686109882  0.7957279190351512  1.0000
  C   C154      1.0  0.9678694083525413  0.10176953996015206  0.665462721614922  1.0000
  C   C155      1.0  0.8886287646360458  0.19606380602429843  0.679755193291811  1.0000
  C   C156      1.0  0.5803380270046575  0.010083414299813893  0.3094441583363832  1.0000
  C   C157      1.0  0.6209828519684351  0.9512575329557578  0.26186163972973014  1.0000
  C   C158      1.0  0.7094324144389149  0.9486623010185581  0.22930855345314427  1.0000
  C   C159      1.0  0.7451320466282213  0.8930513569568673  0.18304947391249024  1.0000
  C   C160      1.0  0.6937346667568961  0.8387811984442592  0.16872178048615175  1.0000
  C   C161      1.0  0.6062596312100865  0.8421147572808677  0.20271185687500548  1.0000
  C   C162      1.0  0.5698285032838798  0.8974596912114023  0.24862993607032996  1.0000
  C   C163      1.0  0.6267519797435384  0.4534833830041407  0.08460240958392967  1.0000
  C   C164      1.0  0.6600728445858836  0.5102546574079554  0.08553276159789655  1.0000
  C   C165      1.0  0.5958157605121457  0.5613233641490538  0.110288566736422  1.0000
  C   C166      1.0  0.6233090711468208  0.6126463014862651  0.10743218333728784  1.0000
  C   C167      1.0  0.7155541341233019  0.6144747331956069  0.07958815133748955  1.0000
  C   C168      1.0  0.7795972523907083  0.5630522480041263  0.055131798825684156  1.0000
  C   C169      1.0  0.752668265539633  0.5117386053144912  0.058355217350559534  1.0000
  C   C170      1.0  0.021348160717991508  0.6860891299284406  0.8056309080476822  1.0000
  C   C171      1.0  0.968819962318861  0.6970909582525309  0.8627531750196268  1.0000
  C   C172      1.0  0.99399269691488  0.6603596517465817  0.8876865445753166  1.0000
  C   C173      1.0  0.9426218698798225  0.6669347574873044  0.9385151947846139  1.0000
  C   C174      1.0  0.8653267834804056  0.7109533033538824  0.9666877286399327  1.0000
  C   C175      1.0  0.8417535529569522  0.7482502859584912  0.9419854345093412  1.0000
  C   C176      1.0  0.8920493756142848  0.7411295569614109  0.8904498086256181  1.0000
  C   C177      1.0  0.7284137068823001  0.7792515860575691  0.1189295412071587  1.0000
  C   C178      1.0  0.7116581505622008  0.7266576527016895  0.12258531569049322  1.0000
  C   C179      1.0  0.7413170771043839  0.6690856175113993  0.07578763672305663  1.0000
  C   C180      1.0  0.7919864258453517  0.6648011377931339  0.02512947774618374  1.0000
  C   C181      1.0  0.7780754905679929  0.7734829792512484  0.0672873118279186  1.0000
  C   C182      1.0  0.8112723485187133  0.7166772277189607  0.02040987906754311  1.0000
  C   C183      1.0  0.6094031441067784  0.23137487600155995  0.42133354195739514  1.0000
  C   C184      1.0  0.6556959201061119  0.20424380400235975  0.3588924007884414  1.0000
  C   C185      1.0  0.6345796167694858  0.3345170989787718  0.43627134823945096  1.0000
  C   C186      1.0  0.5551712850000073  0.32019718237442163  0.5162166908400181  1.0000
  N   N1        1.0  0.7354196554290483  0.8372703751117213  0.5448957874331413  1.0000
  N   N2        1.0  0.0686409039166591  0.7075783688072265  0.16275179330068582  1.0000
  N   N3        1.0  0.4020065114012468  0.4550974822942919  0.2923790021950908  1.0000
  N   N4        1.0  0.26458072932089755  0.5448958966281836  0.8372694685253846  1.0000
  N   N5        1.0  0.9313567630998492  0.16275335288803205  0.7075826657010963  1.0000
  N   N6        1.0  0.5979912394573077  0.2923769245662129  0.45509929729544035  1.0000
  O   O1        1.0  0.6968433015549922  0.7234486505937738  0.6653750473334483  1.0000
  O   O2        1.0  0.8455761903778696  0.6866995410895599  0.6718183002776072  1.0000
  O   O3        1.0  0.7976447108970393  0.34978400908805446  0.8943755531231828  1.0000
  O   O4        1.0  0.6461272410481058  0.3448603708809869  0.9362126165389738  1.0000
  O   O5        1.0  0.23135580233399375  0.8599839512471661  0.20744474769574578  1.0000
  O   O6        1.0  0.3498895128688204  0.9330632061554028  0.22483229573443714  1.0000
  O   O7        1.0  0.7522013415699719  0.7554336971060991  0.5572557947798131  1.0000
  O   O8        1.0  0.030006841966539403  0.941954155320154  0.2765133145240527  1.0000
  O   O9        1.0  0.1787562756421579  0.9851510700463139  0.3131922376937126  1.0000
  O   O10       1.0  0.1304483642349723  0.5444916883737035  0.6503220433708137  1.0000
  O   O11       1.0  0.9790736697793464  0.5913536077663296  0.6551566463744579  1.0000
  O   O12       1.0  0.5650477663919916  0.3476991203118942  0.14004051581737542  1.0000
  O   O13       1.0  0.6833294330898669  0.2917859986522515  0.0668949256868956  1.0000
  O   O14       1.0  0.08549824717994171  0.8018013028992854  0.24453609072795487  1.0000
  O   O15       1.0  0.3635294924276238  0.3345817802830878  0.05813611959414541  1.0000
  O   O16       1.0  0.5121794497925337  0.3280353400202429  0.014800643086111585  1.0000
  O   O17       1.0  0.4640856420449141  0.10560701778207723  0.4554155482611932  1.0000
  O   O18       1.0  0.3125358346070328  0.06378429617437584  0.4086682752447572  1.0000
  O   O19       1.0  0.8982074651732506  0.7924171235958893  0.6523879595394247  1.0000
  O   O20       1.0  0.0165517004134088  0.7751243528672305  0.70823429707535  1.0000
  O   O21       1.0  0.41887549859620793  0.4426881846297163  0.19817111721757638  1.0000
  O   O22       1.0  0.3031547782566477  0.665375958619812  0.7234498965314273  1.0000
  O   O23       1.0  0.15442344374732636  0.6718204410876893  0.6867007135136872  1.0000
  O   O24       1.0  0.20235346774722981  0.8943801968413395  0.34978836816287634  1.0000
  O   O25       1.0  0.3538640116486961  0.9362188067995162  0.34486256605592996  1.0000
  O   O26       1.0  0.7686440307929486  0.2074453198923083  0.8599800471332912  1.0000
  O   O27       1.0  0.6501194596407345  0.224831925595474  0.9330599965631662  1.0000
  O   O28       1.0  0.2477975570779449  0.5572573045576021  0.7554343303411172  1.0000
  O   O29       1.0  0.9699944212886251  0.2765090633489321  0.9419501255152908  1.0000
  O   O30       1.0  0.8212457002491931  0.3131901635286595  0.9851417839626818  1.0000
  O   O31       1.0  0.8695498479804444  0.6503219696415529  0.5444937017670739  1.0000
  O   O32       1.0  0.0209260406784395  0.6551564157075376  0.5913553606072526  1.0000
  O   O33       1.0  0.43495092872517926  0.14004199471720827  0.3477027393762384  1.0000
  O   O34       1.0  0.3166831517660357  0.06689219221998857  0.29179066402384285  1.0000
  O   O35       1.0  0.9145023668629335  0.2445397192289249  0.8018050430927985  1.0000
  O   O36       1.0  0.6364723346379223  0.058135027144871364  0.3345834729159947  1.0000
  O   O37       1.0  0.4878254784721108  0.014800292872266098  0.32803696562337586  1.0000
  O   O38       1.0  0.5359237379154039  0.45540997325103655  0.10560207217308458  1.0000
  O   O39       1.0  0.6874674719152055  0.4086640266499729  0.0637763088040941  1.0000
  O   O40       1.0  0.10179364349862402  0.6523879671780577  0.7924173536568162  1.0000
  O   O41       1.0  0.9834447812523168  0.7082326042418072  0.7751237144519506  1.0000
  O   O42       1.0  0.5811230919890562  0.1981720251295088  0.4426904713230329  1.0000
