data_image0
_chemical_formula_structural       Zn4H40C48N8Cl8O8
_chemical_formula_sum              "Zn4 H40 C48 N8 Cl8 O8"
_cell_length_a       8.830125359938478
_cell_length_b       11.261703913217005
_cell_length_c       15.971125964524854
_cell_angle_alpha    69.44731426404157
_cell_angle_beta     73.93982449962522
_cell_angle_gamma    66.91223812321796

_space_group_name_H-M_alt    "P 1"
_space_group_IT_number       1

loop_
  _space_group_symop_operation_xyz
  'x, y, z'

loop_
  _atom_site_type_symbol
  _atom_site_label
  _atom_site_symmetry_multiplicity
  _atom_site_fract_x
  _atom_site_fract_y
  _atom_site_fract_z
  _atom_site_occupancy
  Zn  Zn1       1.0  0.11313648101879896  0.6736057996373078  0.9504689769904003  1.0000
  Zn  Zn2       1.0  0.7370462339655359  0.8262331809672504  0.5495352691926454  1.0000
  Zn  Zn3       1.0  0.8868644697888898  0.32639708674686574  0.049530241676649205  1.0000
  Zn  Zn4       1.0  0.2629505005259746  0.1737656733104842  0.45046583232024057  1.0000
  H   H1        1.0  0.19238929659034915  0.387813083930368  0.2303335084691938  1.0000
  H   H2        1.0  0.8106954787396745  0.11213179667795709  0.26967063452784856  1.0000
  H   H3        1.0  0.8076062354258796  0.6121877898125663  0.7696664256730725  1.0000
  H   H4        1.0  0.189306113415988  0.8878640475095239  0.7303309179460199  1.0000
  H   H5        1.0  0.3999949481810746  0.348742071671488  0.16755549135718434  1.0000
  H   H6        1.0  0.9161948036881997  0.1512209056070688  0.3325501998250502  1.0000
  H   H7        1.0  0.600004029483053  0.6512567984280935  0.8324445340822064  1.0000
  H   H8        1.0  0.08380478858367005  0.848774943938551  0.667450992673494  1.0000
  H   H9        1.0  0.10892313382991871  0.5707111793906918  0.3019371226575415  1.0000
  H   H10       1.0  0.9816571828411897  0.9294670300784915  0.19806345909647405  1.0000
  H   H11       1.0  0.8910740127359559  0.42928667111920765  0.6980641585315367  1.0000
  H   H12       1.0  0.018347997007687467  0.0705298071605469  0.8019386336518579  1.0000
  H   H13       1.0  0.6001565314169001  0.3631488223033302  0.21298260398135938  1.0000
  H   H14       1.0  0.1764560918273759  0.1367899052271682  0.2871245630608072  1.0000
  H   H15       1.0  0.39984100048312143  0.636852046081458  0.7870176901362311  1.0000
  H   H16       1.0  0.8235426495555275  0.8632119734968456  0.71287510333768  1.0000
  H   H17       1.0  0.19410050380565733  0.6679068552123583  0.3906835087515929  1.0000
  H   H18       1.0  0.2528590914525779  0.8321911517770104  0.10934289434231903  1.0000
  H   H19       1.0  0.8058960211448537  0.3320909860470778  0.6093184004680622  1.0000
  H   H20       1.0  0.7471440885125062  0.1678056908201597  0.8906588384306885  1.0000
  H   H21       1.0  0.7087272928570413  0.44793252298044434  0.29756867055336755  1.0000
  H   H22       1.0  0.4544937544534094  0.05206309169645349  0.202471003242124  1.0000
  H   H23       1.0  0.29126861748571997  0.5520683388329601  0.7024320716071413  1.0000
  H   H24       1.0  0.5455064059533828  0.9479408103850845  0.7975272277304907  1.0000
  H   H25       1.0  0.28010571011924407  0.7418427286036576  0.4626725443835865  1.0000
  H   H26       1.0  0.48490561643804164  0.7583260080270977  0.03720486631985408  1.0000
  H   H27       1.0  0.7198930312636664  0.2581591501203633  0.5373271220149077  1.0000
  H   H28       1.0  0.5150931657003214  0.2416779086630427  0.9627923766468525  1.0000
  H   H29       1.0  0.7881585817386989  0.5333217559352621  0.35486391099874476  1.0000
  H   H30       1.0  0.6765882371078219  0.9664633682087005  0.1452571382298088  1.0000
  H   H31       1.0  0.21184060546642064  0.4666781271826182  0.6451353067338771  1.0000
  H   H32       1.0  0.32341267294442116  0.0335374802093469  0.8547445038690213  1.0000
  H   H33       1.0  0.3998884084583311  0.8367940213855435  0.5358846943635739  1.0000
  H   H34       1.0  0.772838046380265  0.6633743359961884  0.9640066874931816  1.0000
  H   H35       1.0  0.6001119544818322  0.16320786390986092  0.4641145239920019  1.0000
  H   H36       1.0  0.2271633235094086  0.3366305764245753  0.035990915760329784  1.0000
  H   H37       1.0  0.8841177267499489  0.6340180565474896  0.43573810889617437  1.0000
  H   H38       1.0  0.9541700029762769  0.8657398092996261  0.06440789325950651  1.0000
  H   H39       1.0  0.11588204832268897  0.3659828276591526  0.5642611091479209  1.0000
  H   H40       1.0  0.04583290695975257  0.13426103376028212  0.9355941088146548  1.0000
  C   C1        1.0  0.2294091995813686  0.5504917692026512  0.1151348316935524  1.0000
  C   C2        1.0  0.8949087433007678  0.9494435796197892  0.3849194778887508  1.0000
  C   C3        1.0  0.7705917779665442  0.44950709553879153  0.8848655537211698  1.0000
  C   C4        1.0  0.10509880770445788  0.0505462762834625  0.6150808205076003  1.0000
  C   C5        1.0  0.2957573936682109  0.4270144193512026  0.19305010322010213  1.0000
  C   C6        1.0  0.9158468707219214  0.0729301076871849  0.30704952211944186  1.0000
  C   C7        1.0  0.7042401719796486  0.5729854571952872  0.8069495625554309  1.0000
  C   C8        1.0  0.0841553430491045  0.9270657457507526  0.6929514023238494  1.0000
  C   C9        1.0  0.2391501106093586  0.5481318167460502  0.30426459203864187  1.0000
  C   C10       1.0  0.09168722833961614  0.9519151920529294  0.19580905518091637  1.0000
  C   C11       1.0  0.7608465901343069  0.451868029369983  0.6957371378163014  1.0000
  C   C12       1.0  0.908315370765557  0.0480836792599106  0.8041908821908875  1.0000
  C   C13       1.0  0.5170795429646377  0.42997164067704585  0.25424507748469677  1.0000
  C   C14       1.0  0.2014976437932745  0.06993732895671909  0.24586898319319767  1.0000
  C   C15       1.0  0.4829184010097548  0.5700282239399145  0.7457553963090857  1.0000
  C   C16       1.0  0.7985008880486433  0.9300635367490103  0.7541314909120586  1.0000
  C   C17       1.0  0.2909005966644075  0.5999648265441309  0.3539436030938318  1.0000
  C   C18       1.0  0.244994159880747  0.9000603037108663  0.1461293900905928  1.0000
  C   C19       1.0  0.7090963066126363  0.4000330027857757  0.6460591141440659  1.0000
  C   C20       1.0  0.755013472681732  0.09993756236831079  0.8538708188774817  1.0000
  C   C21       1.0  0.5742049809397897  0.4795496953711052  0.30252168095719156  1.0000
  C   C22       1.0  0.3565393221897466  0.0204139254140401  0.1975500815342386  1.0000
  C   C23       1.0  0.4257919630927061  0.5204501719249282  0.6974786128489254  1.0000
  C   C24       1.0  0.6434586287922528  0.9795889690073452  0.8024485971698139  1.0000
  C   C25       1.0  0.46184508518812356  0.5688371003029359  0.3526027990692667  1.0000
  C   C26       1.0  0.3835042318991597  0.9311326730190502  0.14746716829095863  1.0000
  C   C27       1.0  0.5381534804016328  0.4311627735644876  0.6473970466939319  1.0000
  C   C28       1.0  0.6164977525982633  0.06886921884774469  0.852531602021699  1.0000
  C   C29       1.0  0.5232553825682442  0.6282269890778738  0.4001951892609695  1.0000
  C   C30       1.0  0.5518847636133303  0.8717835552340673  0.09979493860492993  1.0000
  C   C31       1.0  0.4767448045787647  0.37177289136094066  0.5998042084593179  1.0000
  C   C32       1.0  0.4481142210584039  0.1282183446699463  0.9002032917447308  1.0000
  C   C33       1.0  0.41532952125685835  0.7146539173098959  0.45307259981053954  1.0000
  C   C34       1.0  0.5833145837328502  0.7854624597040499  0.04685637735741469  1.0000
  C   C35       1.0  0.5846716658320474  0.2853459604498454  0.5469269778974066  1.0000
  C   C36       1.0  0.4166859887483054  0.21454043860965305  0.9531420332913851  1.0000
  C   C37       1.0  0.6952368942067082  0.5998332761875319  0.3936961818363187  1.0000
  C   C38       1.0  0.6889762257726633  0.9000819739561123  0.10635213637728923  1.0000
  C   C39       1.0  0.30476167138304794  0.4001665976798847  0.6063036639268802  1.0000
  C   C40       1.0  0.3110224748547948  0.09991786680178903  0.8936499534529787  1.0000
  C   C41       1.0  0.48121899069860063  0.7674898332828803  0.4958889072545034  1.0000
  C   C42       1.0  0.7448908125852541  0.7326221679860154  0.004038400314556206  1.0000
  C   C43       1.0  0.5187831625843629  0.23251103363609357  0.5041114787831659  1.0000
  C   C44       1.0  0.2551087599540055  0.26738073300676035  0.9959598303465852  1.0000
  C   C45       1.0  0.7516138202610135  0.6546824339257925  0.4393768533967658  1.0000
  C   C46       1.0  0.8459035310170008  0.8452609058451589  0.060663446954478645  1.0000
  C   C47       1.0  0.24838798844325535  0.34531745308441225  0.5606220962806033  1.0000
  C   C48       1.0  0.15409517661807132  0.1547419647171608  0.939336847786066  1.0000
  N   N1        1.0  0.8743741272952263  0.7622649897468818  0.010409968071904451  1.0000
  N   N2        1.0  0.6467610046154918  0.7377368835642599  0.48958574892213846  1.0000
  N   N3        1.0  0.1256256140295733  0.23773688629806602  0.9895898783142483  1.0000
  N   N4        1.0  0.3532425944315705  0.2622619850695074  0.5104143684373239  1.0000
  N   N5        1.0  0.35175660525725055  0.46540336717963987  0.2547462672197014  1.0000
  N   N6        1.0  0.072048843146483  0.03457278628409449  0.24535981983905938  1.0000
  N   N7        1.0  0.6482411291761496  0.5345954844190217  0.7452550142808432  1.0000
  N   N8        1.0  0.9279529993056244  0.9654261088878042  0.7546385014962594  1.0000
  Cl  Cl1       1.0  0.268030852936782  0.8130415086672258  0.8918964482823097  1.0000
  Cl  Cl2       1.0  0.9729440147378483  0.6870004984147828  0.6080350845737712  1.0000
  Cl  Cl3       1.0  0.7319730301545634  0.1869594191126538  0.1080998095965526  1.0000
  Cl  Cl4       1.0  0.02705306433235682  0.3129993357717282  0.39196745329941507  1.0000
  Cl  Cl5       1.0  0.07545536689291062  0.6034903640310179  0.8450012855355737  1.0000
  Cl  Cl6       1.0  0.523854190463695  0.896368916846086  0.6550486239838661  1.0000
  Cl  Cl7       1.0  0.9245416108874238  0.39650851142670956  0.1549983799284931  1.0000
  Cl  Cl8       1.0  0.47614148359785713  0.10363495359175091  0.34495175913573917  1.0000
  O   O1        1.0  0.2369349163790277  0.5204750337640218  0.043228730688092305  1.0000
  O   O2        1.0  0.8004806256328509  0.9794352792638107  0.45683029075242837  1.0000
  O   O3        1.0  0.7630656490945147  0.4795248347452556  0.9567714750504377  1.0000
  O   O4        1.0  0.19951717629621873  0.020561588658246397  0.5431697340640155  1.0000
  O   O5        1.0  0.17095342115418793  0.6642777370863158  0.12770746505884029  1.0000
  O   O6        1.0  0.9626196592736561  0.835709810770773  0.3722545003279405  1.0000
  O   O7        1.0  0.829049732070672  0.33572312715359226  0.8722931009664946  1.0000
  O   O8        1.0  0.037385905909360494  0.1642900443431543  0.6277466053489105  1.0000
