data_image0
_chemical_formula_structural       Al4H40C76I8N4O20
_chemical_formula_sum              "Al4 H40 C76 I8 N4 O20"
_cell_length_a       6.6376343512423395
_cell_length_b       25.736220923606567
_cell_length_c       28.5227796939635
_cell_angle_alpha    90.35459594962863
_cell_angle_beta     90.43323342041204
_cell_angle_gamma    88.48925167033343

_space_group_name_H-M_alt    "P 1"
_space_group_IT_number       1

loop_
  _space_group_symop_operation_xyz
  'x, y, z'

loop_
  _atom_site_type_symbol
  _atom_site_label
  _atom_site_symmetry_multiplicity
  _atom_site_fract_x
  _atom_site_fract_y
  _atom_site_fract_z
  _atom_site_occupancy
  Al  Al1       1.0  0.7708810239967011  0.7485266190071441  0.7468595046320771  1.0000
  Al  Al2       1.0  0.22911634132410802  0.25147440180256103  0.25314217384341475  1.0000
  Al  Al3       1.0  0.27099186822881904  0.7469199759650564  0.7456751344574  1.0000
  Al  Al4       1.0  0.7290084047758683  0.2530825908967316  0.2543258531133006  1.0000
  H   H1        1.0  0.6948002781639957  0.6504508342844417  0.6376175084501411  1.0000
  H   H2        1.0  0.3052121040362508  0.3495509287918495  0.3623841967894634  1.0000
  H   H3        1.0  0.3325504822217836  0.5692505939361752  0.5779179960185985  1.0000
  H   H4        1.0  0.6674513693280986  0.43075079755983126  0.4220805356145333  1.0000
  H   H5        1.0  0.3396402930942486  0.634823459992646  0.6437191626422558  1.0000
  H   H6        1.0  0.6603676679807009  0.3651767547339659  0.3562807768840272  1.0000
  H   H7        1.0  0.7532001205328883  0.6755106514699064  0.8742918335086285  1.0000
  H   H8        1.0  0.246790033308848  0.3244857318218877  0.12571367309463  1.0000
  H   H9        1.0  0.15070439488124518  0.4732199896515894  0.9239921301763798  1.0000
  H   H10       1.0  0.8493144542362784  0.5267751484590802  0.07600815889870198  1.0000
  H   H11       1.0  0.2415951270676473  0.053569731160088514  0.39751544200036887  1.0000
  H   H12       1.0  0.7583931083863292  0.9464324676313113  0.6024823695622812  1.0000
  H   H13       1.0  0.234513076673089  0.12180563210322501  0.33547037085796205  1.0000
  H   H14       1.0  0.7654763641507429  0.8782012373274881  0.6645316668249917  1.0000
  H   H15       1.0  0.20208707567532264  0.060452839320639405  0.4957196412451096  1.0000
  H   H16       1.0  0.797904463998897  0.9395450802588385  0.5042795624139699  1.0000
  H   H17       1.0  0.7636118347408853  0.1129484784719637  0.052423932679410284  1.0000
  H   H18       1.0  0.2363838905663514  0.8870544867726693  0.9475766984584053  1.0000
  H   H19       1.0  0.20412081031941653  0.0545989144296897  0.10371845938191628  1.0000
  H   H20       1.0  0.795877981846907  0.9454032672592091  0.89628252441301  1.0000
  H   H21       1.0  0.21133498272599383  0.11966520021422157  0.16791539706357375  1.0000
  H   H22       1.0  0.7886744936592579  0.8803350184692745  0.832087700285555  1.0000
  H   H23       1.0  0.34500823163968164  0.979637528998396  0.0763846725363067  1.0000
  H   H24       1.0  0.6549920385616801  0.0203650353744536  0.9236152632272975  1.0000
  H   H25       1.0  0.35873186429222403  0.9132898647669947  0.014224136696817899  1.0000
  H   H26       1.0  0.6412622982529472  0.08671387803454418  0.9857750923783611  1.0000
  H   H27       1.0  0.1372028546972714  0.4102607423226202  0.9882322112805679  1.0000
  H   H28       1.0  0.8628191115344138  0.5897328332074423  0.011767726498504797  1.0000
  H   H29       1.0  0.20517452906216255  0.9866392356748364  0.5513058179013655  1.0000
  H   H30       1.0  0.7948184914504068  0.0133590690775307  0.44869338953348137  1.0000
  H   H31       1.0  0.6865681268468934  0.5853645619657968  0.5715301963649038  1.0000
  H   H32       1.0  0.31343069511917326  0.41463723435887795  0.4284721884652852  1.0000
  H   H33       1.0  0.7348841863386114  0.6143667183227421  0.9408731582856971  1.0000
  H   H34       1.0  0.2651271143629686  0.38562883680557997  0.05913167798644989  1.0000
  H   H35       1.0  0.2968990705931206  0.5425238194243747  0.8968653975231219  1.0000
  H   H36       1.0  0.703101528135143  0.4574736829461229  0.1031306637499156  1.0000
  H   H37       1.0  0.5281022092757865  0.6839502321162525  0.7662726430430382  1.0000
  H   H38       1.0  0.47189510298661475  0.31605156522939376  0.23372868757848403  1.0000
  H   H39       1.0  0.021651803981669097  0.809491089029166  0.7691202064613234  1.0000
  H   H40       1.0  0.9783455064118557  0.1905107066571929  0.23088042295547231  1.0000
  C   C1        1.0  0.5122806907496341  0.8045526334451623  0.679307492855507  1.0000
  C   C2        1.0  0.48768801833717396  0.19544884356508166  0.3206944919666767  1.0000
  C   C3        1.0  0.5151949534311556  0.8116513440068118  0.8106751301302635  1.0000
  C   C4        1.0  0.48479183752529315  0.18835009005498188  0.18932653290841728  1.0000
  C   C5        1.0  0.030591135963120998  0.6840870421719459  0.8098964244764915  1.0000
  C   C6        1.0  0.9693912646022156  0.31591245900560233  0.19010522448648703  1.0000
  C   C7        1.0  0.021248191510316903  0.683852660040266  0.6842301906266712  1.0000
  C   C8        1.0  0.9787612541407499  0.3161479431778033  0.315771155084839  1.0000
  C   C9        1.0  0.8330519042937538  0.6322632038969476  0.6242291640337925  1.0000
  C   C10       1.0  0.16695603539141501  0.3677374036606622  0.3757725298785032  1.0000
  C   C11       1.0  0.8284532592350616  0.5963123977667735  0.587734533668815  1.0000
  C   C12       1.0  0.17154555899323753  0.4036893952393328  0.4122664487519215  1.0000
  C   C13       1.0  0.009057074652467611  0.5732404992245819  0.5711788466483867  1.0000
  C   C14       1.0  0.9909388330886416  0.4267597452405169  0.4288217748700517  1.0000
  C   C15       1.0  0.1941704915503024  0.5872854078741483  0.5913062792612322  1.0000
  C   C16       1.0  0.8058298577714426  0.41271599127998115  0.40869400298214487  1.0000
  C   C17       1.0  0.19806793656315597  0.6234189993754312  0.627659511707776  1.0000
  C   C18       1.0  0.8019369623249092  0.376582003055134  0.3723418281732122  1.0000
  C   C19       1.0  0.017713283612771115  0.6458364917607324  0.6445845273028183  1.0000
  C   C20       1.0  0.9822916171441777  0.3541645123291204  0.35541751378290337  1.0000
  C   C21       1.0  0.995723635499836  0.4656356259475202  0.46678514524788267  1.0000
  C   C22       1.0  0.004272244310406803  0.5343650055410764  0.533214776440019  1.0000
  C   C23       1.0  0.8735027427994455  0.6466141390350374  0.8802279871346312  1.0000
  C   C24       1.0  0.1264948114963218  0.35338416680264106  0.11977613593802519  1.0000
  C   C25       1.0  0.864297861326328  0.6124518773230463  0.9175501671000104  1.0000
  C   C26       1.0  0.1357119287371447  0.38754367799660366  0.08245326436110638  1.0000
  C   C27       1.0  0.016445383499615208  0.5741140467623467  0.9241922539696146  1.0000
  C   C28       1.0  0.9835658808611286  0.42588188792269227  0.07580872705073459  1.0000
  C   C29       1.0  0.17656606197368066  0.5716811467944894  0.8922315645462077  1.0000
  C   C30       1.0  0.8234361013855392  0.42831557967838313  0.10776659999419279  1.0000
  C   C31       1.0  0.18569729925982872  0.6061966362164455  0.8548257087024493  1.0000
  C   C32       1.0  0.8142956691287822  0.3938024459015068  0.14517350148079794  1.0000
  C   C33       1.0  0.03411467027485321  0.6448001176629459  0.8482910548326712  1.0000
  C   C34       1.0  0.9658782497275594  0.3551997451391529  0.15170956050842213  1.0000
  C   C35       1.0  0.08717369523950681  0.4854767733123991  0.9575639866823379  1.0000
  C   C36       1.0  0.9128466868403393  0.5145179726055745  0.04243630342011779  1.0000
  C   C37       1.0  0.07924386328002701  0.4498281272810446  0.9938814872604451  1.0000
  C   C38       1.0  0.9207779977692921  0.5501670021505374  0.006118105413058598  1.0000
  C   C39       1.0  0.9917085359128635  0.4635592154327597  0.037118398493070984  1.0000
  C   C40       1.0  0.008308782111221512  0.5364363165298869  0.9628825907593705  1.0000
  C   C41       1.0  0.6269000415673817  0.1651616118729393  0.4011417902980128  1.0000
  C   C42       1.0  0.3731080526207934  0.8348366619286481  0.5988591941643759  1.0000
  C   C43       1.0  0.6281133015812729  0.12700894221478623  0.4363937414962108  1.0000
  C   C44       1.0  0.3718888385192897  0.8729881754298033  0.5636054762254759  1.0000
  C   C45       1.0  0.4940673648593759  0.08531857221341001  0.43441925497413075  1.0000
  C   C46       1.0  0.5059271625535402  0.9146797290290609  0.5655799548622866  1.0000
  C   C47       1.0  0.34930956318603273  0.08485025653951787  0.3983667889575954  1.0000
  C   C48       1.0  0.6506832497651303  0.9151511585048198  0.6016327800731955  1.0000
  C   C49       1.0  0.3460549219047948  0.12241793520647087  0.36367775506356986  1.0000
  C   C50       1.0  0.6539361793879408  0.8775865961286656  0.6363232249686843  1.0000
  C   C51       1.0  0.48898234187068823  0.161543232738488  0.3633316115716099  1.0000
  C   C52       1.0  0.5110194399032153  0.8384593322726842  0.6366700796053877  1.0000
  C   C53       1.0  0.33245361863745876  0.0337682683999745  0.49743318562345  1.0000
  C   C54       1.0  0.6675409041032481  0.9662300286942769  0.5025642712011518  1.0000
  C   C55       1.0  0.3342919760992658  0.9923373701887285  0.528646771512406  1.0000
  C   C56       1.0  0.6657010937339437  0.007660154709128602  0.4713513813669578  1.0000
  C   C57       1.0  0.5014211915914971  0.9579662503469494  0.5314324909586289  1.0000
  C   C58       1.0  0.4985718773072777  0.04203127372126401  0.46856531131837176  1.0000
  C   C59       1.0  0.6430790595529955  0.1510676823539114  0.11357880598730927  1.0000
  C   C60       1.0  0.35691825177497094  0.8489341141620913  0.8864221740318496  1.0000
  C   C61       1.0  0.6410819883054729  0.1140678883450832  0.07763215628538936  1.0000
  C   C62       1.0  0.3589167238060254  0.8859354577328986  0.9223681304274078  1.0000
  C   C63       1.0  0.48694724805092454  0.07787849256602901  0.07378980885798819  1.0000
  C   C64       1.0  0.51304998322221  0.9221244683390637  0.9262104740790347  1.0000
  C   C65       1.0  0.3305544582503259  0.0806396870972463  0.10675827332104859  1.0000
  C   C66       1.0  0.6694488825478829  0.9193620970384445  0.8932434175091258  1.0000
  C   C67       1.0  0.3333185254596742  0.11734172195088627  0.1426076009814707  1.0000
  C   C68       1.0  0.666686403228141  0.882658895115462  0.8573951399347732  1.0000
  C   C69       1.0  0.4903406238019201  0.1526742217670787  0.14765470470662478  1.0000
  C   C70       1.0  0.5096657317314026  0.8473275561784489  0.852347341529061  1.0000
  C   C71       1.0  0.4106551202431917  0.9891322847850148  0.04266825907384229  1.0000
  C   C72       1.0  0.5893405761987439  0.010871066653479  0.9573313216310806  1.0000
  C   C73       1.0  0.4185323995100418  0.9515613128705457  0.0074610868369262996  1.0000
  C   C74       1.0  0.581461790031554  0.0484420420778449  0.992538491466426  1.0000
  C   C75       1.0  0.5077886931520439  0.9615937933039262  0.9639691852518621  1.0000
  C   C76       1.0  0.4922040174200788  0.038409178130862594  0.03603109048044219  1.0000
  I   I1        1.0  0.8101225587965147  0.2303396894059233  0.40789449992644217  1.0000
  I   I2        1.0  0.18990839297548942  0.7696546391117424  0.5921040526010088  1.0000
  I   I3        1.0  0.8195674851616063  0.13249262916333038  0.4957001394929747  1.0000
  I   I4        1.0  0.18043021616163915  0.8675033362811675  0.5043004693108556  1.0000
  I   I5        1.0  0.8767158983488343  0.2049710708935919  0.10975686662371938  1.0000
  I   I6        1.0  0.1232904832464712  0.7950303183691503  0.8902451782377624  1.0000
  I   I7        1.0  0.4276677737913559  0.5917915885281816  0.808196232524544  1.0000
  I   I8        1.0  0.5723100631910398  0.4082082969282724  0.19179909976537593  1.0000
  N   N1        1.0  0.18168943516845812  0.5120086824669698  0.5195276061361724  1.0000
  N   N2        1.0  0.8183079254801484  0.48799233419452287  0.48047231932749657  1.0000
  N   N3        1.0  0.17735330482101833  0.4770647412592481  0.485728603985194  1.0000
  N   N4        1.0  0.8226425489272488  0.522936278912141  0.5142713190769114  1.0000
  O   O1        1.0  0.3475250834834612  0.7985247360745407  0.7929563949106676  1.0000
  O   O2        1.0  0.65248114080552  0.20147898445529933  0.20704530759363846  1.0000
  O   O3        1.0  0.6834251063746349  0.7944389271259027  0.6979281043421109  1.0000
  O   O4        1.0  0.31659180119883246  0.20556282956890476  0.3020753611140278  1.0000
  O   O5        1.0  0.851623774041272  0.7004356802776002  0.6994142515639934  1.0000
  O   O6        1.0  0.14836914876445917  0.29956418501343046  0.3005874155841893  1.0000
  O   O7        1.0  0.6890848937210877  0.7984121823257979  0.795227472865015  1.0000
  O   O8        1.0  0.31092148320201574  0.2015892027887247  0.20477281898465083  1.0000
  O   O9        1.0  0.8569535009572248  0.6998084663071538  0.7957335902805197  1.0000
  O   O10       1.0  0.14304248683871634  0.300190613768855  0.20426772832004755  1.0000
  O   O11       1.0  0.34385336732816546  0.7909770387616673  0.69534953257709  1.0000
  O   O12       1.0  0.6561618955595279  0.20902665821984104  0.3046511325295569  1.0000
  O   O13       1.0  0.525063719157764  0.7165359189246346  0.7490371486548779  1.0000
  O   O14       1.0  0.47493057836952357  0.283465884611168  0.25096382656113997  1.0000
  O   O15       1.0  0.19896235241809987  0.6992002061218728  0.7950273869768193  1.0000
  O   O16       1.0  0.8010305154603472  0.3008004340458116  0.20497323111266744  1.0000
  O   O17       1.0  0.19237002597670033  0.6965738667935  0.7003991300873977  1.0000
  O   O18       1.0  0.8076213108083081  0.303427167226161  0.299602188179442  1.0000
  O   O19       1.0  0.01912562326504031  0.7798782073830424  0.7479064975714136  1.0000
  O   O20       1.0  0.9808747539875712  0.22012280474757517  0.2520944845024928  1.0000
