data_image0
_chemical_formula_structural       Zn2H8C4N16O4
_chemical_formula_sum              "Zn2 H8 C4 N16 O4"
_cell_length_a       7.509135961111747
_cell_length_b       7.509161557495652
_cell_length_c       7.77814411179122
_cell_angle_alpha    63.178275299866726
_cell_angle_beta     63.178383875948555
_cell_angle_gamma    86.61100391298412

_space_group_name_H-M_alt    "P 1"
_space_group_IT_number       1

loop_
  _space_group_symop_operation_xyz
  'x, y, z'

loop_
  _atom_site_type_symbol
  _atom_site_label
  _atom_site_symmetry_multiplicity
  _atom_site_fract_x
  _atom_site_fract_y
  _atom_site_fract_z
  _atom_site_occupancy
  Zn  Zn1       1.0  0.29069770707036474  0.7093036415664927  0.7499993000652553  1.0000
  Zn  Zn2       1.0  0.7093041636159682  0.2906977045035362  0.24999703029696724  1.0000
  H   H1        1.0  0.40281851685531933  0.703887003996556  0.3624896146939634  1.0000
  H   H2        1.0  0.29611122282211255  0.5971820379999571  0.1375067988315807  1.0000
  H   H3        1.0  0.5971803758341069  0.2961143768491894  0.6375079922028423  1.0000
  H   H4        1.0  0.7038894472271123  0.4028208387840451  0.8624906740286068  1.0000
  H   H5        1.0  0.15679089874036117  0.6932105668415646  0.4838645357386471  1.0000
  H   H6        1.0  0.3067886820282908  0.8432084190374314  0.016135474315632295  1.0000
  H   H7        1.0  0.8432071168745169  0.3067862620282966  0.5161354258541098  1.0000
  H   H8        1.0  0.6932119880209413  0.156794457746571  0.9838619985445478  1.0000
  C   C1        1.0  0.9161062061328379  0.919814100612328  0.34210515793054713  1.0000
  C   C2        1.0  0.08019085604554017  0.08389496159915671  0.15789494613046173  1.0000
  C   C3        1.0  0.08389564856616968  0.08018722946098218  0.6578963289489723  1.0000
  C   C4        1.0  0.9198089169449871  0.9161033432130522  0.8421113270722959  1.0000
  N   N1        1.0  0.6124284710146951  0.7735386879989219  0.5812056441110021  1.0000
  N   N2        1.0  0.22646473970144854  0.38757352448170934  0.9187934463918878  1.0000
  N   N3        1.0  0.3875731073134503  0.22646114074581183  0.41879147114988063  1.0000
  N   N4        1.0  0.7735341489911389  0.6124278523648529  0.08120544963423275  1.0000
  N   N5        1.0  0.7326750062457207  0.6438714966749901  0.6251755527217997  1.0000
  N   N6        1.0  0.3561289677599362  0.26732083879059587  0.8748304375250843  1.0000
  N   N7        1.0  0.2673250750903123  0.35612834145923966  0.3748247790650155  1.0000
  N   N8        1.0  0.6438714139279397  0.7326805246672876  0.12516653110443357  1.0000
  N   N9        1.0  0.7232240681947602  0.9491170931202575  0.40396950495828315  1.0000
  N   N10       1.0  0.0508758718949878  0.276779941819072  0.09602909078589054  1.0000
  N   N11       1.0  0.2767786987799994  0.05088119291296069  0.5960303351926088  1.0000
  N   N12       1.0  0.9491224240875837  0.7232183923785415  0.9039739532961875  1.0000
  N   N13       1.0  0.9254028459997414  0.7324853965066181  0.4764730522302047  1.0000
  N   N14       1.0  0.2675093292820492  0.0745939367617012  0.023529829554938417  1.0000
  N   N15       1.0  0.07459544998283006  0.26751293769099493  0.5235299918518737  1.0000
  N   N16       1.0  0.732493433695872  0.9254043452723268  0.976471299725276  1.0000
  O   O1        1.0  0.2867853722316127  0.718609155075072  0.4818586841042818  1.0000
  O   O2        1.0  0.2813853411232117  0.7132177233468157  0.01814319162800614  1.0000
  O   O3        1.0  0.7132144207430714  0.2813891697330392  0.5181411434518639  1.0000
  O   O4        1.0  0.7186138399275636  0.2867851708250484  0.9818549194994692  1.0000
