data_image0
_chemical_formula_structural       Al6H48C88O28
_chemical_formula_sum              "Al6 H48 C88 O28"
_cell_length_a       12.80366347761541
_cell_length_b       12.667259089062664
_cell_length_c       28.66523436582505
_cell_angle_alpha    89.89658277595545
_cell_angle_beta     89.88143246280602
_cell_angle_gamma    60.88967329508132

_space_group_name_H-M_alt    "P 1"
_space_group_IT_number       1

loop_
  _space_group_symop_operation_xyz
  'x, y, z'

loop_
  _atom_site_type_symbol
  _atom_site_label
  _atom_site_symmetry_multiplicity
  _atom_site_fract_x
  _atom_site_fract_y
  _atom_site_fract_z
  _atom_site_occupancy
  Al  Al1       1.0  0.40955371128291074  0.41232876602589397  0.49891636899010894  1.0000
  Al  Al2       1.0  0.42351712737771413  0.6583636210612341  0.5006168483329388  1.0000
  Al  Al3       1.0  0.6550043300839336  0.424657911606815  0.500527074331103  1.0000
  Al  Al4       1.0  0.9216725433692262  0.9197604700545912  0.9998611582968663  1.0000
  Al  Al5       1.0  0.6752327398949518  0.9099622818175704  0.9994655682567027  1.0000
  Al  Al6       1.0  0.9053996223785391  0.6749647583907076  0.9990897333087005  1.0000
  H   H1        1.0  0.4701207701435308  0.7931634900541057  0.779733392158718  1.0000
  H   H2        1.0  0.4780268286725827  0.20928053469558713  0.7067797941498384  1.0000
  H   H3        1.0  0.17257750633437752  0.521894005548951  0.7003033815486857  1.0000
  H   H4        1.0  0.13495645405406986  0.5192690995087972  0.7852609072595412  1.0000
  H   H5        1.0  0.1664899330013796  0.839894778236726  0.8025371354485953  1.0000
  H   H6        1.0  0.7732599482854356  0.47028973861979056  0.28852401718894066  1.0000
  H   H7        1.0  0.7879168503883707  0.4860155544441441  0.20239560903715403  1.0000
  H   H8        1.0  0.54885542683148  0.8703799950611358  0.2100736562449868  1.0000
  H   H9        1.0  0.5340220660037787  0.8546188353614782  0.2961672748856472  1.0000
  H   H10       1.0  0.69242189235014  0.0025678058511005744  0.3076649359246345  1.0000
  H   H11       1.0  0.5950074673029917  0.8556361789060819  0.7127000945534617  1.0000
  H   H12       1.0  0.6960529334385726  0.9653505701494753  0.22233678616024113  1.0000
  H   H13       1.0  0.6638355202212979  0.31492558056643105  0.19461923290284486  1.0000
  H   H14       1.0  0.6598767712294773  0.3522582642804864  0.2799674424430235  1.0000
  H   H15       1.0  0.06381296515479562  0.8575002439638695  0.2973582493473401  1.0000
  H   H16       1.0  0.019779201342977604  0.8629451755750782  0.21223769962026037  1.0000
  H   H17       1.0  0.24671918871763412  0.4771381375731282  0.20518226487690328  1.0000
  H   H18       1.0  0.7500023251710034  0.45955871995808933  0.7872126149071831  1.0000
  H   H19       1.0  0.8038345607771619  0.7413171420067924  0.7682734392048545  1.0000
  H   H20       1.0  0.8197676298373652  0.17344751966611233  0.8005902522283747  1.0000
  H   H21       1.0  0.48524461425481763  0.1711386189297173  0.7928406388602268  1.0000
  H   H22       1.0  0.28474465531896703  0.8339992391050401  0.643993996540189  1.0000
  H   H23       1.0  0.1277754444613066  0.9221219982078138  0.6497519468477861  1.0000
  H   H24       1.0  0.22052370244396974  0.986835286217321  0.6618115682132029  1.0000
  H   H25       1.0  0.16451127595306764  0.9505780974757486  0.7371319118846102  1.0000
  H   H26       1.0  0.31366526944282924  0.8415441087013706  0.7289622258019717  1.0000
  H   H27       1.0  0.28240918504207724  0.31336758568744477  0.2562408492388143  1.0000
  H   H28       1.0  0.4109085499548115  0.3219575527459852  0.23799661180973428  1.0000
  H   H29       1.0  0.4157165436737884  0.24335394612362657  0.28974950349879686  1.0000
  H   H30       1.0  0.39568766166168257  0.44348860246471855  0.310014102492559  1.0000
  H   H31       1.0  0.2734906198899623  0.4312576489090034  0.3298568178353491  1.0000
  H   H32       1.0  0.5499795719223927  0.456581115261763  0.7944379618880291  1.0000
  H   H33       1.0  0.42452201897025793  0.6041327526789787  0.7952667561001476  1.0000
  H   H34       1.0  0.4169394833685516  0.4865616954752736  0.7647606986661157  1.0000
  H   H35       1.0  0.4468189354472116  0.6182208196517395  0.7070257214924067  1.0000
  H   H36       1.0  0.5736677002713436  0.47375885143080865  0.707868743421237  1.0000
  H   H37       1.0  0.9687215206596991  0.4456390154929509  0.7903354165112901  1.0000
  H   H38       1.0  0.17674746727142582  0.29808610342272607  0.768729136584227  1.0000
  H   H39       1.0  0.23715220894376196  0.26215088809075854  0.6847851748367046  1.0000
  H   H40       1.0  0.08723232056058812  0.376623566928231  0.6231254693432006  1.0000
  H   H41       1.0  0.878948777524471  0.5235651132452263  0.6447985391213322  1.0000
  H   H42       1.0  0.9270835124947538  0.2514781659964174  0.766570644393127  1.0000
  H   H43       1.0  0.9901441755097196  0.0969019659442979  0.7511195782577145  1.0000
  H   H44       1.0  0.016689124457187204  0.19770551021920113  0.7160727305136304  1.0000
  H   H45       1.0  0.8677335121421236  0.15998384857856973  0.6758917731038989  1.0000
  H   H46       1.0  0.8014687608697529  0.3102653877707342  0.6934445842139425  1.0000
  H   H47       1.0  0.3235094424301082  0.2984330575762967  0.5264033928380485  1.0000
  H   H48       1.0  0.016498953767971596  0.0232402623118375  0.029591183327987394  1.0000
  C   C1        1.0  0.28823083816489975  0.6204652019889851  0.567098276323577  1.0000
  C   C2        1.0  0.6377961980937387  0.6321520606769795  0.6118536138589263  1.0000
  C   C3        1.0  0.7444548165374203  0.7046893727204165  0.759861180882794  1.0000
  C   C4        1.0  0.6754925501761662  0.6699958564107291  0.7978127880442258  1.0000
  C   C5        1.0  0.7854032786495182  0.5810947377734266  0.7336805791867531  1.0000
  C   C6        1.0  0.6685287686436611  0.6462686379291755  0.7020498923728267  1.0000
  C   C7        1.0  0.7150582941152592  0.5481534978075474  0.7705717791057224  1.0000
  C   C8        1.0  0.5993352848376574  0.6103417438712172  0.7402881812913547  1.0000
  C   C9        1.0  0.6832149994004553  0.6844689239585974  0.8464038945725676  1.0000
  C   C10       1.0  0.6549439004627333  0.6377220916304298  0.6534921336275872  1.0000
  C   C11       1.0  0.6354184791866899  0.24941441552350344  0.6149609244760796  1.0000
  C   C12       1.0  0.6110635625505907  0.6117254917886187  0.5652944536707096  1.0000
  C   C13       1.0  0.7432081583470026  0.2036561440573549  0.731640769132319  1.0000
  C   C14       1.0  0.7454006421330064  0.18247413494585638  0.7793609428039401  1.0000
  C   C15       1.0  0.5559584825230885  0.18057256120819426  0.7754216112458323  1.0000
  C   C16       1.0  0.5523456094529989  0.20125959241293873  0.7278354839834262  1.0000
  C   C17       1.0  0.6451227160353242  0.21191083680053416  0.7055111906404006  1.0000
  C   C18       1.0  0.653702922546273  0.1697352289205654  0.8016409884604626  1.0000
  C   C19       1.0  0.6644218013796036  0.14044153964161415  0.84957404447492  1.0000
  C   C20       1.0  0.639731101799228  0.23160212944594596  0.656888899484315  1.0000
  C   C21       1.0  0.6806679437774505  0.1088766760974592  0.8902729942494431  1.0000
  C   C22       1.0  0.24099527809676868  0.6497782612777172  0.6135270884146847  1.0000
  C   C23       1.0  0.6140579463436282  0.2916640295536935  0.5676479910157893  1.0000
  C   C24       1.0  0.17151871566954216  0.5910213094829188  0.7231552886657795  1.0000
  C   C25       1.0  0.15040089244806862  0.5893993264542204  0.7703160111149358  1.0000
  C   C26       1.0  0.16858783575967357  0.7702137079223237  0.7795930825668265  1.0000
  C   C27       1.0  0.19282293291525585  0.7724872065856803  0.7321152104051831  1.0000
  C   C28       1.0  0.1932009483805004  0.6811139819045166  0.7033168909242916  1.0000
  C   C29       1.0  0.14800361324125796  0.6802679315137682  0.799307696023611  1.0000
  C   C30       1.0  0.1227221365019915  0.6817266058548271  0.8473651174796684  1.0000
  C   C31       1.0  0.2182199159511953  0.6701005364127185  0.6549181480022028  1.0000
  C   C32       1.0  0.09727728188232733  0.6839060649779752  0.8884490572068842  1.0000
  C   C33       1.0  0.6317595462636235  0.6387498139151264  0.3886087308686966  1.0000
  C   C34       1.0  0.2873246726478413  0.6235662924904233  0.4337114387943259  1.0000
  C   C35       1.0  0.7240317474677556  0.5574389671530255  0.271097810789378  1.0000
  C   C36       1.0  0.7322104548091775  0.5661436531280941  0.22311239772463404  1.0000
  C   C37       1.0  0.5977491985179385  0.783122178889798  0.22745710768630534  1.0000
  C   C38       1.0  0.5895827843689149  0.7743960857331019  0.2754690146448694  1.0000
  C   C39       1.0  0.6523180220632483  0.6613484449075387  0.29808835450578636  1.0000
  C   C40       1.0  0.669166085146344  0.6791473740526045  0.20046438608701317  1.0000
  C   C41       1.0  0.6800362087409583  0.688555087281145  0.151631856688212  1.0000
  C   C42       1.0  0.6417895460591581  0.6507459155983784  0.3468656854840475  1.0000
  C   C43       1.0  0.6924573342631604  0.6968558830239074  0.10981318283753438  1.0000
  C   C44       1.0  0.6553562464414853  0.2320190440745621  0.3888820580745075  1.0000
  C   C45       1.0  0.6092928709643176  0.6124251295565982  0.4351337151889679  1.0000
  C   C46       1.0  0.686603304800478  0.0703360697404206  0.2827629661831352  1.0000
  C   C47       1.0  0.6881369097709752  0.04985436931292502  0.2351908556210915  1.0000
  C   C48       1.0  0.6703892361179058  0.2468853935079521  0.21953939454181173  1.0000
  C   C49       1.0  0.6687143089566874  0.2674009423162219  0.26709709629970746  1.0000
  C   C50       1.0  0.6761446481995108  0.17976676728631702  0.2994094574501389  1.0000
  C   C51       1.0  0.6795638235616793  0.13798661950510646  0.20287624544653937  1.0000
  C   C52       1.0  0.6817343423404694  0.11566603459512238  0.1545037979869761  1.0000
  C   C53       1.0  0.6678823065353683  0.2050823886337272  0.34770055096199565  1.0000
  C   C54       1.0  0.6858338703478069  0.09326919525587139  0.11303489703005448  1.0000
  C   C55       1.0  0.23523049784609643  0.6527581627918836  0.38800476100156084  1.0000
  C   C56       1.0  0.6224001390796232  0.28482102580562707  0.4346195648906175  1.0000
  C   C57       1.0  0.10350141296898842  0.7747197723243816  0.2767952454405389  1.0000
  C   C58       1.0  0.07890138894751432  0.7779228393069175  0.22960083223535577  1.0000
  C   C59       1.0  0.2077152359750869  0.5594267766853066  0.2259811002060061  1.0000
  C   C60       1.0  0.23402328944538917  0.5542977975535736  0.2733108368745008  1.0000
  C   C61       1.0  0.1805552877642285  0.6644672522399874  0.29901282563526616  1.0000
  C   C62       1.0  0.13142299696959012  0.669697908647976  0.2036081115290145  1.0000
  C   C63       1.0  0.10726641106231231  0.6733068581886814  0.15534556759983784  1.0000
  C   C64       1.0  0.20711481112080324  0.6618657724134496  0.3469736723628642  1.0000
  C   C65       1.0  0.08400257812454022  0.6816862045723585  0.11384153460771528  1.0000
  C   C66       1.0  0.7150539511085798  0.05008012486359088  0.9348264719473035  1.0000
  C   C67       1.0  0.6288674535393781  0.7677988687545682  0.7297706903800004  1.0000
  C   C68       1.0  0.71557291431305  0.7266343570930476  0.9340249251541123  1.0000
  C   C69       1.0  0.0453161697655702  0.707976442207155  0.9342518390241565  1.0000
  C   C70       1.0  0.7095763691622423  0.045813266988460714  0.0663220665661939  1.0000
  C   C71       1.0  0.7198906933729746  0.718375776224285  0.0633215258342474  1.0000
  C   C72       1.0  0.0376432630726953  0.7121760131278878  0.0672990468044574  1.0000
  C   C73       1.0  0.5598022784830547  0.7331511467988745  0.7661872674474706  1.0000
  C   C74       1.0  0.6923605598643832  0.6991469416923338  0.8879663264150892  1.0000
  C   C75       1.0  0.22224068555550502  0.8694525781101415  0.7165682890402323  1.0000
  C   C76       1.0  0.21337022301766956  0.9041519883969542  0.6650977876521295  1.0000
  C   C77       1.0  0.3172251207663237  0.4373694734823276  0.29758948076694475  1.0000
  C   C78       1.0  0.3585291875631924  0.32306241412997855  0.2686118896045144  1.0000
  C   C79       1.0  0.5218671835789409  0.5554944644905362  0.7291397612513818  1.0000
  C   C80       1.0  0.4757913636324532  0.524001913305959  0.7733700370064296  1.0000
  C   C81       1.0  0.9092782908108108  0.49548619385026166  0.7190375239754018  1.0000
  C   C82       1.0  0.9947424759515187  0.4309699924162658  0.7535864976781708  1.0000
  C   C83       1.0  0.11183564183304642  0.3477789472256633  0.7414277048437865  1.0000
  C   C84       1.0  0.14565467667249982  0.32749812103162407  0.6944365976532864  1.0000
  C   C85       1.0  0.061577827185828896  0.39144081927130264  0.6598314208772535  1.0000
  C   C86       1.0  0.9441732623095265  0.4749742123705047  0.6720357490222566  1.0000
  C   C87       1.0  0.8404616443991845  0.21733386068737565  0.7072982594796996  1.0000
  C   C88       1.0  0.949390255007103  0.18915858247956416  0.7369824004986751  1.0000
  O   O1        1.0  0.5178053476528603  0.3084634541443165  0.5490147012990716  1.0000
  O   O2        1.0  0.5128861387718473  0.6902939336376193  0.45509641257041966  1.0000
  O   O3        1.0  0.6847937205718964  0.5099480761501454  0.4521810589009903  1.0000
  O   O4        1.0  0.7002425525126981  0.30350899971222123  0.4562718884329726  1.0000
  O   O5        1.0  0.49743335897503027  0.49904034235385103  0.5002947008994241  1.0000
  O   O6        1.0  0.027525779325507902  0.8050050852607386  0.9533341651176526  1.0000
  O   O7        1.0  0.820854482324137  0.015809078303419686  0.94787758160885  1.0000
  O   O8        1.0  0.6358408857529625  0.03362041608272652  0.9567236322926999  1.0000
  O   O9        1.0  0.6416880803648582  0.8305398720693163  0.950674553467202  1.0000
  O   O10       1.0  0.8110717722007198  0.6482194047637151  0.9542769995395233  1.0000
  O   O11       1.0  0.016600304364402504  0.6308085675048504  0.951110269927234  1.0000
  O   O12       1.0  0.3116336510992141  0.5186479461587654  0.550891144849011  1.0000
  O   O13       1.0  0.009755434783272702  0.8174806651341201  0.05353109047502609  1.0000
  O   O14       1.0  0.805127612647219  0.029971907962476483  0.047407508996442985  1.0000
  O   O15       1.0  0.6329883157147408  0.01858466258858731  0.04883199421498569  1.0000
  O   O16       1.0  0.6435154296061399  0.815391625463505  0.0430862521148612  1.0000
  O   O17       1.0  0.8217950591534232  0.6416641921806276  0.04671688396306449  1.0000
  O   O18       1.0  0.024026858283654907  0.6324627636423161  0.0440228548508728  1.0000
  O   O19       1.0  0.8326894438219768  0.834176681772128  0.9997692436021877  1.0000
  O   O20       1.0  0.3072204853924703  0.700397050562657  0.5463396259847072  1.0000
  O   O21       1.0  0.5099005973228401  0.6883492565385012  0.5481311408825817  1.0000
  O   O22       1.0  0.6882915545854688  0.514943761498529  0.5448465872921702  1.0000
  O   O23       1.0  0.6933283758656614  0.3135432469506939  0.5488980117151525  1.0000
  O   O24       1.0  0.5188886502479094  0.3127125645964526  0.448667564800374  1.0000
  O   O25       1.0  0.3110657382960014  0.5214289156028685  0.44986099778197536  1.0000
  O   O26       1.0  0.3097715515790682  0.701661717277929  0.45369338121867736  1.0000
  O   O27       1.0  0.329280651016731  0.3332301821338675  0.49712613570201813  1.0000
  O   O28       1.0  0.0033652892455365013  0.9973668347761802  0.9995135637040063  1.0000
