data_image0
_chemical_formula_structural       U2H28C18O12
_chemical_formula_sum              "U2 H28 C18 O12"
_cell_length_a       4.393114846421347
_cell_length_b       10.891214466815143
_cell_length_c       11.243076564286962
_cell_angle_alpha    94.94996608256278
_cell_angle_beta     90.00101523906999
_cell_angle_gamma    89.99869669049919

_space_group_name_H-M_alt    "P 1"
_space_group_IT_number       1

loop_
  _space_group_symop_operation_xyz
  'x, y, z'

loop_
  _atom_site_type_symbol
  _atom_site_label
  _atom_site_symmetry_multiplicity
  _atom_site_fract_x
  _atom_site_fract_y
  _atom_site_fract_z
  _atom_site_occupancy
  U   U1        1.0  0.08060051216883579  0.7500133075204899  0.4999874935727888  1.0000
  U   U2        1.0  0.9193998461160646  0.24999748012587727  0.5000057096123385  1.0000
  H   H1        1.0  0.3871686881349489  0.9315212700855399  0.8163051354614125  1.0000
  H   H2        1.0  0.3871667749596384  0.568474056487254  0.1836861413905595  1.0000
  H   H3        1.0  0.6128293943201656  0.06847659352538218  0.18369227533396779  1.0000
  H   H4        1.0  0.6128335837124084  0.4315265719180559  0.8163115109443949  1.0000
  H   H5        1.0  0.4111675941840006  0.0347417379052004  0.7073668480715297  1.0000
  H   H6        1.0  0.4111801821571177  0.46525857732422776  0.29263173452607555  1.0000
  H   H7        1.0  0.5888373171832412  0.9652552004705367  0.29263137136226186  1.0000
  H   H8        1.0  0.5888133475824519  0.5347429799205302  0.7073642200422654  1.0000
  H   H9        1.0  0.9231093933314796  0.10950560770002228  0.7909373049150403  1.0000
  H   H10       1.0  0.9231178306301189  0.39048473766817443  0.20906751077905034  1.0000
  H   H11       1.0  0.07688641287884218  0.890491330715072  0.2090609144906566  1.0000
  H   H12       1.0  0.0768825281158101  0.6095177123143785  0.7909356373467915  1.0000
  H   H13       1.0  0.8931657039541321  0.006783683313152301  0.903271912787133  1.0000
  H   H14       1.0  0.8931791792534299  0.493204174120379  0.09672803093904041  1.0000
  H   H15       1.0  0.10683237856201801  0.9932141694849859  0.09672816539283247  1.0000
  H   H16       1.0  0.10682117941111362  0.506798290279214  0.9032715606740068  1.0000
  H   H17       1.0  0.42889166800410555  0.2097746953477966  0.8625929294128625  1.0000
  H   H18       1.0  0.4289070369221903  0.29022452341396837  0.13741101684315277  1.0000
  H   H19       1.0  0.5711041382431574  0.790223153855919  0.13740803788828518  1.0000
  H   H20       1.0  0.5710978744541392  0.7097751653489436  0.8625910006359874  1.0000
  H   H21       1.0  0.41352983415547573  0.11146075403245699  0.9780352532256132  1.0000
  H   H22       1.0  0.4135275847764319  0.38853584001631697  0.021966578375135288  1.0000
  H   H23       1.0  0.5864705246868382  0.8885380095444617  0.02196757285682341  1.0000
  H   H24       1.0  0.5864750502940766  0.6114629343635443  0.9780335803297291  1.0000
  H   H25       1.0  0.917057107380032  0.3001637625512572  0.9426870783441572  1.0000
  H   H26       1.0  0.9170648104293947  0.19982572435488777  0.05731495209803229  1.0000
  H   H27       1.0  0.0829409750472294  0.6998359406582252  0.05731138260112087  1.0000
  H   H28       1.0  0.08294010086555662  0.8001739788250717  0.9426835088683205  1.0000
  C   C1        1.0  0.7099106248773311  0.8848775136015092  0.6826253816959137  1.0000
  C   C2        1.0  0.7099167269663127  0.6151269927644591  0.3173716011424688  1.0000
  C   C3        1.0  0.2900965628123302  0.11512125355015707  0.3173765552794023  1.0000
  C   C4        1.0  0.2900836317871125  0.3848736212237966  0.6826296077052731  1.0000
  C   C5        1.0  0.5527024307839595  0.9803619733339132  0.7641132420796096  1.0000
  C   C6        1.0  0.5527101953878388  0.5196365085015343  0.23588479378597063  1.0000
  C   C7        1.0  0.44729565177663494  0.019634954258556492  0.23588764471770668  1.0000
  C   C8        1.0  0.44728561076303924  0.4803650271078154  0.764116495558575  1.0000
  C   C9        1.0  0.7590848181237604  0.06289803285522308  0.8453477719920882  1.0000
  C   C10       1.0  0.7590927073580075  0.4370928269651272  0.1546515052026294  1.0000
  C   C11       1.0  0.2409132643961414  0.9370989019457666  0.15465133654883084  1.0000
  C   C12       1.0  0.24090537506550183  0.5629077942414964  0.8453479253816951  1.0000
  C   C13       1.0  0.5734661323278091  0.15859020982151859  0.9215650516334576  1.0000
  C   C14       1.0  0.5734691066403457  0.34140409073026484  0.07843501920131499  1.0000
  C   C15       1.0  0.42653422642936784  0.8414094861695955  0.07843518757523778  1.0000
  C   C16       1.0  0.4265335284542573  0.6585937620481984  0.921565058992698  1.0000
  C   C17       1.0  0.7657890168236959  0.24999861814782068  4.1102107669595183e-07  1.0000
  C   C18       1.0  0.2342113419168896  0.7500001634504085  0.9999979694203701  1.0000
  O   O1        1.0  0.07635643103917998  0.8882501519328156  0.42351975531171593  1.0000
  O   O2        1.0  0.0763927315277471  0.6117737240252835  0.5764576316038158  1.0000
  O   O3        1.0  0.9236257175819491  0.11174584331433117  0.5764837183101719  1.0000
  O   O4        1.0  0.9236076272551229  0.3882296367458907  0.4235482644174695  1.0000
  O   O5        1.0  0.9896174866933052  0.8595065894845817  0.6949336691830439  1.0000
  O   O6        1.0  0.9896216007025561  0.6404899943817169  0.305058333013875  1.0000
  O   O7        1.0  0.010378319485418798  0.1404931065262076  0.30506657001160425  1.0000
  O   O8        1.0  0.010381034388295499  0.35950877639388773  0.6949427148191916  1.0000
  O   O9        1.0  0.5698957496383771  0.8247568020771611  0.5940666406968589  1.0000
  O   O10       1.0  0.5698706325995532  0.6752637181750174  0.40591654000763805  1.0000
  O   O11       1.0  0.4301137142237721  0.17524565507455486  0.40593472920068757  1.0000
  O   O12       1.0  0.43012289715286306  0.3247396714597741  0.5940822429669907  1.0000
