data_image0
_chemical_formula_structural       P6H96Au6C132Cl3
_chemical_formula_sum              "P6 H96 Au6 C132 Cl3"
_cell_length_a       15.285299221319905
_cell_length_b       15.285545475201468
_cell_length_c       15.263564493482345
_cell_angle_alpha    92.33767476213642
_cell_angle_beta     92.33893955464936
_cell_angle_gamma    92.31049486165442

_space_group_name_H-M_alt    "P 1"
_space_group_IT_number       1

loop_
  _space_group_symop_operation_xyz
  'x, y, z'

loop_
  _atom_site_type_symbol
  _atom_site_label
  _atom_site_symmetry_multiplicity
  _atom_site_fract_x
  _atom_site_fract_y
  _atom_site_fract_z
  _atom_site_occupancy
  P   P1        1.0  0.642937899398831  0.6796513334705593  0.0222617342902964  1.0000
  P   P2        1.0  0.32035310548089774  0.35707037196738867  0.9777256875231968  1.0000
  P   P3        1.0  0.836658291639928  0.602391547034223  0.21695105583022917  1.0000
  P   P4        1.0  0.3976227032392643  0.16333973898893106  0.7830405756700214  1.0000
  P   P5        1.0  0.8813610870183625  0.925281118725252  0.5384784799489708  1.0000
  P   P6        1.0  0.07471799078526692  0.11863179161440483  0.4615395171994193  1.0000
  H   H1        1.0  0.9924995709308817  0.49479060175028167  0.8979657423776499  1.0000
  H   H2        1.0  0.5051984154250989  0.007485778366238103  0.10203185554631489  1.0000
  H   H3        1.0  0.6185422556158713  0.858784024299844  0.06819124221004098  1.0000
  H   H4        1.0  0.1411957203292076  0.38145367159174276  0.9317991205276356  1.0000
  H   H5        1.0  0.6192609510794681  0.9454201512065269  0.20786820763512986  1.0000
  H   H6        1.0  0.0545652342890932  0.38076947177469117  0.7921273560721784  1.0000
  H   H7        1.0  0.6296610001025371  0.9530110419694822  0.36919088067709527  1.0000
  H   H8        1.0  0.0469804059469112  0.37032817205111707  0.6308059844658089  1.0000
  H   H9        1.0  0.6385062991902046  0.8774202817403134  0.5117562228235498  1.0000
  H   H10       1.0  0.1225898096575193  0.36147622212152436  0.488227597469212  1.0000
  H   H11       1.0  0.6451594796332785  0.7160542568746847  0.5119388696692082  1.0000
  H   H12       1.0  0.28396691482394937  0.35477533270820055  0.4880630431863223  1.0000
  H   H13       1.0  0.650826907503216  0.6286366725159239  0.37249984604186176  1.0000
  H   H14       1.0  0.37136503953449557  0.34910314866743153  0.6275217942786709  1.0000
  H   H15       1.0  0.4873855642514542  0.6583977183594171  0.20684424629324374  1.0000
  H   H16       1.0  0.34161203328601186  0.5126234083897289  0.793149823081336  1.0000
  H   H17       1.0  0.34719458803044023  0.5733191098009627  0.21500571945514219  1.0000
  H   H18       1.0  0.42669623916593485  0.6528157886322318  0.7850122663715523  1.0000
  H   H19       1.0  0.3453876900792708  0.41248423423295577  0.22825140971691124  1.0000
  H   H20       1.0  0.5875295490605694  0.6546125548857731  0.7717802866486635  1.0000
  H   H21       1.0  0.4868820940189096  0.3352712623547801  0.2388506577149911  1.0000
  H   H22       1.0  0.664732760209006  0.5131283843928925  0.7611434452397744  1.0000
  H   H23       1.0  0.6475354753473682  0.3403606928296199  0.24682042057197853  1.0000
  H   H24       1.0  0.659626856387483  0.3524690964029204  0.7531751529363148  1.0000
  H   H25       1.0  0.7882017618204387  0.42455723689946007  0.24507701695700487  1.0000
  H   H26       1.0  0.5754359595183088  0.21181475449175477  0.7548890463943463  1.0000
  H   H27       1.0  0.7362419518602009  0.6051508743197046  0.8786617975393793  1.0000
  H   H28       1.0  0.39484344793938664  0.2637631306614168  0.12132954009323528  1.0000
  H   H29       1.0  0.8727523845243184  0.650255804417263  0.8062302384527413  1.0000
  H   H30       1.0  0.3497305394221827  0.12727118210591473  0.1937821402889597  1.0000
  H   H31       1.0  0.9608319599925892  0.7825398346531856  0.8621020414521893  1.0000
  H   H32       1.0  0.21746427603444826  0.039163535040948716  0.13788653607629436  1.0000
  H   H33       1.0  0.9115888374823982  0.8701898931008571  0.9917327612579925  1.0000
  H   H34       1.0  0.129797297235875  0.08841888816271389  0.008269231933695697  1.0000
  H   H35       1.0  0.7748062674249212  0.8268238979889518  0.06242116536485299  1.0000
  H   H36       1.0  0.17316447752406822  0.2251913714676235  0.9375703090721783  1.0000
  H   H37       1.0  0.6391686833330966  0.8042806954956349  0.8776426481585913  1.0000
  H   H38       1.0  0.19574031807846373  0.36083319948375686  0.12231036979322597  1.0000
  H   H39       1.0  0.5145233594937507  0.8733169339956104  0.7998928044926854  1.0000
  H   H40       1.0  0.1267197425173805  0.4854660076774949  0.20010149083565654  1.0000
  H   H41       1.0  0.36179160111687736  0.8413949768394389  0.8436047242611976  1.0000
  H   H42       1.0  0.1586340774182844  0.6382064196246802  0.15639420706337856  1.0000
  H   H43       1.0  0.33334099413206525  0.7408664576473853  0.9630930356362126  1.0000
  H   H44       1.0  0.25915490489347087  0.6666736261413888  0.036897185391588  1.0000
  H   H45       1.0  0.456682511088836  0.6672676561812382  0.0374059582575654  1.0000
  H   H46       1.0  0.3327610877049025  0.5433410636552692  0.9625811119719214  1.0000
  H   H47       1.0  0.9778950395194954  0.6760865077360663  0.12025128169603509  1.0000
  H   H48       1.0  0.3239074395645786  0.0221195335104483  0.87974813886278  1.0000
  H   H49       1.0  0.048914633592140405  0.628713431116452  0.9833407414675861  1.0000
  H   H50       1.0  0.37125779139707765  0.9510966163025714  0.0166665383070139  1.0000
  H   H51       1.0  0.8638098101273287  0.4081658834616703  0.9500601791276678  1.0000
  H   H52       1.0  0.591819745385699  0.13617811557627138  0.04996052073727238  1.0000
  H   H53       1.0  0.794899335249511  0.45364899771077216  0.0874444512308727  1.0000
  H   H54       1.0  0.5463582228073348  0.2050903801660482  0.9125641218226335  1.0000
  H   H55       1.0  0.8225074124323583  0.6132312896988237  0.4029572795159168  1.0000
  H   H56       1.0  0.38677927386687116  0.17746424593836002  0.5970565159990711  1.0000
  H   H57       1.0  0.8972131097278864  0.5392054629146017  0.5259405116404139  1.0000
  H   H58       1.0  0.4607817932319094  0.1027634760659666  0.4740578001008798  1.0000
  H   H59       1.0  0.016313594233857  0.4386074220230824  0.4963956062134186  1.0000
  H   H60       1.0  0.5613900706599324  0.983670107683686  0.503587768373201  1.0000
  H   H61       1.0  0.059872087481267  0.4078922251142387  0.3431483015610794  1.0000
  H   H62       1.0  0.5921260754844938  0.9400938368292983  0.6568300922111732  1.0000
  H   H63       1.0  0.9819652669718409  0.47766159370167577  0.2189714951281729  1.0000
  H   H64       1.0  0.5223661877241453  0.017988748385370498  0.7810146662623935  1.0000
  H   H65       1.0  0.928103888652373  0.8960840358066093  0.7167701279286902  1.0000
  H   H66       1.0  0.10388468278456031  0.07190973059596929  0.2832535571800675  1.0000
  H   H67       1.0  0.06799734774946128  0.8945657120791494  0.8025052420563481  1.0000
  H   H68       1.0  0.10543915877791929  0.9320227597920763  0.19751084037442715  1.0000
  H   H69       1.0  0.22855970929479244  0.9040522759521821  0.8094569285528976  1.0000
  H   H70       1.0  0.09594816731555511  0.7714745651722765  0.19053822233350803  1.0000
  H   H71       1.0  0.37078490274877407  0.916435696052133  0.7339646077005213  1.0000
  H   H72       1.0  0.08357173970506442  0.6292286147651039  0.26601110253876925  1.0000
  H   H73       1.0  0.3707527512393868  0.928839038210768  0.572891850981442  1.0000
  H   H74       1.0  0.0711388136673676  0.6292360446701011  0.4270875389175615  1.0000
  H   H75       1.0  0.2312067880022681  0.9351813082069782  0.48583851637771147  1.0000
  H   H76       1.0  0.0647930928665019  0.7687746004598635  0.5141578869322174  1.0000
  H   H77       1.0  0.7376678214851324  0.9225796944295651  0.6646393677701637  1.0000
  H   H78       1.0  0.07742274380537138  0.2622999251774729  0.3353782416593205  1.0000
  H   H79       1.0  0.6593644246327769  0.7983458973683354  0.7334290723000547  1.0000
  H   H80       1.0  0.2016502665849274  0.3406175041477581  0.26659457581483537  1.0000
  H   H81       1.0  0.700546403785104  0.6451219069401972  0.6994106788552159  1.0000
  H   H82       1.0  0.3548798480436944  0.29943892129629995  0.3006049232389216  1.0000
  H   H83       1.0  0.8179317659093641  0.6158669861247503  0.5964214569718747  1.0000
  H   H84       1.0  0.384138960300227  0.18204501846383178  0.4035824530264022  1.0000
  H   H85       1.0  0.8932038475893763  0.7390244759554321  0.5236821282176223  1.0000
  H   H86       1.0  0.26099042068996425  0.10676573099080848  0.4763324712396866  1.0000
  H   H87       1.0  0.7412448773250234  0.0242827031593791  0.4650565120482852  1.0000
  H   H88       1.0  0.975724745147545  0.25876536366342856  0.534939210250563  1.0000
  H   H89       1.0  0.6702791757727554  0.16035416583357434  0.5146546141670143  1.0000
  H   H90       1.0  0.8396597835007354  0.3297338272710845  0.4853241670765057  1.0000
  H   H91       1.0  0.7261030466247718  0.24302486182870814  0.6505751844989971  1.0000
  H   H92       1.0  0.7569698018964673  0.2738833389329258  0.3494231675086111  1.0000
  H   H93       1.0  0.8535960069232332  0.18866325100513848  0.7373188814478908  1.0000
  H   H94       1.0  0.8113506178512678  0.146403319501097  0.2626761087381765  1.0000
  H   H95       1.0  0.9222423283660887  0.05207822365194661  0.6898704430271394  1.0000
  H   H96       1.0  0.9479293280971531  0.07774886604575218  0.310137994101737  1.0000
  Au  Au1       1.0  0.6254999814142438  0.5330803011684184  0.013450646095783699  1.0000
  Au  Au2       1.0  0.46692307925673054  0.3745117567101985  0.9865297404583016  1.0000
  Au  Au3       1.0  0.8470373745037136  0.7490194926572328  0.23369351292912194  1.0000
  Au  Au4       1.0  0.2509919322113205  0.15295653744075108  0.7663029377929573  1.0000
  Au  Au5       1.0  0.8726622046315241  0.9088591751068618  0.3915599219373077  1.0000
  Au  Au6       1.0  0.09115233717352568  0.127328574678387  0.6084526571548494  1.0000
  C   C1        1.0  0.6396089697558763  0.7343624514314299  0.12868493062429556  1.0000
  C   C2        1.0  0.26563811938055437  0.3603955539828619  0.8713035400482098  1.0000
  C   C3        1.0  0.6276408049385295  0.826311100009832  0.130046069739727  1.0000
  C   C4        1.0  0.1736782335234466  0.3723677242405116  0.8699469017604853  1.0000
  C   C5        1.0  0.6270418914270762  0.8747121148074156  0.20785353507186233  1.0000
  C   C6        1.0  0.1252842768276921  0.3729722348555454  0.7921420152400457  1.0000
  C   C7        1.0  0.6354828277253616  0.8337820248807118  0.28968249267367696  1.0000
  C   C8        1.0  0.16621951175301325  0.3645252223067387  0.7103220702789697  1.0000
  C   C9        1.0  0.6344402132642698  0.8819108011920489  0.3704860563810256  1.0000
  C   C10       1.0  0.1180818504759387  0.36556828559245247  0.629511102270925  1.0000
  C   C11       1.0  0.6386812987742444  0.8401800716799597  0.44953073169386915  1.0000
  C   C12       1.0  0.15982579669645253  0.36129627793683033  0.5504649324210787  1.0000
  C   C13       1.0  0.6436704094095518  0.7485311590443543  0.4497537036704812  1.0000
  C   C14       1.0  0.2514741495654746  0.3563012969137064  0.5502519258868117  1.0000
  C   C15       1.0  0.647000654900424  0.6996346982984536  0.3717869858272066  1.0000
  C   C16       1.0  0.3003706245553275  0.35297100994520747  0.6282074117758611  1.0000
  C   C17       1.0  0.6445100331345232  0.7404210765694544  0.28963241089086716  1.0000
  C   C18       1.0  0.2595748402790647  0.3554833529714899  0.7103718206394303  1.0000
  C   C19       1.0  0.6484606996491779  0.6909374100459543  0.2081468029635118  1.0000
  C   C20       1.0  0.30907477808968753  0.3515480467967648  0.791861182262977  1.0000
  C   C21       1.0  0.6508998467358963  0.593937710964589  0.21186929292006335  1.0000
  C   C22       1.0  0.406073885303364  0.34912090569658716  0.788140199995034  1.0000
  C   C23       1.0  0.5688189979247796  0.5457820457416744  0.21653735514286146  1.0000
  C   C24       1.0  0.45421670352802584  0.43118494439580957  0.7834444288623813  1.0000
  C   C25       1.0  0.48731101106290003  0.5876044680942983  0.21282300376811483  1.0000
  C   C26       1.0  0.4124000283910121  0.5126933632940904  0.7871858620963862  1.0000
  C   C27       1.0  0.4088556756635384  0.5400186528434503  0.2176611720912973  1.0000
  C   C28       1.0  0.4599992871007715  0.5911551888099426  0.782347471069684  1.0000
  C   C29       1.0  0.4079344123840657  0.448694846734881  0.22595961174523885  1.0000
  C   C30       1.0  0.5513083889077494  0.5920770399237512  0.774039635219573  1.0000
  C   C31       1.0  0.4862976864272852  0.40603814973250246  0.2312116434106244  1.0000
  C   C32       1.0  0.5939709358912777  0.5137073167213442  0.7688046066278885  1.0000
  C   C33       1.0  0.5675512648642355  0.45280257039080146  0.22801908012886674  1.0000
  C   C34       1.0  0.5472036047637586  0.43246734622256616  0.7719678139094768  1.0000
  C   C35       1.0  0.6486057341962165  0.41080475374634057  0.23723557562676226  1.0000
  C   C36       1.0  0.5891973966583494  0.3514037416990732  0.76275410318933  1.0000
  C   C37       1.0  0.7269758794789639  0.45786496031271184  0.23543947193795833  1.0000
  C   C38       1.0  0.5421261834835251  0.2730296255796817  0.7645375212327464  1.0000
  C   C39       1.0  0.729633987080888  0.5495043223157622  0.22174525123676855  1.0000
  C   C40       1.0  0.45049994999484266  0.2703573529144805  0.7782346758451624  1.0000
  C   C41       1.0  0.7450649998581724  0.7142068199889239  0.9737040134752133  1.0000
  C   C42       1.0  0.28579332124881063  0.2549371842085009  0.0262804612906251  1.0000
  C   C43       1.0  0.7741442041060436  0.6641784372740318  0.9020821293445634  1.0000
  C   C44       1.0  0.3358175115503527  0.2258589051463957  0.0979056919059218  1.0000
  C   C45       1.0  0.851021380214206  0.6891972128833073  0.8620203741583479  1.0000
  C   C46       1.0  0.3108008829658289  0.14898575931282923  0.1379793797190416  1.0000
  C   C47       1.0  0.9004408003997995  0.7636609322026472  0.893484055747258  1.0000
  C   C48       1.0  0.23633859482540492  0.0995581685886364  0.10650665314148708  1.0000
  C   C49       1.0  0.8728271221594353  0.8126816977263686  0.9658022617125039  1.0000
  C   C50       1.0  0.1873175334291375  0.12717269286879676  0.03418960916785349  1.0000
  C   C51       1.0  0.7955341499524736  0.7883514567639481  0.005886582740501513  1.0000
  C   C52       1.0  0.21164603658878178  0.20446554867245936  0.9941020264982895  1.0000
  C   C53       1.0  0.555609568128922  0.7307704595291895  0.9612294095542351  1.0000
  C   C54       1.0  0.26925064650686187  0.44440704391995917  0.03874568894948989  1.0000
  C   C55       1.0  0.5718534848805419  0.7897122639680418  0.8952878715753769  1.0000
  C   C56       1.0  0.21031322607252886  0.42815032812963943  0.10469168610069347  1.0000
  C   C57       1.0  0.5020849205412218  0.8288538336583287  0.8524588420650117  1.0000
  C   C58       1.0  0.1711738841106509  0.497915759811832  0.14753130192995906  1.0000
  C   C59       1.0  0.416363245535571  0.8112242334353468  0.8768810718658598  1.0000
  C   C60       1.0  0.18879622663612142  0.5836344451783759  0.12310336027766769  1.0000
  C   C61       1.0  0.40040161853646344  0.7539931918583989  0.944163505049971  1.0000
  C   C62       1.0  0.24602837814984474  0.5996085912036692  0.05582713511534369  1.0000
  C   C63       1.0  0.4692867326242123  0.7130546446199376  0.985802819763492  1.0000
  C   C64       1.0  0.2869756185558571  0.530734605098118  0.014182555593727398  1.0000
  C   C65       1.0  0.8834295706040648  0.5668321185115418  0.11416906466733677  1.0000
  C   C66       1.0  0.4331716577829496  0.1165653626060106  0.8858275182367804  1.0000
  C   C67       1.0  0.9543683767783762  0.616427075024795  0.08341115512866538  1.0000
  C   C68       1.0  0.3835701268694933  0.04563469112407859  0.9165922687938772  1.0000
  C   C69       1.0  0.9935745454322243  0.5901286105209849  0.006355396669675907  1.0000
  C   C70       1.0  0.40985835264126536  0.0064282574074994  0.9936470188230685  1.0000
  C   C71       1.0  0.9617846225414652  0.5148042404335983  0.9584573022799601  1.0000
  C   C72       1.0  0.48518890932820113  0.0381993737766919  0.04154509772543239  1.0000
  C   C73       1.0  0.8900354960958197  0.4662422589027243  0.9877391512165088  1.0000
  C   C74       1.0  0.5337604411851444  0.10995633214417207  0.012264976338066398  1.0000
  C   C75       1.0  0.8509124985879383  0.49181807528931637  0.06527779722326697  1.0000
  C   C76       1.0  0.5081830899855931  0.1490791796480408  0.9347249143862583  1.0000
  C   C77       1.0  0.89827553558041  0.550365771709572  0.3033655514439814  1.0000
  C   C78       1.0  0.44964826558047116  0.1016946136663677  0.6966393285942303  1.0000
  C   C79       1.0  0.8740284800666558  0.5675264562755871  0.39000694821284293  1.0000
  C   C80       1.0  0.43249443856765163  0.12594646092601644  0.6099972779530771  1.0000
  C   C81       1.0  0.9158544522629198  0.5262949620236412  0.45863519647075174  1.0000
  C   C82       1.0  0.4737080444476049  0.0841218634660308  0.5413660140915795  1.0000
  C   C83       1.0  0.9829909756503242  0.46914610558041403  0.4420398454399361  1.0000
  C   C84       1.0  0.5308481707381887  0.016977253174580702  0.5579502645208406  1.0000
  C   C85       1.0  0.0072962205979152  0.45219767634792873  0.3560130191617147  1.0000
  C   C86       1.0  0.5478208108625824  0.9926768502115876  0.6439750959524417  1.0000
  C   C87       1.0  0.9643429734472022  0.4917601419460381  0.2864872553892397  1.0000
  C   C88       1.0  0.5082643439339237  0.035631576162423115  0.7135090531553984  1.0000
  C   C89       1.0  0.9878693100002068  0.9196666227330822  0.5923133736970738  1.0000
  C   C90       1.0  0.08031425366812779  0.012110696045390099  0.407716429632103  1.0000
  C   C91       1.0  0.9896569922500619  0.9057696294102867  0.6840436562590992  1.0000
  C   C92       1.0  0.09422354029819499  0.010351400290886697  0.3159780486763565  1.0000
  C   C93       1.0  0.06757283182317049  0.9039744428668044  0.7319602479893772  1.0000
  C   C94       1.0  0.0960231803636091  0.9324420747721974  0.26806114758068117  1.0000
  C   C95       1.0  0.1490293157456861  0.9134999983286104  0.6907625872139674  1.0000
  C   C96       1.0  0.08649805379588568  0.8509941367338101  0.30926189199951887  1.0000
  C   C97       1.0  0.22979573055992122  0.911326331778163  0.7385799475924202  1.0000
  C   C98       1.0  0.0886977845014201  0.7702297103520834  0.261417673160146  1.0000
  C   C99       1.0  0.308636917441838  0.9174798063702028  0.6968132664308796  1.0000
  C   C100      1.0  0.08251643360332389  0.6913828150800896  0.3031674691618703  1.0000
  C   C101      1.0  0.3086371837800214  0.9254589388531755  0.6053616095507123  1.0000
  C   C102      1.0  0.0745369825625062  0.6913622336643996  0.3946248004657774  1.0000
  C   C103      1.0  0.2306171123400134  0.9293083913500053  0.5567173730007935  1.0000
  C   C104      1.0  0.0706954679068446  0.7693603132857945  0.4432794100770464  1.0000
  C   C105      1.0  0.14863062211747996  0.9248024753821583  0.5976259762654123  1.0000
  C   C106      1.0  0.0751889924851525  0.8513646814874392  0.40238459691003914  1.0000
  C   C107      1.0  0.0670344371663774  0.9294073252149814  0.5485708414049668  1.0000
  C   C108      1.0  0.07058974873385891  0.9329703759153959  0.4514642800549921  1.0000
  C   C109      1.0  0.8194194307212969  0.838486008369692  0.5893388019128449  1.0000
  C   C110      1.0  0.1615210034832515  0.1805547114599264  0.4106770817695987  1.0000
  C   C111      1.0  0.7543724753393234  0.8551386959771039  0.6491909444516961  1.0000
  C   C112      1.0  0.14486818754495087  0.24560832549561698  0.3508302070211186  1.0000
  C   C113      1.0  0.7111205075075943  0.7855254575183467  0.6881313631516832  1.0000
  C   C114      1.0  0.21447659922091586  0.2888600622155692  0.31189184341917536  1.0000
  C   C115      1.0  0.7341253536169319  0.6995377148596588  0.6692932998235221  1.0000
  C   C116      1.0  0.30046875998272776  0.2658535125661956  0.3307187356285367  1.0000
  C   C117      1.0  0.8003308793817822  0.683120379102185  0.6109484259062867  1.0000
  C   C118      1.0  0.3168822138852079  0.19964439775163356  0.38906552232573677  1.0000
  C   C119      1.0  0.842474893050074  0.7519068476808856  0.5703502775059304  1.0000
  C   C120      1.0  0.2481039840387922  0.15749789981369838  0.4296675357862013  1.0000
  C   C121      1.0  0.8347322913296366  0.027732443636097105  0.5752640470304441  1.0000
  C   C122      1.0  0.9722661944229003  0.16525818856698757  0.424743341110954  1.0000
  C   C123      1.0  0.7644041864412331  0.05977881204076851  0.5256547156542267  1.0000
  C   C124      1.0  0.9402300924121577  0.2355950895610661  0.4743464056800945  1.0000
  C   C125      1.0  0.7252960133020921  0.1364397780903985  0.5531357377954363  1.0000
  C   C126      1.0  0.8635635770394288  0.2747074588640075  0.44685753432302266  1.0000
  C   C127      1.0  0.756639093209202  0.1827948296404927  0.6295932667844539  1.0000
  C   C128      1.0  0.8172055583739067  0.24335100252888964  0.37040969953662983  1.0000
  C   C129      1.0  0.8667898047882827  0.0751490942773501  0.6514719434605565  1.0000
  C   C130      1.0  0.9248569698081964  0.1332038340089952  0.3485356854360261  1.0000
  C   C131      1.0  0.8278363469337293  0.15233182024216063  0.6781933745953878  1.0000
  C   C132      1.0  0.8476695035746217  0.17215693973354007  0.32180625774243765  1.0000
  Cl  Cl1       1.0  0.6218767358374251  0.3781302638722507  4.575611100699614e-06  1.0000
  Cl  Cl2       1.0  0.8615246307599165  0.903937318852364  0.23619923165829693  1.0000
  Cl  Cl3       1.0  0.09607377498396372  0.13849186790566392  0.7638208024470712  1.0000
