data_image0
_chemical_formula_structural       Zn6H31C40S3ClO33
_chemical_formula_sum              "Zn6 H31 C40 S3 Cl1 O33"
_cell_length_a       18.67236488689105
_cell_length_b       18.762431033072144
_cell_length_c       18.81675779403008
_cell_angle_alpha    110.01792013798195
_cell_angle_beta     108.80271334669324
_cell_angle_gamma    109.00743338068128

_space_group_name_H-M_alt    "P 1"
_space_group_IT_number       1

loop_
  _space_group_symop_operation_xyz
  'x, y, z'

loop_
  _atom_site_type_symbol
  _atom_site_label
  _atom_site_symmetry_multiplicity
  _atom_site_fract_x
  _atom_site_fract_y
  _atom_site_fract_z
  _atom_site_occupancy
  Zn  Zn1       1.0  0.07979175944097248  0.5066684304663697  0.0890239443177308  1.0000
  Zn  Zn2       1.0  0.9558777361065296  0.4974126000920194  0.9555338370902148  1.0000
  Zn  Zn3       1.0  0.9304298121337595  0.9387541979539692  0.4841774118533664  1.0000
  Zn  Zn4       1.0  0.05747274321439021  0.06190115183211021  0.48508658080280037  1.0000
  Zn  Zn5       1.0  0.48291556902810834  0.05310404669627641  0.050337289366950665  1.0000
  Zn  Zn6       1.0  0.47605122033316144  0.9290750459805255  0.917274654464883  1.0000
  H   H1        1.0  0.024311483780429907  0.6490464768098789  0.25308564081506557  1.0000
  H   H2        1.0  0.9254717238428327  0.8473378073606314  0.1970277999791037  1.0000
  H   H3        1.0  0.10859066433797437  0.7983852000619507  0.17205978105074138  1.0000
  H   H4        1.0  0.08947156729711031  0.9092636304514343  0.2554629620087424  1.0000
  H   H5        1.0  0.7109181876502078  0.12608179021368227  0.9464638015251623  1.0000
  H   H6        1.0  0.7610058363282021  0.32128231991823236  0.9598435652519157  1.0000
  H   H7        1.0  0.8920018200690548  0.13613415279314722  0.6285181574994496  1.0000
  H   H8        1.0  0.08314629255284697  0.2753159350939568  0.7126075364263327  1.0000
  H   H9        1.0  0.9037985159758577  0.2886717648336017  0.7199816439243206  1.0000
  H   H10       1.0  0.9162907169794181  0.629378071730244  0.20411178018569842  1.0000
  H   H11       1.0  0.26573488327550626  0.6741053896032768  0.8590719959088062  1.0000
  H   H12       1.0  0.31949198711024723  0.8110188843348427  0.04214839917474231  1.0000
  H   H13       1.0  0.1407931711752042  0.5963043546704158  0.8814932299138148  1.0000
  H   H14       1.0  0.29024924155688586  0.6836497224355967  0.06733091842870216  1.0000
  H   H15       1.0  0.21876191214225577  0.8705281845920895  0.7550847054411137  1.0000
  H   H16       1.0  0.2658088372620426  0.06060689967936381  0.8651731269905268  1.0000
  H   H17       1.0  0.07563910252125791  0.8600269089474183  0.6651622607110994  1.0000
  H   H18       1.0  0.20950248202820626  0.03832463417565891  0.7080194773270846  1.0000
  H   H19       1.0  0.7090843163799007  0.12772277119871228  0.2919187203252989  1.0000
  H   H20       1.0  0.9602896529962877  0.7457777649167667  0.33802208223658436  1.0000
  H   H21       1.0  0.6959137468073351  0.9699727597086821  0.1518464042863599  1.0000
  H   H22       1.0  0.7214272631100583  0.9431198902397852  0.28684822246227515  1.0000
  H   H23       1.0  0.07169830960432923  0.7836620816249962  0.3703492505989843  1.0000
  H   H24       1.0  0.13903045040672166  0.7711406037440937  0.2539538428625931  1.0000
  H   H25       1.0  0.15189699152148245  0.903394739494736  0.3439128021720704  1.0000
  H   H26       1.0  0.9482718722667443  0.7580864753572812  0.09401820115721186  1.0000
  H   H27       1.0  0.8677996440233072  0.670929136073184  0.0879412262765341  1.0000
  H   H28       1.0  0.8726912420166144  0.762621556715075  0.21396154117254418  1.0000
  H   H29       1.0  0.9172061033122673  0.42791394232446583  0.260676346307541  1.0000
  H   H30       1.0  0.9895472373703098  0.1871519488847753  0.9294411113489857  1.0000
  H   H31       1.0  0.8692840277086376  0.2454137255081363  0.32877656162433777  1.0000
  C   C1        1.0  0.9244813373844848  0.4016148938150935  0.06104948632744823  1.0000
  C   C2        1.0  0.01274356890213837  0.8335685634076885  0.2946982322388935  1.0000
  C   C3        1.0  0.09174936785872492  0.8651875950615135  0.2813330045674789  1.0000
  C   C4        1.0  0.9296749612167332  0.7946500297578396  0.20815351304869256  1.0000
  C   C5        1.0  0.6943631589737221  0.23378844316383154  0.9971500813948709  1.0000
  C   C6        1.0  0.6694720729178057  0.1485992382593366  0.965240870550893  1.0000
  C   C7        1.0  0.7723569663567389  0.2984291446646594  0.006662243161066814  1.0000
  C   C8        1.0  0.856140855941426  0.337191369768206  0.0670326817092501  1.0000
  C   C9        1.0  0.9512231307035179  0.19839374318451067  0.6771693841511562  1.0000
  C   C10       1.0  0.023246502097023815  0.21305276027990772  0.67018511197751  1.0000
  C   C11       1.0  0.9450435557905905  0.26204214365065337  0.7421949033619625  1.0000
  C   C12       1.0  0.9976647314672387  0.6293584685716809  0.10190095670568403  1.0000
  C   C13       1.0  0.9850277852757614  0.2930145638511448  0.8283861345153696  1.0000
  C   C14       1.0  0.2680060411684552  0.6990826672814949  0.9219474401305875  1.0000
  C   C15       1.0  0.3219015964820358  0.7838533323784418  0.9821507839189251  1.0000
  C   C16       1.0  0.20654201838761566  0.6425122803379394  0.9360151990823482  1.0000
  C   C17       1.0  0.224489774739844  0.6449185971717171  0.012476433240742293  1.0000
  C   C18       1.0  0.07816983856625379  0.9737025717750215  0.6033769838941865  1.0000
  C   C19       1.0  0.014451956665197921  0.9052379300335007  0.3658263254124563  1.0000
  C   C20       1.0  0.8544678649166997  0.9879549571036678  0.3800354177009241  1.0000
  C   C21       1.0  0.022174749106525785  0.1435612970492883  0.6014239966102721  1.0000
  C   C22       1.0  0.3500384941268351  0.006699650199443902  0.903865647805631  1.0000
  C   C23       1.0  0.1560146794444321  0.5934293200909196  0.025134458471121918  1.0000
  C   C24       1.0  0.5916425075778236  0.0818933762825722  0.9550912367236677  1.0000
  C   C25       1.0  0.6069961132557324  0.0194761459584072  0.11825598697935652  1.0000
  C   C26       1.0  0.3796934387880882  0.8491425728239578  0.9710107556629806  1.0000
  C   C27       1.0  0.21156152937164308  0.9286037156597758  0.7681463525104562  1.0000
  C   C28       1.0  0.2724103771174953  0.0023437636621821  0.8439179540937971  1.0000
  C   C29       1.0  0.1377324449714621  0.9202906408022217  0.7012787706320082  1.0000
  C   C30       1.0  0.14625990606825212  0.9810897821333671  0.6771713372316412  1.0000
  C   C31       1.0  0.7239808000940258  0.07619058501089881  0.26588239215202963  1.0000
  C   C32       1.0  0.6789316870576343  0.018744106843954004  0.18043866850079848  1.0000
  C   C33       1.0  0.7955333920814596  0.07344037160930127  0.3243822281177273  1.0000
  C   C34       1.0  0.9832251626344828  0.3674226900498498  0.8893390724751528  1.0000
  C   C35       1.0  0.7863294777652425  0.9998556274359842  0.32631829592376244  1.0000
  C   C36       1.0  0.9848771040492821  0.6789030193904538  0.23553639004168056  1.0000
  C   C37       1.0  0.008256598601377717  0.7602405755435201  0.3160988628488113  1.0000
  C   C38       1.0  0.09125377938344302  0.7855597958440512  0.2187148497850444  1.0000
  C   C39       1.0  0.9318588761230301  0.7294101569192719  0.13247012909904748  1.0000
  C   C40       1.0  0.9998965001997675  0.7044557694456869  0.16942337844696437  1.0000
  S   S1        1.0  0.8905902189920383  0.3154649739020456  0.1538667761524762  1.0000
  S   S2        1.0  0.050176458691510106  0.25235661199236153  0.875961411371641  1.0000
  S   S3        1.0  0.8969353301292242  0.1754887158506691  0.39332693020095627  1.0000
  Cl  Cl1       1.0  0.634063095782082  0.2808577550321232  0.022641405460902347  1.0000
  O   O1        1.0  0.0040601986394861395  0.4298467715726134  0.11314643512901773  1.0000
  O   O2        1.0  0.10548887766401549  0.022613524630337205  0.5743156219247822  1.0000
  O   O3        1.0  0.9601535913025929  0.8815978701953571  0.39110729295229163  1.0000
  O   O4        1.0  0.06924016486643582  0.9850402957433745  0.39549207816108384  1.0000
  O   O5        1.0  0.8273773476001053  0.9306017986086275  0.401913071915601  1.0000
  O   O6        1.0  0.9320717755544549  0.03292102255738881  0.399328244915104  1.0000
  O   O7        1.0  0.9656834808732457  0.0654805355702592  0.5708639900279949  1.0000
  O   O8        1.0  0.0792427232365327  0.16684590583649592  0.5775767707036649  1.0000
  O   O9        1.0  0.38673009087410987  0.0636105674774896  0.984980221307289  1.0000
  O   O10       1.0  0.3760163180148978  0.9551914454122611  0.8722083247237579  1.0000
  O   O11       1.0  0.5599204238344414  0.106131160767859  0.00286271008482695  1.0000
  O   O12       1.0  0.8971423249717105  0.42204785313890625  0.004383235206546558  1.0000
  O   O13       1.0  0.562792672644676  0.0019192890811651998  0.8994159432061153  1.0000
  O   O14       1.0  0.580579559851536  0.07269197135393311  0.14790830212565  1.0000
  O   O15       1.0  0.576522016608962  0.966587502353093  0.038735957783806854  1.0000
  O   O16       1.0  0.4063721988644104  0.9279875450467545  0.024254021501803964  1.0000
  O   O17       1.0  0.3987779519703453  0.8242364926127339  0.9100445657070892  1.0000
  O   O18       1.0  0.0493465072731071  0.6032171530794488  0.13057186848642746  1.0000
  O   O19       1.0  0.9448730269755004  0.5955306236099605  0.020788678156186957  1.0000
  O   O20       1.0  0.1810922323392107  0.5797492738136187  0.08934199214407108  1.0000
  O   O21       1.0  0.07744482298952696  0.5670639241041542  0.9731643407583732  1.0000
  O   O22       1.0  0.03633018751937559  0.4029218665682849  0.9688009106042585  1.0000
  O   O23       1.0  0.92989696296425  0.3918519140442526  0.8573199812844122  1.0000
  O   O24       1.0  0.997461546211433  0.9198000758247034  0.572432524553271  1.0000
  O   O25       1.0  0.817685238212718  0.2753197627848962  0.1648677923707496  1.0000
  O   O26       1.0  0.9449438097099545  0.2779935909343719  0.14519400521252387  1.0000
  O   O27       1.0  0.952802024689099  0.41326526715059936  0.23618711012844787  1.0000
  O   O28       1.0  0.0187679532518388  0.1633866166198175  0.8139889647793479  1.0000
  O   O29       1.0  0.1396593894849971  0.3170443742560991  0.9195200670794534  1.0000
  O   O30       1.0  0.02414083719954619  0.24890569281301822  0.9494275253337675  1.0000
  O   O31       1.0  0.9221010695634108  0.2002606008246133  0.48221343331004357  1.0000
  O   O32       1.0  0.9546018217288719  0.1743314829728959  0.3580905339013043  1.0000
  O   O33       1.0  0.8641475800758299  0.24178238471233024  0.37784978648019046  1.0000
