data_image0
_chemical_formula_structural       Al2H16C22N4O11
_chemical_formula_sum              "Al2 H16 C22 N4 O11"
_cell_length_a       6.718380179269208
_cell_length_b       11.15139033970502
_cell_length_c       16.758920283886905
_cell_angle_alpha    76.97430117741254
_cell_angle_beta     85.04558719837878
_cell_angle_gamma    72.44344049646061

_space_group_name_H-M_alt    "P 1"
_space_group_IT_number       1

loop_
  _space_group_symop_operation_xyz
  'x, y, z'

loop_
  _atom_site_type_symbol
  _atom_site_label
  _atom_site_symmetry_multiplicity
  _atom_site_fract_x
  _atom_site_fract_y
  _atom_site_fract_z
  _atom_site_occupancy
  Al  Al1       1.0  0.4990133999674029  0.5004629513907376  0.4997637586330723  1.0000
  Al  Al2       1.0  0.9961097156276606  0.505926709427925  0.499566756272415  1.0000
  H   H1        1.0  0.19216153636871525  0.6524793160127089  0.4312270319407361  1.0000
  H   H2        1.0  0.7994905072768927  0.3671391537396432  0.5847691632029067  1.0000
  H   H3        1.0  0.8604691469479204  0.5670533599388393  0.7213449832830532  1.0000
  H   H4        1.0  0.7824112400455902  0.5730488060689753  0.8704589232505524  1.0000
  H   H5        1.0  0.44207498780263416  0.4593082242205497  0.9124389444279402  1.0000
  H   H6        1.0  0.6025456066283323  0.4528623202884177  0.09995397828734551  1.0000
  H   H7        1.0  0.1535195483228478  0.5684410669625066  0.1108698989476053  1.0000
  H   H8        1.0  0.07673106278918596  0.5685150734939343  0.26046104044895196  1.0000
  H   H9        1.0  0.8733206181126647  0.8849345176307325  0.5027038368829577  1.0000
  H   H10       1.0  0.2340186047448682  0.8855306427366472  0.49221349214004556  1.0000
  H   H11       1.0  0.7520349480285163  0.1176624150784917  0.505585943668926  1.0000
  H   H12       1.0  0.5926192457345107  0.4622346322822964  0.6983317260681048  1.0000
  H   H13       1.0  0.680064006932468  0.4351827838496832  0.7981426567678225  1.0000
  H   H14       1.0  0.4513468794781731  0.45174531450506805  0.3144146378775615  1.0000
  H   H15       1.0  0.3909077513588457  0.4241990946054558  0.22140369220350914  1.0000
  H   H16       1.0  0.05562226460929759  0.21937967979940962  0.4930526200663791  1.0000
  C   C1        1.0  0.6342207116536966  0.7317615648184487  0.4951394411502434  1.0000
  C   C2        1.0  0.7738962004173827  0.5100300258552438  0.3533390005013004  1.0000
  C   C3        1.0  0.3603982656924955  0.2715930930253024  0.5033113358489698  1.0000
  C   C4        1.0  0.22044944079869572  0.4969425431267639  0.6462603248310329  1.0000
  C   C5        1.0  0.1918729282735399  0.5052095743460043  0.7332172464785527  1.0000
  C   C6        1.0  0.9857715678261413  0.5403834712782257  0.7648941964598206  1.0000
  C   C7        1.0  0.9414962935539393  0.5435346067193548  0.8464683125487935  1.0000
  C   C8        1.0  0.11086086192591443  0.5101959956858338  0.8997197948809015  1.0000
  C   C9        1.0  0.3157533054464139  0.4810279436170504  0.8698220920817972  1.0000
  C   C10       1.0  0.362422112466696  0.47775497131014794  0.7862380404935506  1.0000
  C   C11       1.0  0.7068031692527511  0.4764585800131229  0.13647964509424068  1.0000
  C   C12       1.0  0.8831326679854571  0.5066493663727838  0.09851727622170608  1.0000
  C   C13       1.0  0.020825445481556105  0.5405723957261087  0.14256904410572696  1.0000
  C   C14       1.0  0.9768265554363675  0.5410083173655664  0.22441633105056272  1.0000
  C   C15       1.0  0.8019868200284604  0.5081807775753759  0.26549652178578487  1.0000
  C   C16       1.0  0.6615942229075243  0.47517750990684954  0.2207603290924141  1.0000
  C   C17       1.0  0.42614320960881  0.13381465968554812  0.5008975805315783  1.0000
  C   C18       1.0  0.560760081473859  0.8714620783983803  0.4970185383015249  1.0000
  C   C19       1.0  0.27828821503809553  0.06768674238031742  0.4962161616394027  1.0000
  C   C20       1.0  0.7077601654070022  0.9368838734178623  0.5009815682443771  1.0000
  C   C21       1.0  0.3478013431063403  0.9362916394672284  0.49490411433660597  1.0000
  C   C22       1.0  0.6397130217253136  0.06624880166737061  0.5029514130034727  1.0000
  N   N1        1.0  0.08764376890324145  0.5072631354250988  0.9847186864971601  1.0000
  N   N2        1.0  0.908660046157493  0.5041409146342346  0.01414597462804322  1.0000
  N   N3        1.0  0.5649475651062659  0.4453871496274786  0.7597914835003009  1.0000
  N   N4        1.0  0.491345743826379  0.4413843329294664  0.25597088391145917  1.0000
  O   O1        1.0  0.4971824049017141  0.6759227952147526  0.48985743389641806  1.0000
  O   O2        1.0  0.9242674469016379  0.5225205979813693  0.3894759704675578  1.0000
  O   O3        1.0  0.16199219524212077  0.3302384247421061  0.4998187775981434  1.0000
  O   O4        1.0  0.3995538081209843  0.4951799160955588  0.6114553636363951  1.0000
  O   O5        1.0  0.49804647877375874  0.32595043715287636  0.5088083226390835  1.0000
  O   O6        1.0  0.06499019880277497  0.4898254509755375  0.6104471348461543  1.0000
  O   O7        1.0  0.8307791524149193  0.6780505415555922  0.49878735793505763  1.0000
  O   O8        1.0  0.6007135658336367  0.49994584269441594  0.3892612149791431  1.0000
  O   O9        1.0  0.2271290668688337  0.5634964375286202  0.4603464111202342  1.0000
  O   O10       1.0  0.771400707335914  0.4402174248470629  0.5390399372160742  1.0000
  O   O11       1.0  0.07105414052311687  0.12714662721432296  0.49278964065975817  1.0000
