data_image0
_chemical_formula_structural       Mn2H120C140N16
_chemical_formula_sum              "Mn2 H120 C140 N16"
_cell_length_a       15.307437103480966
_cell_length_b       15.1246087343423
_cell_length_c       16.581986265007867
_cell_angle_alpha    89.35361770209522
_cell_angle_beta     115.62394546946429
_cell_angle_gamma    91.16484489837592

_space_group_name_H-M_alt    "P 1"
_space_group_IT_number       1

loop_
  _space_group_symop_operation_xyz
  'x, y, z'

loop_
  _atom_site_type_symbol
  _atom_site_label
  _atom_site_symmetry_multiplicity
  _atom_site_fract_x
  _atom_site_fract_y
  _atom_site_fract_z
  _atom_site_occupancy
  Mn  Mn1       1.0  0.9999995419739988  0.9999981323945307  5.381543382556115e-08  1.0000
  Mn  Mn2       1.0  0.5000030445471991  0.49999901150734866  0.5000043385858816  1.0000
  H   H1        1.0  0.2805169126432077  0.9231386540204057  0.9128509713106465  1.0000
  H   H2        1.0  0.7194862909519911  0.0768600486527404  0.08715596148909537  1.0000
  H   H3        1.0  0.11751347210729787  0.9215573030995967  0.7552967289678278  1.0000
  H   H4        1.0  0.8824904620183104  0.07844279858981197  0.2447050676005204  1.0000
  H   H5        1.0  0.7453520009664987  0.936698889724752  0.6710038920332977  1.0000
  H   H6        1.0  0.2546465385285686  0.06331981641797309  0.3289909782519302  1.0000
  H   H7        1.0  0.6385705458631463  0.9827233397905812  0.7584830414638686  1.0000
  H   H8        1.0  0.361435209219131  0.017293305887847096  0.24151830073179067  1.0000
  H   H9        1.0  0.8578841437558323  0.0648664199038222  0.493925150318347  1.0000
  H   H10       1.0  0.1421051756864244  0.935127743642667  0.5060732609528955  1.0000
  H   H11       1.0  0.9109756553809945  0.7861200531419853  0.5299203382039152  1.0000
  H   H12       1.0  0.08902376951482437  0.21387206660999417  0.4700838798908578  1.0000
  H   H13       1.0  0.9690022821566444  0.13091802802468777  0.7057630665979245  1.0000
  H   H14       1.0  0.030987181182382497  0.8690820604707027  0.29423722206672653  1.0000
  H   H15       1.0  0.8610557655483219  0.1533808406757302  0.6082613152643573  1.0000
  H   H16       1.0  0.1389385930574889  0.8466134112360848  0.391731853975692  1.0000
  H   H17       1.0  0.8548513326720341  0.10600731559291889  0.7041505866381569  1.0000
  H   H18       1.0  0.1451357962485602  0.8939876216654526  0.2958397212747599  1.0000
  H   H19       1.0  0.8429213649822601  0.8508907597051872  0.3784351140629453  1.0000
  H   H20       1.0  0.15706074523307484  0.1491047328999002  0.6215616514258855  1.0000
  H   H21       1.0  0.809613211978892  0.964244782266782  0.36253903097693296  1.0000
  H   H22       1.0  0.19037262291782042  0.03575391685065909  0.6374652465041848  1.0000
  H   H23       1.0  0.9315821021435369  0.9344917212697652  0.39649418140762543  1.0000
  H   H24       1.0  0.068402216062033  0.06550578293637699  0.6035010496038211  1.0000
  H   H25       1.0  0.9434666668302258  0.7839952828776331  0.7665786142298927  1.0000
  H   H26       1.0  0.0565387776262227  0.21600674512876586  0.23342740268009976  1.0000
  H   H27       1.0  0.9048149179446056  0.7192043670060144  0.6674878832815593  1.0000
  H   H28       1.0  0.0951775677413949  0.28080027922096906  0.3325178324401747  1.0000
  H   H29       1.0  0.0269424123534421  0.7548309556165975  0.7240967100160915  1.0000
  H   H30       1.0  0.9730541082701621  0.24516190517938696  0.275901534535734  1.0000
  H   H31       1.0  0.5069302853138211  0.78560781353287  0.17661171804594736  1.0000
  H   H32       1.0  0.4930686157006647  0.21439360121703288  0.8233898974684593  1.0000
  H   H33       1.0  0.5570944052481083  0.048935483164136394  0.10295399548325426  1.0000
  H   H34       1.0  0.4429073198906863  0.9510633207911707  0.8970457177690037  1.0000
  H   H35       1.0  0.29228387052066296  0.8162048092646612  0.18358469821769316  1.0000
  H   H36       1.0  0.7077157452409396  0.18379592428615874  0.8164184052748169  1.0000
  H   H37       1.0  0.35197609863438106  0.7347463356069993  0.14969844138330043  1.0000
  H   H38       1.0  0.6480228654402682  0.2652577153766558  0.8503038071390847  1.0000
  H   H39       1.0  0.24916965900761306  0.7904285474950541  0.06926094638445329  1.0000
  H   H40       1.0  0.750827066887645  0.2095721693859858  0.930742822194958  1.0000
  H   H41       1.0  0.6835271261629643  0.8862948543441148  0.25318035879703166  1.0000
  H   H42       1.0  0.3164723544361507  0.11370134691426867  0.7468160483842183  1.0000
  H   H43       1.0  0.6914073337150982  0.9500973758452602  0.16636804784143056  1.0000
  H   H44       1.0  0.3085929656078931  0.049902067871883594  0.8336329114153642  1.0000
  H   H45       1.0  0.6628890773379653  0.8355968804034857  0.15161782147492175  1.0000
  H   H46       1.0  0.3371090270962186  0.16440264069730395  0.8483774438824696  1.0000
  H   H47       1.0  0.31339046628954054  0.10239867756798302  0.9739913669732871  1.0000
  H   H48       1.0  0.6866118340667529  0.8975942165675689  0.02600554740473621  1.0000
  H   H49       1.0  0.43042301968051794  0.1494405365980924  0.0374734399843177  1.0000
  H   H50       1.0  0.5695779497945709  0.8505576611322069  0.9625223542003737  1.0000
  H   H51       1.0  0.3437428676558484  0.14223650183526362  0.08229737889087121  1.0000
  H   H52       1.0  0.6562552340964771  0.8577630280348956  0.917697282299251  1.0000
  H   H53       1.0  0.7496024738962178  0.7529112903146  0.5217765136228678  1.0000
  H   H54       1.0  0.2503912746279369  0.2470889854187206  0.4782116003168325  1.0000
  H   H55       1.0  0.6172892120572798  0.8298611515533024  0.5656456920579274  1.0000
  H   H56       1.0  0.3827110426706851  0.17013772737607266  0.4343486141486607  1.0000
  H   H57       1.0  0.3067417399604722  0.7239634757110024  0.5977474125331597  1.0000
  H   H58       1.0  0.6932600552874887  0.27603865203693073  0.40225112843541666  1.0000
  H   H59       1.0  0.21706763890171737  0.564429431309449  0.5886554852381636  1.0000
  H   H60       1.0  0.7829291276022659  0.4355747058272144  0.41134046521754886  1.0000
  H   H61       1.0  0.47870258555442297  0.9527630309975448  0.7333771595808257  1.0000
  H   H62       1.0  0.5212963436560613  0.04724113398784619  0.2666172347669828  1.0000
  H   H63       1.0  0.3447205079276188  0.9884125206221624  0.44823418690224764  1.0000
  H   H64       1.0  0.6552687803289174  0.011581034289733299  0.551760592155162  1.0000
  H   H65       1.0  0.610200289605146  0.7920429023769914  0.7625131538013435  1.0000
  H   H66       1.0  0.38980229417754236  0.2079611453281487  0.2374899248224267  1.0000
  H   H67       1.0  0.5137020649961954  0.8021065138311059  0.7931811046305342  1.0000
  H   H68       1.0  0.4862990262320892  0.19789626003844768  0.20681836502904355  1.0000
  H   H69       1.0  0.5152887400218659  0.7119933338541741  0.7258745004959193  1.0000
  H   H70       1.0  0.48471600210018545  0.2880100453714503  0.2741294314788688  1.0000
  H   H71       1.0  0.31956690454289566  0.09590207079882158  0.5622532752221757  1.0000
  H   H72       1.0  0.6804260024251009  0.9040921947015191  0.4377387161431443  1.0000
  H   H73       1.0  0.4114249987618521  0.09157789087292662  0.6746895221069664  1.0000
  H   H74       1.0  0.5885723979742182  0.9084229989858272  0.3253024499806685  1.0000
  H   H75       1.0  0.44162000430430476  0.12079276422373651  0.5862769923709266  1.0000
  H   H76       1.0  0.5583744616488318  0.8792068215411318  0.41371321371415337  1.0000
  H   H77       1.0  0.42008671505053735  0.7870607757967888  0.39070387989603006  1.0000
  H   H78       1.0  0.5799004336396436  0.21293338620906607  0.6092942749812948  1.0000
  H   H79       1.0  0.3039007951238021  0.7734640131926438  0.386923193114427  1.0000
  H   H80       1.0  0.6960899041618235  0.2265261078751024  0.6130805819414177  1.0000
  H   H81       1.0  0.33597427128816554  0.874753903525544  0.3504630497386003  1.0000
  H   H82       1.0  0.6640113637006024  0.12523692196811706  0.649536912049477  1.0000
  H   H83       1.0  0.8583257388649131  0.708695414814976  0.31712311173673396  1.0000
  H   H84       1.0  0.14166457239057448  0.291309952507703  0.6828781256303316  1.0000
  H   H85       1.0  0.037687032100564  0.5994501187573534  0.5755570637050482  1.0000
  H   H86       1.0  0.9623123311125001  0.40054220269001206  0.42443325854239317  1.0000
  H   H87       1.0  0.6340893284961808  0.6919436471661199  0.3338073730609067  1.0000
  H   H88       1.0  0.36590146472747875  0.3080518516014976  0.6661904180035946  1.0000
  H   H89       1.0  0.6483989550715351  0.600247890078485  0.27654984430776614  1.0000
  H   H90       1.0  0.35160567939531967  0.39975228812562585  0.7234468016088371  1.0000
  H   H91       1.0  0.6894576330081248  0.7058786311710248  0.25966778247838807  1.0000
  H   H92       1.0  0.3105355858901433  0.29412740530285225  0.7403334011792282  1.0000
  H   H93       1.0  0.03187831217963579  0.7050210165857322  0.3673486190300892  1.0000
  H   H94       1.0  0.9681129351970199  0.2949654151874341  0.6326360662656255  1.0000
  H   H95       1.0  0.10891133387927  0.6528080817140776  0.4700710930982694  1.0000
  H   H96       1.0  0.8910785071432984  0.34718034739994147  0.5299124359532357  1.0000
  H   H97       1.0  0.06578346254507751  0.7604891811402225  0.4700725598773374  1.0000
  H   H98       1.0  0.9342150799509528  0.23950132558231016  0.5299059747076169  1.0000
  H   H99       1.0  0.856551003808434  0.5694085735009795  0.6497170680726966  1.0000
  H   H100      1.0  0.1434506244026039  0.43058699435535885  0.3502777757904738  1.0000
  H   H101      1.0  0.9718704038138951  0.5315470533053456  0.6641705830563963  1.0000
  H   H102      1.0  0.028127596643528794  0.46844854413760106  0.3358216182035676  1.0000
  H   H103      1.0  0.8648241020816272  0.4682497022202626  0.6022625172036271  1.0000
  H   H104      1.0  0.1351746007102008  0.5317445440034588  0.3977317689915409  1.0000
  H   H105      1.0  0.1573223697089219  0.256780607607098  0.10614271908928428  1.0000
  H   H106      1.0  0.8426803207323842  0.7432273549865157  0.8938640277991894  1.0000
  H   H107      1.0  0.3821073012889897  0.45349006077084647  0.044870076602570814  1.0000
  H   H108      1.0  0.6179067339230357  0.5465073007958097  0.9551399362482442  1.0000
  H   H109      1.0  0.3212412037186779  0.35088827650525184  0.3023299999704959  1.0000
  H   H110      1.0  0.6787649155648765  0.6491110690109989  0.6976786916216183  1.0000
  H   H111      1.0  0.22582091532220974  0.42652376335297487  0.2551346134275221  1.0000
  H   H112      1.0  0.7741888716349763  0.5734775538677255  0.7448755340637802  1.0000
  H   H113      1.0  0.20048574199454092  0.3108253978694506  0.24452783394383462  1.0000
  H   H114      1.0  0.7995226456575608  0.6891786042509765  0.755479352011612  1.0000
  H   H115      1.0  0.34822483053371656  0.39450380695289766  0.9117952262819526  1.0000
  H   H116      1.0  0.6517884278675936  0.6054908857121363  0.08821628337624075  1.0000
  H   H117      1.0  0.3146358075210927  0.2811814314636577  0.8979524973013041  1.0000
  H   H118      1.0  0.6853738294868919  0.7188125593822932  0.10206119588171694  1.0000
  H   H119      1.0  0.22494475755821944  0.3617221966902305  0.8487809442726615  1.0000
  H   H120      1.0  0.7750685833649767  0.6382764897875645  0.15122879614476398  1.0000
  C   C1        1.0  0.17785949584128247  0.958668822675662  0.9700467683230799  1.0000
  C   C2        1.0  0.8221415510998398  0.041331253574597285  0.029956297499445818  1.0000
  C   C3        1.0  0.20637416614274431  0.9356001267980929  0.9010464063530463  1.0000
  C   C4        1.0  0.793630463268265  0.0643979361132168  0.09895928044215907  1.0000
  C   C5        1.0  0.12443504420082971  0.9343801233329571  0.8220687570853187  1.0000
  C   C6        1.0  0.875571153926181  0.06562393863238472  0.17793394330528403  1.0000
  C   C7        1.0  0.0445208862510782  0.953195605920115  0.8425774644876184  1.0000
  C   C8        1.0  0.9554823384911304  0.046805159429645485  0.15742405243717164  1.0000
  C   C9        1.0  0.9474532711482767  0.9514357280105725  0.7798244221763824  1.0000
  C   C10       1.0  0.05254931431969111  0.048569024792158196  0.2201756428211823  1.0000
  C   C11       1.0  0.8707200658146377  0.9633414017525366  0.8028004622165809  1.0000
  C   C12       1.0  0.1292810254136469  0.03666137211701679  0.1971990074429968  1.0000
  C   C13       1.0  0.7703321173602192  0.9564594504871734  0.7402100935198989  1.0000
  C   C14       1.0  0.22966630137822366  0.04355396564933048  0.25978471908391043  1.0000
  C   C15       1.0  0.7168002696530423  0.9795296897409215  0.7844849590094823  1.0000
  C   C16       1.0  0.28320326134785034  0.0204849969526393  0.21551429265990407  1.0000
  C   C17       1.0  0.784226854368086  0.9994558159921779  0.8751036546733317  1.0000
  C   C18       1.0  0.21577716227940874  0.0005482795099852007  0.12489637265424847  1.0000
  C   C19       1.0  0.24310032158159336  0.9720318117027061  0.059383090991936165  1.0000
  C   C20       1.0  0.7569028977968911  0.027968971185778492  0.9406172175983016  1.0000
  C   C21       1.0  0.9240283991173897  0.9404153839694301  0.6832268767895612  1.0000
  C   C22       1.0  0.0759828002463081  0.05958533733625158  0.3167790038608231  1.0000
  C   C23       1.0  0.8981708571279441  0.0160500588011132  0.6272502752385591  1.0000
  C   C24       1.0  0.10183156229967952  0.9839474202430621  0.3727497104470672  1.0000
  C   C25       1.0  0.8781858244238734  0.006503560718179798  0.5372073516351888  1.0000
  C   C26       1.0  0.1218064559904661  0.9934932294237483  0.4627928400589524  1.0000
  C   C27       1.0  0.8837626537807637  0.9248461312227435  0.5008900485175828  1.0000
  C   C28       1.0  0.11623253427636371  0.07515132807037621  0.4991100894671093  1.0000
  C   C29       1.0  0.9078308910418188  0.8508208488480943  0.557167302387974  1.0000
  C   C30       1.0  0.09217080758626392  0.14917590996932972  0.44283661840467653  1.0000
  C   C31       1.0  0.9276700848437828  0.8571353078713245  0.6478352170441325  1.0000
  C   C32       1.0  0.07233821928985408  0.14286541430330152  0.3521701203586076  1.0000
  C   C33       1.0  0.8952170132374988  0.10622801413638426  0.6632353491329893  1.0000
  C   C34       1.0  0.10477594001080351  0.8937675212493232  0.336760281656332  1.0000
  C   C35       1.0  0.865482811272038  0.9179110184371451  0.4045870468920611  1.0000
  C   C36       1.0  0.13450221194979411  0.08208512578040937  0.5954108732218657  1.0000
  C   C37       1.0  0.9516831194806912  0.7746844315444151  0.7047220464314634  1.0000
  C   C38       1.0  0.04831793818787131  0.22531560962838162  0.2952834360601599  1.0000
  C   C39       1.0  0.34752300015234283  0.9529349271152724  0.08747095596651631  1.0000
  C   C40       1.0  0.65248176411329  0.04706980091999919  0.9125311779267946  1.0000
  C   C41       1.0  0.3822330221673198  0.8686665014486149  0.12285045765683823  1.0000
  C   C42       1.0  0.6177673180722608  0.13133422969263361  0.8771529326894053  1.0000
  C   C43       1.0  0.4804129189222693  0.8513181047642461  0.15053603970818588  1.0000
  C   C44       1.0  0.5195844878525264  0.14868133105247947  0.8494649804682338  1.0000
  C   C45       1.0  0.5448206712298785  0.9157336362485395  0.1452352915510318  1.0000
  C   C46       1.0  0.45517958549124427  0.0842638149469153  0.8547662502425127  1.0000
  C   C47       1.0  0.5082582474778476  0.9982871942941286  0.10886823095324152  1.0000
  C   C48       1.0  0.4917463933493025  0.0017122525042835995  0.8911332410913815  1.0000
  C   C49       1.0  0.41023618319776745  0.018178805263581004  0.07952930181416208  1.0000
  C   C50       1.0  0.589767796211575  0.9818232801781619  0.9204725163847131  1.0000
  C   C51       1.0  0.31560982347600947  0.7985653098859371  0.13171744468385777  1.0000
  C   C52       1.0  0.684389822474742  0.2014367461664435  0.8682856732290032  1.0000
  C   C53       1.0  0.650738114158429  0.896453427414734  0.18041149638266768  1.0000
  C   C54       1.0  0.34926288382053633  0.10354538771951378  0.8195873258485732  1.0000
  C   C55       1.0  0.37289239498261406  0.10777380504693207  0.041457704059126896  1.0000
  C   C56       1.0  0.6271093425689004  0.8922256689285177  0.9585414122360234  1.0000
  C   C57       1.0  0.6553325335770668  0.632267584796196  0.502982827113911  1.0000
  C   C58       1.0  0.3446640873448673  0.3677299222939681  0.4970142595745984  1.0000
  C   C59       1.0  0.685706107910491  0.7229561811215461  0.5241746214474787  1.0000
  C   C60       1.0  0.3142934347522158  0.2770433702375499  0.4758188009482751  1.0000
  C   C61       1.0  0.6189285521390744  0.7620533787278844  0.5458485324767183  1.0000
  C   C62       1.0  0.38106888214301193  0.23794738835976403  0.45415189795276933  1.0000
  C   C63       1.0  0.5476272283686541  0.69555218152734  0.5387436059627646  1.0000
  C   C64       1.0  0.4523745279558753  0.30444723106256083  0.46125973950331195  1.0000
  C   C65       1.0  0.46740528756600236  0.7113413219954481  0.5555687952885789  1.0000
  C   C66       1.0  0.532598588863152  0.28865612592148426  0.4444335766063361  1.0000
  C   C67       1.0  0.4029800926608758  0.6452021538391505  0.5566490289481152  1.0000
  C   C68       1.0  0.5970230851123189  0.3547959226606707  0.44335547997235375  1.0000
  C   C69       1.0  0.3239959991662927  0.6600868433713883  0.5797200590063125  1.0000
  C   C70       1.0  0.6760057615253743  0.3399132655467482  0.4202808770008416  1.0000
  C   C71       1.0  0.2788391580478731  0.5801374353038041  0.5749518403120106  1.0000
  C   C72       1.0  0.7211619358622627  0.41986532979638713  0.4250482335148361  1.0000
  C   C73       1.0  0.32801213528485107  0.5163309348100142  0.5463626013241906  1.0000
  C   C74       1.0  0.671987439560162  0.48366851131670785  0.4536380710788632  1.0000
  C   C75       1.0  0.7029581097690427  0.571530305635264  0.47372268640182824  1.0000
  C   C76       1.0  0.2970421761446573  0.42846918192871186  0.5262752520185927  1.0000
  C   C77       1.0  0.44806861828153194  0.8047051338458642  0.5697681882502508  1.0000
  C   C78       1.0  0.5519324082013028  0.19529429869233894  0.4302336620275469  1.0000
  C   C79       1.0  0.4773230579281674  0.8383491394110008  0.6564619333892094  1.0000
  C   C80       1.0  0.5226816610537313  0.16165360487193678  0.34354017887357446  1.0000
  C   C81       1.0  0.4576272810927834  0.9266927709499982  0.6661926273581428  1.0000
  C   C82       1.0  0.542373784313483  0.07330937674623779  0.3338044184221545  1.0000
  C   C83       1.0  0.41149817171328357  0.9821112632213128  0.5924769587936537  1.0000
  C   C84       1.0  0.5885035443833644  0.0178882809090553  0.40751732416329384  1.0000
  C   C85       1.0  0.38241051366746603  0.9466865002423926  0.5068006711162383  1.0000
  C   C86       1.0  0.617583900949505  0.05330970034430751  0.49319493642344264  1.0000
  C   C87       1.0  0.3991923955954207  0.8587523020263885  0.4938464625259584  1.0000
  C   C88       1.0  0.6008027391323977  0.1412431998224903  0.5061518413263781  1.0000
  C   C89       1.0  0.5313292183696917  0.7828357611852254  0.7384349533320034  1.0000
  C   C90       1.0  0.46867260806400424  0.21716697519729414  0.26156721985040576  1.0000
  C   C91       1.0  0.3947432423945402  0.07738405281181568  0.6048380528581631  1.0000
  C   C92       1.0  0.6052533517088038  0.9226135419719839  0.395152992157591  1.0000
  C   C93       1.0  0.3632555121734597  0.821970191518467  0.40067473500548795  1.0000
  C   C94       1.0  0.6367315556801146  0.17802068177222446  0.5993221754863993  1.0000
  C   C95       1.0  0.7914724537604202  0.6013113866031575  0.4639690587322888  1.0000
  C   C96       1.0  0.20852569059378107  0.39869013578869766  0.5360250199210839  1.0000
  C   C97       1.0  0.7817100542327894  0.6456630706286929  0.38537392387283387  1.0000
  C   C98       1.0  0.2182860384406666  0.35434303513115845  0.6146229696942243  1.0000
  C   C99       1.0  0.8654457575037923  0.6730892941002153  0.3773196049504789  1.0000
  C   C100      1.0  0.13455021878018408  0.3269122179816434  0.6226748214762451  1.0000
  C   C101      1.0  0.9580487649900606  0.658225323302993  0.445332582314613  1.0000
  C   C102      1.0  0.0419479072680318  0.34177556896533895  0.5546591029192953  1.0000
  C   C103      1.0  0.965989450695851  0.6125571955343077  0.5220133887083944  1.0000
  C   C104      1.0  0.034006428660369195  0.3874410804485747  0.4779761683292492  1.0000
  C   C105      1.0  0.8841188849168234  0.5837905214125527  0.5326981168510796  1.0000
  C   C106      1.0  0.11587771018309212  0.4162063595042865  0.467296545958142  1.0000
  C   C107      1.0  0.6836714875608508  0.6620687564158771  0.3102491181517522  1.0000
  C   C108      1.0  0.31632451990886074  0.337933364300575  0.689748940488805  1.0000
  C   C109      1.0  0.0458589940688512  0.6952685920725801  0.43751653047607414  1.0000
  C   C110      1.0  0.9541366951102929  0.30472248907602756  0.5624675097441594  1.0000
  C   C111      1.0  0.8952637862153525  0.5358408186429101  0.6166082557594662  1.0000
  C   C112      1.0  0.104734904163756  0.4641527575606688  0.3833866273928024  1.0000
  C   C113      1.0  0.0751191211629489  0.18409872588052414  0.9610644651215522  1.0000
  C   C114      1.0  0.9248857933597423  0.8159111956979712  0.03894437229319442  1.0000
  C   C115      1.0  0.1452065759456715  0.23145004716327827  0.9447519014818084  1.0000
  C   C116      1.0  0.8547911531789653  0.7685632573810603  0.05525047844285771  1.0000
  C   C117      1.0  0.1416897309728213  0.21018498339196873  0.8606908490278113  1.0000
  C   C118      1.0  0.8583043606673402  0.7898276719494817  0.13931008941801776  1.0000
  C   C119      1.0  0.2103729166181409  0.2936255664002445  0.008722170508384891  1.0000
  C   C120      1.0  0.7896312066879646  0.7063824439903996  0.9912815250838987  1.0000
  C   C121      1.0  0.20680430424052082  0.3009879440092007  0.09263206456706292  1.0000
  C   C122      1.0  0.7932012485598322  0.6990187039832774  0.9073746069814347  1.0000
  C   C123      1.0  0.2616331585714776  0.36094384305614813  0.1582370989914139  1.0000
  C   C124      1.0  0.7383745153300794  0.6390601263963944  0.8417722167794038  1.0000
  C   C125      1.0  0.32573113858470043  0.41981303556993044  0.1404001514949087  1.0000
  C   C126      1.0  0.674277217192966  0.5801889389513377  0.8596100336663781  1.0000
  C   C127      1.0  0.33187637705238165  0.41010254866767326  0.05799703779103986  1.0000
  C   C128      1.0  0.6681334676012513  0.5899014223254968  0.9420125343736884  1.0000
  C   C129      1.0  0.27783053333589436  0.34965530625935753  0.992679389843552  1.0000
  C   C130      1.0  0.7221814793879632  0.6503486750438157  0.007329834547824848  1.0000
  C   C131      1.0  0.2517305254203706  0.36245727471084166  0.2443384978983971  1.0000
  C   C132      1.0  0.7482778196298624  0.6375447348878822  0.7556692705937917  1.0000
  C   C133      1.0  0.29189203668931185  0.3467763643184298  0.9085393972155059  1.0000
  C   C134      1.0  0.7081198046304779  0.6532203607649194  0.09146853952938734  1.0000
  C   C135      1.0  0.4362156728124802  0.5491110918960657  0.17043765934980823  1.0000
  C   C136      1.0  0.5637927067940397  0.4508929365324548  0.8295677141038098  1.0000
  C   C137      1.0  0.38346595763936625  0.4890789108562501  0.1996661171801789  1.0000
  C   C138      1.0  0.6165394354809237  0.510919731971974  0.8003453011844072  1.0000
  C   C139      1.0  0.3926373397145113  0.508059390830013  0.2851078108260836  1.0000
  C   C140      1.0  0.6073744160936626  0.4919354820414624  0.714891041779147  1.0000
  N   N1        1.0  0.07850662555678412  0.9686743769651969  0.9333024355610249  1.0000
  N   N2        1.0  0.9214959005294574  0.0313270169674595  0.06670121838931206  1.0000
  N   N3        1.0  0.8779193046069338  0.9873659209829597  0.8856709760714522  1.0000
  N   N4        1.0  0.12208529361834763  0.012631533293749398  0.1143310785099203  1.0000
  N   N5        1.0  0.5714262934705089  0.6161506202814949  0.5134641195327844  1.0000
  N   N6        1.0  0.42857401389805727  0.38384879712756254  0.4865386522258318  1.0000
  N   N7        1.0  0.4050730039187016  0.5568630451643274  0.5374304270685357  1.0000
  N   N8        1.0  0.5949294423275121  0.44313434618620556  0.46257560028984557  1.0000
  N   N9        1.0  0.013972069966769099  0.14298793610570473  0.9706068111029253  1.0000
  N   N10       1.0  0.9860363425107721  0.8570174060550073  0.02939918093832007  1.0000
  N   N11       1.0  0.13390404472418277  0.18740216028910342  0.7903971337053476  1.0000
  N   N12       1.0  0.8660856983628163  0.8126098044122045  0.20960509724429935  1.0000
  N   N13       1.0  0.4783843957735385  0.5991398174409355  0.14492961925956382  1.0000
  N   N14       1.0  0.5216230986783685  0.4008569220998694  0.8550765963629345  1.0000
  N   N15       1.0  0.40392032450735377  0.5299165976461069  0.3571078338278397  1.0000
  N   N16       1.0  0.5960959508772063  0.470082670289237  0.6429078945528984  1.0000
