data_image0
_chemical_formula_structural       Zn4H22C36S4N6O8
_chemical_formula_sum              "Zn4 H22 C36 S4 N6 O8"
_cell_length_a       7.232350186608951
_cell_length_b       10.645057995889697
_cell_length_c       12.39809601278519
_cell_angle_alpha    86.44640608904022
_cell_angle_beta     89.14790117076745
_cell_angle_gamma    80.77018651623862

_space_group_name_H-M_alt    "P 1"
_space_group_IT_number       1

loop_
  _space_group_symop_operation_xyz
  'x, y, z'

loop_
  _atom_site_type_symbol
  _atom_site_label
  _atom_site_symmetry_multiplicity
  _atom_site_fract_x
  _atom_site_fract_y
  _atom_site_fract_z
  _atom_site_occupancy
  Zn  Zn1       1.0  0.07904754776819803  0.1712470449896557  0.3767091635654439  1.0000
  Zn  Zn2       1.0  0.9209550515790922  0.82875002328511  0.6232884952958673  1.0000
  Zn  Zn3       1.0  0.4321063093302016  0.17091058538739648  0.6938273197394764  1.0000
  Zn  Zn4       1.0  0.5678907573526574  0.8290865001143572  0.30617200242963355  1.0000
  H   H1        1.0  0.9620170680163654  0.26860606848243407  0.15551918495070544  1.0000
  H   H2        1.0  0.03797719488679972  0.7314034259072457  0.8444763138076611  1.0000
  H   H3        1.0  0.46577845734615403  0.22010162451093856  0.31868592039032967  1.0000
  H   H4        1.0  0.534217670017192  0.7798935353767787  0.6813191531760341  1.0000
  H   H5        1.0  0.09226043443523221  0.3900936563251989  0.9993393370444327  1.0000
  H   H6        1.0  0.9077494935121494  0.6099138501343901  0.0006593434071220135  1.0000
  H   H7        1.0  0.6084803432080295  0.3523711089606678  0.17984786886284357  1.0000
  H   H8        1.0  0.3915209999830581  0.6476316232280723  0.8201624225494445  1.0000
  H   H9        1.0  0.33867060384216785  0.49004630692642337  0.9212343716625285  1.0000
  H   H10       1.0  0.6613434060510955  0.5099554277449913  0.07877343329776923  1.0000
  H   H11       1.0  0.6987753854194025  0.3200580912892548  0.43948802629268613  1.0000
  H   H12       1.0  0.3012283746398269  0.6799399385254147  0.5605063472715772  1.0000
  H   H13       1.0  0.5820066032281446  0.4491919040036121  0.5970687006968378  1.0000
  H   H14       1.0  0.4179941754768919  0.5508070878636104  0.4029264586404296  1.0000
  H   H15       1.0  0.818935262425221  0.4914785522370195  0.731799954128853  1.0000
  H   H16       1.0  0.18106305694205102  0.5085252129047858  0.26819498826099425  1.0000
  H   H17       1.0  0.42092371964792374  0.7348317239769597  0.10895014499766384  1.0000
  H   H18       1.0  0.5790683695874607  0.26515679678942666  0.8910528793439173  1.0000
  H   H19       1.0  0.11230586919938902  0.7673082657746805  0.011015357001028306  1.0000
  H   H20       1.0  0.8876895168785738  0.2326840434201358  0.9889890599253166  1.0000
  H   H21       1.0  0.834836175721925  0.8997575309546094  0.09665938176312494  1.0000
  H   H22       1.0  0.16515834177418043  0.10023860617655339  0.9033416246805503  1.0000
  C   C1        1.0  0.10562440672212864  0.2872741267838919  0.15499753231972596  1.0000
  C   C2        1.0  0.8943741382845259  0.7127286671937227  0.8450014896498745  1.0000
  C   C3        1.0  0.38638902605893577  0.2629798638572964  0.2482284383162253  1.0000
  C   C4        1.0  0.6136097445871087  0.7370219589561272  0.7517746632331352  1.0000
  C   C5        1.0  0.17764958486861815  0.35572137327717707  0.07004001079150163  1.0000
  C   C6        1.0  0.8223522612275788  0.6442852020388088  0.9299620172424171  1.0000
  C   C7        1.0  0.46600127760805793  0.3345129558842928  0.16875342396746626  1.0000
  C   C8        1.0  0.5339972758925315  0.6654898239132194  0.8312488249612288  1.0000
  C   C9        1.0  0.3587453459546097  0.3864935491598658  0.07792251231506953  1.0000
  C   C10       1.0  0.64125948149578  0.6135120641035599  0.9220787299458453  1.0000
  C   C11       1.0  0.42341615696048523  0.47184831298952185  0.9947800155947849  1.0000
  C   C12       1.0  0.5766009198890034  0.52815818836455  0.005223488890983717  1.0000
  C   C13       1.0  0.7933030607889578  0.34257296536500786  0.5003592597261745  1.0000
  C   C14       1.0  0.20669941126185185  0.6574307815390126  0.4996356452924859  1.0000
  C   C15       1.0  0.7306314160310664  0.4137349229725871  0.587504197093317  1.0000
  C   C16       1.0  0.269372442371079  0.5862688143071466  0.4124915022080487  1.0000
  C   C17       1.0  0.8622057751158113  0.4355027915616531  0.6625091761080386  1.0000
  C   C18       1.0  0.13779531270715484  0.5645009614216292  0.3374857413676865  1.0000
  C   C19       1.0  0.05150663152389971  0.3857727446545026  0.6508209816150058  1.0000
  C   C20       1.0  0.9484975338726971  0.614235757286309  0.3491736690850474  1.0000
  C   C21       1.0  0.10615765382966912  0.31474680863831844  0.5596529898511592  1.0000
  C   C22       1.0  0.8938455616300091  0.685259785413578  0.44034337854729716  1.0000
  C   C23       1.0  0.18600156299272189  0.41070306212757396  0.7363653890857833  1.0000
  C   C24       1.0  0.8139900629981796  0.5892997587013155  0.26363450190891063  1.0000
  C   C25       1.0  0.2950501792675695  0.7917378381787754  0.14030361189664833  1.0000
  C   C26       1.0  0.7049452025634366  0.20825447810608466  0.8596991915501492  1.0000
  C   C27       1.0  0.12446968351347469  0.8096078122255858  0.08758919518129465  1.0000
  C   C28       1.0  0.8755296338555995  0.1903854428055851  0.9124127182736504  1.0000
  C   C29       1.0  0.9718678909870064  0.8838999436579513  0.13500958090603635  1.0000
  C   C30       1.0  0.028127486597028906  0.11609237971696021  0.864991609061221  1.0000
  C   C31       1.0  0.9913135588462436  0.9394865310641051  0.23251242575324949  1.0000
  C   C32       1.0  0.008683200842156704  0.06050578977657039  0.7674879450171732  1.0000
  C   C33       1.0  0.16951154257223788  0.9160389422579339  0.2839046400565908  1.0000
  C   C34       1.0  0.8304855241106209  0.08395814324382658  0.7160946821125196  1.0000
  C   C35       1.0  0.8217780548728227  0.025030144225617293  0.27350988100008083  1.0000
  C   C36       1.0  0.1782206216772765  0.9749659640326909  0.7264935082917249  1.0000
  S   S1        1.0  0.2232719136899988  0.9651423753212144  0.4084209156170149  1.0000
  S   S2        1.0  0.7767330346864229  0.034856569948033184  0.5915806602672407  1.0000
  S   S3        1.0  0.33456429022899675  0.24979152830830736  0.5262047909196568  1.0000
  S   S4        1.0  0.6654392654256542  0.7502074372202968  0.4737935704625686  1.0000
  N   N1        1.0  0.31597087380248484  0.8437144715535252  0.2345404627552982  1.0000
  N   N2        1.0  0.6840231174302288  0.15627786144567316  0.7654599329292539  1.0000
  N   N3        1.0  0.9756302240050162  0.2949740678363568  0.48720261318096203  1.0000
  N   N4        1.0  0.02437342362210874  0.7050306157923885  0.5127946537190554  1.0000
  N   N5        1.0  0.2064650865768911  0.24374421533559604  0.2438171279466773  1.0000
  N   N6        1.0  0.7935309071195321  0.7562576338164533  0.7561827715577184  1.0000
  O   O1        1.0  0.8387395318571436  0.13178049328242739  0.30999969917066755  1.0000
  O   O2        1.0  0.1612609632117242  0.8682136949284426  0.6900053829054045  1.0000
  O   O3        1.0  0.6615736545024048  0.992293664194591  0.26212968056484  1.0000
  O   O4        1.0  0.3384252413166351  0.007701483534603398  0.7378753680874014  1.0000
  O   O5        1.0  0.3003437067067837  0.3147541718761957  0.7786066591425185  1.0000
  O   O6        1.0  0.6996608844868178  0.6852524302765417  0.22138646983977858  1.0000
  O   O7        1.0  0.1731866090607782  0.5219666188526729  0.7657310506963172  1.0000
  O   O8        1.0  0.826801313401873  0.47803428143064497  0.23427623008930717  1.0000
