data_image0
_chemical_formula_structural       K8Pr8H8C32O68
_chemical_formula_sum              "K8 Pr8 H8 C32 O68"
_cell_length_a       8.519977657
_cell_length_b       12.20641012070118
_cell_length_c       15.776
_cell_angle_alpha    93.19615823189322
_cell_angle_beta     90.0
_cell_angle_gamma    90.0

_space_group_name_H-M_alt    "P 1"
_space_group_IT_number       1

loop_
  _space_group_symop_operation_xyz
  'x, y, z'

loop_
  _atom_site_type_symbol
  _atom_site_label
  _atom_site_symmetry_multiplicity
  _atom_site_fract_x
  _atom_site_fract_y
  _atom_site_fract_z
  _atom_site_occupancy
  K   K1        1.0  0.1534417169422895  0.2486661842208449  0.1458971224855432  1.0000
  K   K2        1.0  0.6534418544426472  0.2513320471936353  0.3541054317973007  1.0000
  K   K3        1.0  0.8465597317704338  0.7513352017161026  0.8541024935906165  1.0000
  K   K4        1.0  0.3465619416940697  0.7486685182253154  0.6458947827566561  1.0000
  K   K5        1.0  0.2533128708649599  0.2560492051593357  0.7351418366639706  1.0000
  K   K6        1.0  0.7533106609413238  0.2439514878091344  0.7648601899339411  1.0000
  K   K7        1.0  0.7466862304237623  0.7439505397416184  0.2648570747450663  1.0000
  K   K8        1.0  0.2466884403473983  0.7560482570918197  0.2351399892235762  1.0000
  Pr  Pr1       1.0  0.3254515576953239  0.5472116574893562  0.9084870694254549  1.0000
  Pr  Pr2       1.0  0.8254540426196826  0.9527879598620714  0.5915131993108247  1.0000
  Pr  Pr3       1.0  0.674546369881405  0.452788087411598  0.0915124758578258  1.0000
  Pr  Pr4       1.0  0.17454857980503394  0.04721178503888271  0.40848761372092923  1.0000
  Pr  Pr5       1.0  0.8315186125141238  0.4824416078291449  0.6008875448750643  1.0000
  Pr  Pr6       1.0  0.3315208224377599  0.017559905657329  0.8991132493708065  1.0000
  Pr  Pr7       1.0  0.1684804887745983  0.517558957589813  0.3991126696788925  1.0000
  Pr  Pr8       1.0  0.6684794525629556  0.9824390187256284  0.10088752826451501  1.0000
  H   H1        1.0  0.4071970772305491  0.2359145140269021  0.5354611238216053  1.0000
  H   H2        1.0  0.907197214730914  0.2640853584235714  0.9645389657571501  1.0000
  H   H3        1.0  0.5928020240581731  0.7640860513920489  0.46453845685810796  1.0000
  H   H4        1.0  0.0928018865578082  0.7359135659593861  0.0354599102554545  1.0000
  H   H5        1.0  0.48038388887525946  0.3102132391882009  0.6097882639897066  1.0000
  H   H6        1.0  0.9803863737996182  0.1897874537802764  0.8902118609854881  1.0000
  H   H7        1.0  0.5196140387014623  0.6897865057127532  0.39021128129357413  1.0000
  H   H8        1.0  0.0196162486250984  0.8102131116386744  0.10978771969423211  1.0000
  C   C1        1.0  0.633361989578276  0.5613048746086663  0.7761481572881763  1.0000
  C   C2        1.0  0.133368894349907  0.9386972042967585  0.7238572886313293  1.0000
  C   C3        1.0  0.3666359379984456  0.4386965113282812  0.2238533604106934  1.0000
  C   C4        1.0  0.8666325543628091  0.0613017200861989  0.2761434890039923  1.0000
  C   C5        1.0  0.5480765546566246  0.4556008231058755  0.7433642915172032  1.0000
  C   C6        1.0  0.0480834594282555  0.0444006903805914  0.7566422075968262  1.0000
  C   C7        1.0  0.4519225466320975  0.5443989217950788  0.2566365215145581  1.0000
  C   C8        1.0  0.9519179892844677  0.9555990545203629  0.2433592393091715  1.0000
  C   C9        1.0  0.46367961971757415  0.2829580928763633  0.9546590269119051  1.0000
  C   C10       1.0  0.963677409793938  0.2170409590561135  0.5453435627673714  1.0000
  C   C11       1.0  0.5363194815711481  0.7170408315065943  0.045341116849179706  1.0000
  C   C12       1.0  0.0363216914947841  0.7829579653268439  0.4546578487421869  1.0000
  C   C13       1.0  0.5681047761930742  0.2077354644502662  0.007016802161047102  1.0000
  C   C14       1.0  0.068103464980716  0.2922644080002144  0.4929839212919518  1.0000
  C   C15       1.0  0.4318943250956481  0.7922634599326913  0.9929833416000378  1.0000
  C   C16       1.0  0.9318968100199996  0.7077345163827431  0.507016222469133  1.0000
  C   C17       1.0  0.0380047945001323  0.4495486823587882  0.0196029538483842  1.0000
  C   C18       1.0  0.5380096268484849  0.0504511900916853  0.4803958679818976  1.0000
  C   C19       1.0  0.9619896119405951  0.5504510625421659  0.980395323686416  1.0000
  C   C20       1.0  0.461996516712226  0.949548554809269  0.519603677301383  1.0000
  C   C21       1.0  0.0599226923536023  0.4579327352538201  0.7678804561424002  1.0000
  C   C22       1.0  0.5599204824299662  0.0420679577146501  0.7321209365812749  1.0000
  C   C23       1.0  0.9400787563591138  0.5420702917191207  0.23211859685238787  1.0000
  C   C24       1.0  0.4400797925707494  0.9579309666683073  0.2678785733055733  1.0000
  C   C25       1.0  0.1176751912226308  0.5665159844086604  0.7315593190857685  1.0000
  C   C26       1.0  0.6176718075869942  0.9334860944967646  0.768442323588296  1.0000
  C   C27       1.0  0.8823250837780918  0.4334845810102906  0.2684402615939447  1.0000
  C   C28       1.0  0.3823284674137284  0.066512829886193  0.2315578201727817  1.0000
  C   C29       1.0  0.5248487942132201  0.4501878658785827  0.4708108015064596  1.0000
  C   C30       1.0  0.0248486567128552  0.0498120065718979  0.029189921946539202  1.0000
  C   C31       1.0  0.4751514807875026  0.5498118790223714  0.5291893776510577  1.0000
  C   C32       1.0  0.9751516182878674  0.9501877383290562  0.9708108910852218  1.0000
  O   O1        1.0  0.4248743536347064  0.4297889679510619  0.7816853745813717  1.0000
  O   O2        1.0  0.9248721437110703  0.0702133660534088  0.7183154550609389  1.0000
  O   O3        1.0  0.5751235739420224  0.5702107769498923  0.2183148045761527  1.0000
  O   O4        1.0  0.0751304787136462  0.9297863788475453  0.2816859918450589  1.0000
  O   O5        1.0  0.5731599537691139  0.6134988449263332  0.8395426352940945  1.0000
  O   O6        1.0  0.0731562951327618  0.8864999519071048  0.6604582319199892  1.0000
  O   O7        1.0  0.4268391475196083  0.3865000794566243  0.16045687459275373  1.0000
  O   O8        1.0  0.9268439798679609  0.11350143402984973  0.33954201803040723  1.0000
  O   O9        1.0  0.6109288321576187  0.39880374682411474  0.6822135569440848  1.0000
  O   O10       1.0  0.1109286946572539  0.1011953051083623  0.8177852294897576  1.0000
  O   O11       1.0  0.38907026913110343  0.6011959980768395  0.3177872560876764  1.0000
  O   O12       1.0  0.8890715803434617  0.8988027987565916  0.18221424500064393  1.0000
  O   O13       1.0  0.7585653695570471  0.5857366184922556  0.7383741550640793  1.0000
  O   O14       1.0  0.2585628846326884  0.914263819377176  0.7616274168171131  1.0000
  O   O15       1.0  0.24143255801967456  0.4142631264086987  0.2616272918419185  1.0000
  O   O16       1.0  0.7414373903680271  0.0857351050057815  0.2383733608182084  1.0000
  O   O17       1.0  0.4966515371696332  0.3859429477365524  0.9621037329069753  1.0000
  O   O18       1.0  0.996651674669998  0.1140585657499216  0.5378976952131396  1.0000
  O   O19       1.0  0.503347564119089  0.6140567971644089  0.037896446250542205  1.0000
  O   O20       1.0  0.0033509477547184  0.8859419996690294  0.462103153215061  1.0000
  O   O21       1.0  0.1856800643955054  0.4437558252988012  0.019997705104771103  1.0000
  O   O22       1.0  0.6856872441678519  0.056244047151672305  0.4799998489770303  1.0000
  O   O23       1.0  0.8143131683332285  0.5562439196021529  0.9799999385557927  1.0000
  O   O24       1.0  0.314318899392859  0.9437565182672785  0.5199984639542025  1.0000
  O   O25       1.0  0.1143101589239279  0.431618723084739  0.8382792680678719  1.0000
  O   O26       1.0  0.6143173386962815  0.0683836109197316  0.661716490580524  1.0000
  O   O27       1.0  0.8856889423647942  0.5683826628522085  0.1617184463855637  1.0000
  O   O28       1.0  0.3856841100164418  0.9316153134632261  0.3382842870547976  1.0000
  O   O29       1.0  0.2166508028907117  0.6223087466618935  0.7760294312597935  1.0000
  O   O30       1.0  0.7166532878150704  0.877689229653541  0.7239669634381798  1.0000
  O   O31       1.0  0.7833506458220043  0.3776934597930506  0.2239708540870424  1.0000
  O   O32       1.0  0.2833458134736517  0.12230887421142002  0.2760325110522288  1.0000
  O   O33       1.0  0.9680354024430784  0.3981522555343631  0.7216320799621698  1.0000
  O   O34       1.0  0.4680399597907083  0.10185007847010043  0.7783649464346993  1.0000
  O   O35       1.0  0.0319648725576442  0.6018491304025845  0.2783656344912657  1.0000
  O   O36       1.0  0.5319591414980138  0.8981480253948606  0.22163516192994592  1.0000
  O   O37       1.0  0.0655565099447273  0.5896045403308889  0.6598379205616922  1.0000
  O   O38       1.0  0.5655566474450922  0.9103983590925324  0.8401561510179435  1.0000
  O   O39       1.0  0.9344425913439949  0.4103984866420518  0.3401598646846224  1.0000
  O   O40       1.0  0.434444801267631  0.0895997447724284  0.1598433234724652  1.0000
  O   O41       1.0  0.357088964605488  0.2379387319259081  0.9104413220851768  1.0000
  O   O42       1.0  0.8570902758178462  0.2620594994885721  0.5895586967007136  1.0000
  O   O43       1.0  0.6429101366832342  0.7620601924570494  0.08955882167590802  1.0000
  O   O44       1.0  0.1429099991828764  0.7379394248943854  0.4104408131861278  1.0000
  O   O45       1.0  0.6565205010137944  0.2506206580900923  0.0630548394353312  1.0000
  O   O46       1.0  0.1565203635134367  0.24937757332438795  0.4369458132247956  1.0000
  O   O47       1.0  0.3434786002749277  0.7493782662928654  0.93694467045151  1.0000
  O   O48       1.0  0.843479911487286  0.7506213510585696  0.5630549644105258  1.0000
  O   O49       1.0  0.5542326740869328  0.1043493762894698  0.9900834384239162  1.0000
  O   O50       1.0  0.05423136287456741  0.3956496756430141  0.5099172496326503  1.0000
  O   O51       1.0  0.44576760091379003  0.8956503686114843  0.0099167407336012  1.0000
  O   O52       1.0  0.945768912126148  0.6043500692579401  0.4900829295248741  1.0000
  O   O53       1.0  0.9447113976158193  0.37921470015979253  0.049018096728247015  1.0000
  O   O54       1.0  0.444718302387443  0.1207859928086776  0.4509807604984672  1.0000
  O   O55       1.0  0.0552818351129147  0.6207858652591582  0.9509802162029928  1.0000
  O   O56       1.0  0.5552878411732678  0.87921539312827  0.5490182217034488  1.0000
  O   O57       1.0  0.6599958622403221  0.4098881244478179  0.48352210266471474  1.0000
  O   O58       1.0  0.1599957247399644  0.0901109274846661  0.016479219266081202  1.0000
  O   O59       1.0  0.3400044127604005  0.5901116204531363  0.5164787103670392  1.0000
  O   O60       1.0  0.8400045502607585  0.9098888174162951  0.9835215937656727  1.0000
  O   O61       1.0  0.4287147392926585  0.4156883661697749  0.4144911334651127  1.0000
  O   O62       1.0  0.9287148767930162  0.08431068576270212  0.085510822339927  1.0000
  O   O63       1.0  0.5712855357080642  0.584312199249176  0.5855097149630808  1.0000
  O   O64       1.0  0.0712842244957059  0.915689059138252  0.9144912584403073  1.0000
  O   O65       1.0  0.3806887917523056  0.2814803399634727  0.5866078286388543  1.0000
  O   O66       1.0  0.8806889292526705  0.2185211735230013  0.9133916978585432  1.0000
  O   O67       1.0  0.6193103095364165  0.7185226870094681  0.41338932273321666  1.0000
  O   O68       1.0  0.11931251946005259  0.7814802124139533  0.0866079182176165  1.0000
