data_image0
_chemical_formula_structural       Cu4H28C12S4N4O24
_chemical_formula_sum              "Cu4 H28 C12 S4 N4 O24"
_cell_length_a       7.473533074003838
_cell_length_b       9.741522955011446
_cell_length_c       9.683128888014515
_cell_angle_alpha    89.99983248087142
_cell_angle_beta     90.00010434494716
_cell_angle_gamma    90.0000538450815

_space_group_name_H-M_alt    "P 1"
_space_group_IT_number       1

loop_
  _space_group_symop_operation_xyz
  'x, y, z'

loop_
  _atom_site_type_symbol
  _atom_site_label
  _atom_site_symmetry_multiplicity
  _atom_site_fract_x
  _atom_site_fract_y
  _atom_site_fract_z
  _atom_site_occupancy
  Cu  Cu1       1.0  0.06908020965334319  0.05156538974316759  0.3374590771433077  1.0000
  Cu  Cu2       1.0  0.43092495710672546  0.9484296831795263  0.8374534295159535  1.0000
  Cu  Cu3       1.0  0.9309243688663359  0.5515668190610086  0.1625444132668576  1.0000
  Cu  Cu4       1.0  0.5690772962114181  0.44843527109398446  0.6625407535620909  1.0000
  H   H1        1.0  0.14619798113692892  0.9399607186226931  0.1107057127440356  1.0000
  H   H2        1.0  0.35380932470796017  0.0600452825642535  0.61070048919359  1.0000
  H   H3        1.0  0.8538044152939009  0.4399586552808402  0.3892997402328078  1.0000
  H   H4        1.0  0.6461951107060528  0.5600396923416399  0.8892937967553537  1.0000
  H   H5        1.0  0.9244657948417443  0.9514078322004167  0.1323717586096862  1.0000
  H   H6        1.0  0.5755438271029905  0.048592293106373995  0.6323651461360811  1.0000
  H   H7        1.0  0.07553795420916033  0.4514073456745462  0.3676367590682972  1.0000
  H   H8        1.0  0.42446193179993225  0.5485907186247798  0.8676281405706804  1.0000
  H   H9        1.0  0.18160898997679453  0.14076345351548272  0.014020182962731598  1.0000
  H   H10       1.0  0.3183887204953777  0.8592428303352763  0.5140146385330269  1.0000
  H   H11       1.0  0.8183890117234471  0.6407607796123074  0.4859861448193428  1.0000
  H   H12       1.0  0.6816067291006077  0.35923728533718696  0.9859818707734432  1.0000
  H   H13       1.0  0.9381745634417343  0.21101945835656724  0.8617052886668191  1.0000
  H   H14       1.0  0.5618128547044209  0.7889851291460345  0.3616932791794198  1.0000
  H   H15       1.0  0.06181935958464631  0.7110162498492939  0.638306112154396  1.0000
  H   H16       1.0  0.43816794078409066  0.28897837878022153  0.1382940261861236  1.0000
  H   H17       1.0  0.7759943116925357  0.12516100970555746  0.9670937563443261  1.0000
  H   H18       1.0  0.7240027224305694  0.874836083958378  0.46707965750242403  1.0000
  H   H19       1.0  0.22400485435039033  0.6251613013520725  0.532918928236569  1.0000
  H   H20       1.0  0.2759902247574786  0.37483979459011607  0.0329053313930814  1.0000
  H   H21       1.0  0.11541741450676571  0.212198091174244  0.5487067083490302  1.0000
  H   H22       1.0  0.3845897444945053  0.7877978259372751  0.0487003179351291  1.0000
  H   H23       1.0  0.8845885525171581  0.7122027503060907  0.9513015908508536  1.0000
  H   H24       1.0  0.6154124583838368  0.2877995221835192  0.4512962854209235  1.0000
  H   H25       1.0  0.0011929553971939005  0.07671198815867088  0.5906219971150861  1.0000
  H   H26       1.0  0.4988209931477244  0.9232817533478079  0.0906143378012061  1.0000
  H   H27       1.0  0.9988208676271598  0.5767199286311353  0.9093856655022704  1.0000
  H   H28       1.0  0.5011853962211178  0.42328451947523144  0.40937773852559894  1.0000
  C   C1        1.0  0.007203082535213  0.25337495894657985  0.1436463851869973  1.0000
  C   C2        1.0  0.4927989490911672  0.746623760209701  0.6436341851955021  1.0000
  C   C3        1.0  0.9928017526933887  0.7533779175890201  0.3563699405730816  1.0000
  C   C4        1.0  0.5072003714199057  0.2466225793849403  0.8563564570441217  1.0000
  C   C5        1.0  0.043850889383115495  0.1278505841962243  0.0524808141391091  1.0000
  C   C6        1.0  0.4561482502290134  0.87214942801134  0.5524754248771302  1.0000
  C   C7        1.0  0.9561470958903514  0.6278501713173839  0.4475224532227955  1.0000
  C   C8        1.0  0.5438498918936079  0.37214903261761384  0.9475179485146369  1.0000
  C   C9        1.0  0.9148295396474285  0.12333388155125385  0.9305560796362541  1.0000
  C   C10       1.0  0.5851633937829491  0.8766653719914429  0.4305469446450659  1.0000
  C   C11       1.0  0.08516427184448362  0.6233380762628968  0.5694493812091393  1.0000
  C   C12       1.0  0.4148268796249042  0.37666496593490706  0.0694432025262302  1.0000
  S   S1        1.0  0.9279201498839387  0.9697715026351827  0.8272163528815355  1.0000
  S   S2        1.0  0.572075214918549  0.030236265295229686  0.3272086416790216  1.0000
  S   S3        1.0  0.07207544031051329  0.4697664506895975  0.6727891277716083  1.0000
  S   S4        1.0  0.4279186320119948  0.5302291036513579  0.1727845838588991  1.0000
  N   N1        1.0  0.04323808425555601  0.0038749752082551992  0.1394714718683261  1.0000
  N   N2        1.0  0.4567692897099819  0.996126835751234  0.6394626228096456  1.0000
  N   N3        1.0  0.9567650955534435  0.5038737905375326  0.3605373216044256  1.0000
  N   N4        1.0  0.5432357003784746  0.49612464117871696  0.8605283226503316  1.0000
  O   O1        1.0  0.0335548873066784  0.2414998396868313  0.2725685921728456  1.0000
  O   O2        1.0  0.46644343549576217  0.7585036352171314  0.7725604514445479  1.0000
  O   O3        1.0  0.9664378903062599  0.7414980243134791  0.22743847379044277  1.0000
  O   O4        1.0  0.5335545620703073  0.2585018230558944  0.7274301560601231  1.0000
  O   O5        1.0  0.9588935246186667  0.3636456086177162  0.0838728228163248  1.0000
  O   O6        1.0  0.5411106302373838  0.6363577380863177  0.5838603126987465  1.0000
  O   O7        1.0  0.041102084464398614  0.8636415734940496  0.4161318205684097  1.0000
  O   O8        1.0  0.4588952402923  0.1363553224859047  0.9161275537762705  1.0000
  O   O9        1.0  0.11628524499680994  0.9303769898796688  0.8138327713228435  1.0000
  O   O10       1.0  0.38370916136607763  0.0696273909212906  0.313822283174254  1.0000
  O   O11       1.0  0.8837076189839197  0.43037348805749076  0.6861759226818407  1.0000
  O   O12       1.0  0.6162874117737048  0.5696203207467432  0.1861666962955937  1.0000
  O   O13       1.0  0.8461963184680459  0.0078738186323619  0.6933043754141224  1.0000
  O   O14       1.0  0.6538121097346732  0.9921322877356287  0.1932970643963046  1.0000
  O   O15       1.0  0.15380938865621374  0.5078681285077734  0.8067024557658087  1.0000
  O   O16       1.0  0.3461943672041201  0.49212395473279  0.3066968760863488  1.0000
  O   O17       1.0  0.8189931115181042  0.8676569321748814  0.9019587956786665  1.0000
  O   O18       1.0  0.6810024303086595  0.13234548455996278  0.4019602329715255  1.0000
  O   O19       1.0  0.18100101073168423  0.3676542273389244  0.5980418199173342  1.0000
  O   O20       1.0  0.3189928845682602  0.6323435985924634  0.0980409558001725  1.0000
  O   O21       1.0  0.1019243809596801  0.11131142242915357  0.5314221441067346  1.0000
  O   O22       1.0  0.3980867512665399  0.8886814656191505  0.03141341216993251  1.0000
  O   O23       1.0  0.8980854719088712  0.6113191199849268  0.9685864500687487  1.0000
  O   O24       1.0  0.601918256039639  0.3886861815747408  0.4685797980430807  1.0000
