data_image0
_chemical_formula_structural       Al6H46C84Br8Cl14O28
_chemical_formula_sum              "Al6 H46 C84 Br8 Cl14 O28"
_cell_length_a       13.572737670440544
_cell_length_b       13.922521804904058
_cell_length_c       28.069895015933902
_cell_angle_alpha    89.58292503181706
_cell_angle_beta     88.79292429506533
_cell_angle_gamma    61.15434290208053

_space_group_name_H-M_alt    "P 1"
_space_group_IT_number       1

loop_
  _space_group_symop_operation_xyz
  'x, y, z'

loop_
  _atom_site_type_symbol
  _atom_site_label
  _atom_site_symmetry_multiplicity
  _atom_site_fract_x
  _atom_site_fract_y
  _atom_site_fract_z
  _atom_site_occupancy
  Al  Al1       1.0  0.5902962109082494  0.5851679985972497  0.4970995140968596  1.0000
  Al  Al2       1.0  0.3601522865035349  0.5727978868928005  0.4992622753001399  1.0000
  Al  Al3       1.0  0.5770890908931322  0.3609633778941372  0.5004489429419436  1.0000
  Al  Al4       1.0  0.07484305046764213  0.0779768808506844  0.9973724766085323  1.0000
  Al  Al5       1.0  0.08119812801755441  0.3059084300359843  0.0007057865981679001  1.0000
  Al  Al6       1.0  0.30144853361161233  0.09754964954427693  0.0008325391230528002  1.0000
  H   H1        1.0  0.9968753765037377  0.1680388802309594  0.30229327187486627  1.0000
  H   H2        1.0  0.3197056039114869  0.018075754473173302  0.2172217391722384  1.0000
  H   H3        1.0  0.1905959094966292  0.0254846721014275  0.2348210530241204  1.0000
  H   H4        1.0  0.2829195437247875  0.7279042758664502  0.21324697602303636  1.0000
  H   H5        1.0  0.3347465313882907  0.5054118360906443  0.2611509164374652  1.0000
  H   H6        1.0  0.4953427555807721  0.20689020404130073  0.792622541644107  1.0000
  H   H7        1.0  0.24494286975193086  0.2801796114949866  0.6935601952916314  1.0000
  H   H8        1.0  0.3475773321942697  0.16541469159587055  0.7811611095549579  1.0000
  H   H9        1.0  0.20662586385605408  0.2687167420218159  0.7730215993518141  1.0000
  H   H10       1.0  0.27109600096175507  0.5226618882924826  0.7177225680081561  1.0000
  H   H11       1.0  0.17914132512357386  0.468089247218728  0.7089426318981609  1.0000
  H   H12       1.0  0.9925783397087997  0.14757469400343132  0.21959010144978916  1.0000
  H   H13       1.0  0.48066839491118407  0.3280253293285114  0.20156195558126908  1.0000
  H   H14       1.0  0.46153609485172353  0.404850139583516  0.7362910363677528  1.0000
  H   H15       1.0  0.47360039865677817  0.3361630819011551  0.813119959564382  1.0000
  H   H16       1.0  0.6661337258263488  0.5038924094659549  0.7326726174287399  1.0000
  H   H17       1.0  0.9796582563074596  0.3763408069451232  0.7818650298752203  1.0000
  H   H18       1.0  0.8175050822691645  0.20189444988292848  0.713286810121758  1.0000
  H   H19       1.0  0.503852378321497  0.1785185979645618  0.27549630617419035  1.0000
  H   H20       1.0  0.9471285136224379  0.1899831280239965  0.6930772575381852  1.0000
  H   H21       1.0  0.9020788056456723  0.16169323153171433  0.7889317264545781  1.0000
  H   H22       1.0  0.6378234941408323  0.3957850181510025  0.7176148707793786  1.0000
  H   H23       1.0  0.7021967496395972  0.48574045078677125  0.28713742810260356  1.0000
  H   H24       1.0  0.7109334559242554  0.3005006662707288  0.789264306491546  1.0000
  H   H25       1.0  0.004864520964154887  0.1985082138625458  0.7706802608807876  1.0000
  H   H26       1.0  0.2810331284054968  0.7513694055610859  0.808114301466169  1.0000
  H   H27       1.0  0.2824008542587251  0.703758976188247  0.7284063765204252  1.0000
  H   H28       1.0  0.15219522042434608  0.8945667583857572  0.7094160327276526  1.0000
  H   H29       1.0  0.14714692093905776  0.951653890606828  0.787914591908212  1.0000
  H   H30       1.0  0.31488631098947906  0.16688226039381965  0.24073394877523674  1.0000
  H   H31       1.0  0.2037077819120796  0.0367486677962674  0.7689003354961415  1.0000
  H   H32       1.0  0.5084982394171007  0.7774360251519283  0.7032038412039228  1.0000
  H   H33       1.0  0.4196523165416722  0.9154565236001062  0.6871723563077126  1.0000
  H   H34       1.0  0.7382920523195722  0.48631890570845837  0.2055980085732187  1.0000
  H   H35       1.0  0.4294863362622505  0.6530496493841867  0.7249067765847597  1.0000
  H   H36       1.0  0.42840188358709236  0.6996441960717164  0.8045706535840508  1.0000
  H   H37       1.0  0.40405062428799  0.9719287965116479  0.7654323162172858  1.0000
  H   H38       1.0  0.7923028596051652  0.19478117191127353  0.20439702686500985  1.0000
  H   H39       1.0  0.002106787393152773  0.2918277952787705  0.2958519268904212  1.0000
  H   H40       1.0  0.6876756702821469  0.33459517320537197  0.20784964511769735  1.0000
  H   H41       1.0  0.8793073285223867  0.4536149197635879  0.2155023380758294  1.0000
  H   H42       1.0  0.4852544794858955  0.82902768884415  0.2141782761437057  1.0000
  H   H43       1.0  0.17048478468160508  0.3431563373339799  0.2998251226030034  1.0000
  H   H44       1.0  0.4130240209764579  0.9263188143684005  0.2868300428469509  1.0000
  H   H45       1.0  0.7030218889819582  0.6592371936512222  0.5224069030379965  1.0000
  H   H46       1.0  0.996704398273508  0.9687486283976624  0.024235598630418995  1.0000
  C   C1        1.0  0.39247721630670185  0.7041372099467437  0.432760526042287  1.0000
  C   C2        1.0  0.36194452361778673  0.3618689893982392  0.34653188199433055  1.0000
  C   C3        1.0  0.7656040397576334  0.26548353260182017  0.2754750377754576  1.0000
  C   C4        1.0  0.40482526062133656  0.4000410536328616  0.43388473189439475  1.0000
  C   C5        1.0  0.9589025777315926  0.2471894557196279  0.28410985511089126  1.0000
  C   C6        1.0  0.9699734845034058  0.2318268595920756  0.2297472611649951  1.0000
  C   C7        1.0  0.894449472797156  0.2945352147552214  0.11219658580507999  1.0000
  C   C8        1.0  0.8337154336390498  0.3172234378097443  0.2990530049792284  1.0000
  C   C9        1.0  0.7703283950143955  0.2739419385180497  0.22083128166605795  1.0000
  C   C10       1.0  0.8568729861966775  0.311568754072205  0.20584924678586697  1.0000
  C   C11       1.0  0.8151678611618393  0.42952961125425304  0.22419557577141794  1.0000
  C   C12       1.0  0.37819335257663056  0.37574655842244203  0.3879052521890713  1.0000
  C   C13       1.0  0.7914679134237589  0.434559213767308  0.2780858011251865  1.0000
  C   C14       1.0  0.8727330919748654  0.3047145991113354  0.1545997486274544  1.0000
  C   C15       1.0  0.8141305623326217  0.3247738451684512  0.35006902102704623  1.0000
  C   C16       1.0  0.7183631596605907  0.383831129795368  0.43503151371059084  1.0000
  C   C17       1.0  0.781932271907948  0.3442399561412728  0.3912370850116318  1.0000
  C   C18       1.0  0.4456176704597752  0.7436519697403555  0.2697669638252406  1.0000
  C   C19       1.0  0.32677350903153257  0.9399043419225065  0.285130494716796  1.0000
  C   C20       1.0  0.28191894316387334  0.9728260530053702  0.23487074233792524  1.0000
  C   C21       1.0  0.29180008726597595  0.9215737900890772  0.11407444272536077  1.0000
  C   C22       1.0  0.334241861460022  0.8266965071268261  0.2983992951209586  1.0000
  C   C23       1.0  0.3210100829526751  0.24144248108887476  0.2455017743981429  1.0000
  C   C24       1.0  0.4376761158684985  0.7841535425278677  0.2171647963976326  1.0000
  C   C25       1.0  0.3124523666711596  0.8670384200995614  0.20570055568936846  1.0000
  C   C26       1.0  0.23914991752573664  0.815061753661034  0.22304503295492847  1.0000
  C   C27       1.0  0.22668101180125413  0.8227070162922203  0.2780606028243398  1.0000
  C   C28       1.0  0.390513608197594  0.7007557754802319  0.5659396646232295  1.0000
  C   C29       1.0  0.301474124434236  0.8937199101980725  0.1555012325567162  1.0000
  C   C30       1.0  0.34622920350928865  0.800187443300885  0.34842878015849976  1.0000
  C   C31       1.0  0.36066049039514786  0.764738185842937  0.3887188458566868  1.0000
  C   C32       1.0  0.4593367385598341  0.3270301031564387  0.7364807084473455  1.0000
  C   C33       1.0  0.3199916507736873  0.256858058522532  0.7146674069819737  1.0000
  C   C34       1.0  0.30836360778744165  0.32324201202456493  0.2033403160832776  1.0000
  C   C35       1.0  0.29485597022733145  0.24875981150954374  0.7678606873363236  1.0000
  C   C36       1.0  0.2881320233172532  0.29735755081414783  0.8898476300205543  1.0000
  C   C37       1.0  0.3565590841338774  0.34539703270569094  0.706494157409949  1.0000
  C   C38       1.0  0.4450181113333612  0.2958414125329725  0.7877216955475106  1.0000
  C   C39       1.0  0.320018026673509  0.3273165627983161  0.7981705388683051  1.0000
  C   C40       1.0  0.39960752283475653  0.40192006503008315  0.5661368535015754  1.0000
  C   C41       1.0  0.24174497928131436  0.44665630055251887  0.7810726359401059  1.0000
  C   C42       1.0  0.2563194877594909  0.4538575107116856  0.7266569288585244  1.0000
  C   C43       1.0  0.30245519922846853  0.312921709361504  0.8482748124592873  1.0000
  C   C44       1.0  0.37125769729887276  0.3603735815043053  0.6560774432335278  1.0000
  C   C45       1.0  0.4249336840547713  0.24802811927501275  0.2642729596311995  1.0000
  C   C46       1.0  0.3785105633920835  0.3771597321778445  0.6139559188828301  1.0000
  C   C47       1.0  0.6993593484180565  0.4147484192198903  0.7336428919514687  1.0000
  C   C48       1.0  0.8800174520547798  0.41608155786701684  0.7178777415864133  1.0000
  C   C49       1.0  0.8901447530892099  0.4125435923894259  0.7739397488649757  1.0000
  C   C50       1.0  0.9033515022388343  0.3026999516415431  0.8869272653398638  1.0000
  C   C51       1.0  0.8112565946651742  0.3576943835536995  0.7036825030152087  1.0000
  C   C52       1.0  0.7043885300081455  0.39808290790729467  0.5667663970000021  1.0000
  C   C53       1.0  0.7223468702482734  0.37290890655843617  0.7848530161463072  1.0000
  C   C54       1.0  0.8475549277581179  0.33562775775477144  0.7958106644402532  1.0000
  C   C55       1.0  0.9148195364174044  0.22350295948074722  0.7693707986372473  1.0000
  C   C56       1.0  0.3446119196129231  0.34661646997037093  0.29824735964266574  1.0000
  C   C57       1.0  0.8757240306775671  0.23484211509831712  0.717687808045376  1.0000
  C   C58       1.0  0.872776340475923  0.32039227806340886  0.8459951491944651  1.0000
  C   C59       1.0  0.7848135694914404  0.3688655204968754  0.6536558802595919  1.0000
  C   C60       1.0  0.7555586681954483  0.37520206048816357  0.6127056016097184  1.0000
  C   C61       1.0  0.3492465280315783  0.7248502207020169  0.7350208077791576  1.0000
  C   C62       1.0  0.2168743505015343  0.9187517612781663  0.7151898112206821  1.0000
  C   C63       1.0  0.21638433221833944  0.9527746192667694  0.7673860860008475  1.0000
  C   C64       1.0  0.239973079452291  0.3391829388126481  0.2780447143373408  1.0000
  C   C65       1.0  0.3069112860815579  0.9305517503412446  0.8830944503878086  1.0000
  C   C66       1.0  0.33308193442700673  0.8211757497940867  0.7018216676704652  1.0000
  C   C67       1.0  0.4125239897782579  0.3307847487203476  0.22394723468841699  1.0000
  C   C68       1.0  0.34871054574548316  0.755620879568731  0.7877098049966662  1.0000
  C   C69       1.0  0.329534456777324  0.8741493491476293  0.7915740173717296  1.0000
  C   C70       1.0  0.421728284662322  0.8864647369482626  0.7634223694274667  1.0000
  C   C71       1.0  0.42765778629455303  0.8500343135258248  0.7114564594998709  1.0000
  C   C72       1.0  0.32142694523153603  0.9050268248185919  0.8412505177010203  1.0000
  C   C73       1.0  0.3409822918263005  0.7871741629273996  0.6525665827236508  1.0000
  C   C74       1.0  0.3580182896244961  0.7529178410219189  0.6119059310770039  1.0000
  C   C75       1.0  0.9480911447384913  0.267589184998144  0.06581178205555459  1.0000
  C   C76       1.0  0.22836927067965002  0.421767505112321  0.2377755795732099  1.0000
  C   C77       1.0  0.2510847014072369  0.2711165889074961  0.067295373365603  1.0000
  C   C78       1.0  0.3319681115249225  0.42905151292892896  0.2563711414347694  1.0000
  C   C79       1.0  0.2673754264596653  0.9681371654254319  0.0669968347550096  1.0000
  C   C80       1.0  0.9556911499155518  0.272430991032138  0.9326276228486422  1.0000
  C   C81       1.0  0.26122197879666226  0.2711131202357535  0.9362450852598343  1.0000
  C   C82       1.0  0.2756873985886016  0.973707708571041  0.930661867478335  1.0000
  C   C83       1.0  0.27513132199747753  0.29701163646733875  0.1134221485787279  1.0000
  C   C84       1.0  0.290942314466264  0.3093854403877643  0.155046151942841  1.0000
  Br  Br1       1.0  0.8630383941556942  0.5090426454532349  0.3109955112992324  1.0000
  Br  Br2       1.0  0.5785838676664454  0.742639333727972  0.2984827744001137  1.0000
  Br  Br3       1.0  0.2528497176122784  0.059011981035311606  0.3317934138719778  1.0000
  Br  Br4       1.0  0.4772280698259122  0.5915790264504822  0.2755797156455344  1.0000
  Br  Br5       1.0  0.09622751983698648  0.8727903695933396  0.19065904187235816  1.0000
  Br  Br6       1.0  0.42743483769729107  0.11284508547545614  0.687465804862164  1.0000
  Br  Br7       1.0  0.2827463043306152  0.546957513957878  0.8149160542246034  1.0000
  Br  Br8       1.0  0.5696188911738672  0.8049302690645989  0.7935236399364455  1.0000
  Cl  Cl1       1.0  0.10331559704690815  0.534255712751616  0.220855289436436  1.0000
  Cl  Cl2       1.0  0.02087176186627458  0.34125098297247564  0.692272189546962  1.0000
  Cl  Cl3       1.0  0.8182413935495985  0.5501591084346843  0.6938066566744608  1.0000
  Cl  Cl4       1.0  0.826564016069497  0.5427218535620356  0.8024204312377349  1.0000
  Cl  Cl5       1.0  0.1802241094960664  0.0332016837816624  0.6756057718821467  1.0000
  Cl  Cl6       1.0  0.8244663228856483  0.1243528003575989  0.2930741079338687  1.0000
  Cl  Cl7       1.0  0.08277645829483757  0.2524035096400965  0.2062463368983742  1.0000
  Cl  Cl8       1.0  0.6218390711681466  0.3318391434015098  0.2971274597372684  1.0000
  Cl  Cl9       1.0  0.2094127956015085  0.711254655054617  0.3003042101683134  1.0000
  Cl  Cl10      1.0  0.1034809700502277  0.9420751367504467  0.2988392366773239  1.0000
  Cl  Cl11      1.0  0.5014327001362487  0.6778706921808464  0.1740932770218322  1.0000
  Cl  Cl12      1.0  0.5930258339773785  0.22940504133293158  0.7113885042553462  1.0000
  Cl  Cl13      1.0  0.09831490294513391  0.489620619820336  0.7962761094068184  1.0000
  Cl  Cl14      1.0  0.6202288638463854  0.4714634192945582  0.825270494699481  1.0000
  O   O1        1.0  0.6847422093614881  0.4826107999784597  0.44588270397859725  1.0000
  O   O2        1.0  0.3245826560496567  0.18051234925036397  0.0483378680586384  1.0000
  O   O3        1.0  0.34034012961637927  0.9919664393406791  0.0481643866004404  1.0000
  O   O4        1.0  0.4884892852501464  0.6790426614339896  0.4480186218338176  1.0000
  O   O5        1.0  0.17938785199444146  0.9937093197924797  0.9456702363533509  1.0000
  O   O6        1.0  0.9796743964967048  0.178701739931526  0.9482666780228113  1.0000
  O   O7        1.0  0.9775076326320042  0.34319435261992487  0.9524385927981172  1.0000
  O   O8        1.0  0.16592555001597012  0.33851936970500424  0.9547575188923074  1.0000
  O   O9        1.0  0.332544889637134  0.1796410525134605  0.9541491851381421  1.0000
  O   O10       1.0  0.34699434734041285  0.9917402588597568  0.9533527009965184  1.0000
  O   O11       1.0  0.15332890074795102  0.1613257647247579  0.9999268061418859  1.0000
  O   O12       1.0  0.3298642931863184  0.4950331041363754  0.5491774529491877  1.0000
  O   O13       1.0  0.3214086816067408  0.6772876989259513  0.45106744902808765  1.0000
  O   O14       1.0  0.3321536029541931  0.48948053563650973  0.45410654239557857  1.0000
  O   O15       1.0  0.5009132688516045  0.333017675253231  0.450670900346104  1.0000
  O   O16       1.0  0.6966199476783574  0.3151297837145393  0.45792589737426675  1.0000
  O   O17       1.0  0.6883100478731733  0.48582609534194177  0.546713879495762  1.0000
  O   O18       1.0  0.4883676067483406  0.6745364423802371  0.5506914667677378  1.0000
  O   O19       1.0  0.3176233191440475  0.6819887859115921  0.5448961376807162  1.0000
  O   O20       1.0  0.48984608470580326  0.33053261505324383  0.5453061594815835  1.0000
  O   O21       1.0  0.6755012631131053  0.3287376825356318  0.5510910315047467  1.0000
  O   O22       1.0  0.5082874061775654  0.5054652599728231  0.4991817405255786  1.0000
  O   O23       1.0  0.17578331163743863  0.9853881472024354  0.0492628779668181  1.0000
  O   O24       1.0  0.9763577449293379  0.17332852929138204  0.04968935648021498  1.0000
  O   O25       1.0  0.9677138819985133  0.3408720333963942  0.04618724112935269  1.0000
  O   O26       1.0  0.15643453387786374  0.337738525438084  0.0491761712089627  1.0000
  O   O27       1.0  0.6617706267676055  0.6611699177670971  0.4944322036165047  1.0000
  O   O28       1.0  0.0055349216973254985  0.00011247894471469755  0.994682741064956  1.0000
