data_image0
_chemical_formula_structural       Zn2H60C68N2O12
_chemical_formula_sum              "Zn2 H60 C68 N2 O12"
_cell_length_a       10.949458849595157
_cell_length_b       18.578024085744712
_cell_length_c       19.597651562432237
_cell_angle_alpha    89.22919032316106
_cell_angle_beta     91.71961537346513
_cell_angle_gamma    89.47103872050285

_space_group_name_H-M_alt    "P 1"
_space_group_IT_number       1

loop_
  _space_group_symop_operation_xyz
  'x, y, z'

loop_
  _atom_site_type_symbol
  _atom_site_label
  _atom_site_symmetry_multiplicity
  _atom_site_fract_x
  _atom_site_fract_y
  _atom_site_fract_z
  _atom_site_occupancy
  Zn  Zn1       1.0  0.5026170958331876  0.41923854649639486  0.5027093908311855  1.0000
  Zn  Zn2       1.0  0.4950016648890098  0.5794945649588785  0.49673535607828256  1.0000
  H   H1        1.0  0.7313416583177882  0.7696875654195882  0.3184568135430226  1.0000
  H   H2        1.0  0.6701710368918369  0.8281587738462974  0.5551107293644506  1.0000
  H   H3        1.0  0.6050918385002576  0.16434742564187135  0.5958197880710969  1.0000
  H   H4        1.0  0.35017610021601797  0.833661461063578  0.41937458590258814  1.0000
  H   H5        1.0  0.6188330884433456  0.05974884459017461  0.5870022165483064  1.0000
  H   H6        1.0  0.38380351881339436  0.938413419185942  0.40294517698860227  1.0000
  H   H7        1.0  0.6258125241062088  0.929675074416352  0.5807181193566748  1.0000
  H   H8        1.0  0.37038575887180514  0.06805211887131432  0.4117251929243579  1.0000
  H   H9        1.0  0.7048816614589201  0.6421936613000414  0.28219278925257646  1.0000
  H   H10       1.0  0.35149138888789366  0.32467356770460054  0.6853914400852545  1.0000
  H   H11       1.0  0.7949135676849294  0.5425351927437705  0.3526620455214696  1.0000
  H   H12       1.0  0.27039062312976375  0.20228009220856086  0.6601211932667539  1.0000
  H   H13       1.0  0.25846671316989495  0.43213918970892723  0.6299904626747121  1.0000
  H   H14       1.0  0.9466640268497386  0.6953000110072981  0.49388298296337746  1.0000
  H   H15       1.0  0.0006439778017152995  0.2983974173356573  0.5215531621907488  1.0000
  H   H16       1.0  0.8526684920551661  0.7959120635575161  0.4247132687938375  1.0000
  H   H17       1.0  0.09334630924170993  0.18983791774214615  0.5779957521867729  1.0000
  H   H18       1.0  0.11474188453473032  0.596401336970445  0.4559832559498034  1.0000
  H   H19       1.0  0.8837192409397902  0.3954177876400991  0.5529578342634522  1.0000
  H   H20       1.0  0.47638296300893046  0.6102669075931787  0.2826731646110758  1.0000
  H   H21       1.0  0.5270875164883152  0.39503691688786097  0.7136682978209521  1.0000
  H   H22       1.0  0.48219125602633267  0.6116421950954561  0.1552636462351131  1.0000
  H   H23       1.0  0.528671150594846  0.38176099724476137  0.2866591492361152  1.0000
  H   H24       1.0  0.5361415402459571  0.3897209582737418  0.8414735041575199  1.0000
  H   H25       1.0  0.5355666795537813  0.381467722282956  0.159141676281088  1.0000
  H   H26       1.0  0.5006051396362068  0.6208594892527729  0.8453582990592068  1.0000
  H   H27       1.0  0.19749738615608686  0.3205189933783999  0.4452229583366644  1.0000
  H   H28       1.0  0.2158556691715745  0.25805166122324164  0.3770068466707244  1.0000
  H   H29       1.0  0.2502942700823141  0.4208032988321408  0.3641937345663422  1.0000
  H   H30       1.0  0.248534725253478  0.35942324484391014  0.2959574481338905  1.0000
  H   H31       1.0  0.0239889530866577  0.3318897478373088  0.3203948875674243  1.0000
  H   H32       1.0  0.04650538071542341  0.4239220512248992  0.2996280034136447  1.0000
  H   H33       1.0  0.0298209282875277  0.3971939596836336  0.3859433191588835  1.0000
  H   H34       1.0  0.49863610367460615  0.6247045917161458  0.7179478356795597  1.0000
  H   H35       1.0  0.694379323422403  0.7331883250635942  0.6497448199084629  1.0000
  H   H36       1.0  0.8154561561015824  0.7477993786561402  0.5916399343193888  1.0000
  H   H37       1.0  0.7488681191675398  0.5990924543382263  0.6467847014608522  1.0000
  H   H38       1.0  0.8810604419035998  0.6212130966403964  0.6020488829224107  1.0000
  H   H39       1.0  0.9513320215651079  0.7000391306805724  0.7025594077704936  1.0000
  H   H40       1.0  0.9350328534227472  0.6083689649989666  0.7264255801609707  1.0000
  H   H41       1.0  0.8202696373388322  0.6717839809821559  0.7469931290985484  1.0000
  H   H42       1.0  0.7778509901830404  0.33621934748271803  0.6313319391194767  1.0000
  H   H43       1.0  0.7667488122403939  0.2466109392733102  0.6007625086018962  1.0000
  H   H44       1.0  0.6585718869567357  0.2992469679071021  0.7342818002422362  1.0000
  H   H45       1.0  0.4089482400582938  0.4008213749678192  0.05938551622797661  1.0000
  H   H46       1.0  0.666188183323868  0.20859696893245433  0.7083255498407935  1.0000
  H   H47       1.0  0.9005775121667766  0.2163559867146675  0.7128201287427416  1.0000
  H   H48       1.0  0.8368379160941403  0.23365613296274296  0.7933623413184848  1.0000
  H   H49       1.0  0.8873638366271733  0.305955950557106  0.7415665961774351  1.0000
  H   H50       1.0  0.2936459715981812  0.6651001957843905  0.3187155623495883  1.0000
  H   H51       1.0  0.3522714510458727  0.7538569357301911  0.32770944604939695  1.0000
  H   H52       1.0  0.1081424784784915  0.7018122407312504  0.38346640230582807  1.0000
  H   H53       1.0  0.15942483019176729  0.7914668901461756  0.384578529573588  1.0000
  H   H54       1.0  0.1531885172802703  0.7939162118721159  0.2542868165053136  1.0000
  H   H55       1.0  0.0080817582609853  0.7726507641141539  0.2874509424136845  1.0000
  H   H56       1.0  0.6238722005814238  0.5987582274884248  0.9416970449426855  1.0000
  H   H57       1.0  0.10134301514363389  0.7034999551137134  0.2549985987468659  1.0000
  H   H58       1.0  0.41150606955591934  0.4049267036786972  0.9335377929303093  1.0000
  H   H59       1.0  0.620443104431338  0.5948660769325401  0.06752321927942259  1.0000
  H   H60       1.0  0.3696005099348127  0.17273747806171977  0.4136238633202041  1.0000
  C   C1        1.0  0.506204487598957  0.5115502726502613  0.6318895248473808  1.0000
  C   C2        1.0  0.5255070188364144  0.4413877358916736  0.814666703790543  1.0000
  C   C3        1.0  0.5099955499207951  0.4966421040997774  0.1481342132287651  1.0000
  C   C4        1.0  0.517983375004519  0.504941333283462  0.8526749829273187  1.0000
  C   C5        1.0  0.5213728939026653  0.43185042375205307  0.18592836773063937  1.0000
  C   C6        1.0  0.5091194439674211  0.571083226075956  0.8168751232319948  1.0000
  C   C7        1.0  0.5183313480682159  0.4315688311780195  0.256912606574609  1.0000
  C   C8        1.0  0.5068420905876323  0.5736035962378666  0.7458231040916489  1.0000
  C   C9        1.0  0.5023549592653324  0.49604889869625873  0.2919279178944123  1.0000
  C   C10       1.0  0.5119926640554908  0.509919093741452  0.7085180964263955  1.0000
  C   C11       1.0  0.4579474741216387  0.4437705004120574  0.033730294408712794  1.0000
  C   C12       1.0  0.4988682179225706  0.49636548809215947  0.3684198582713237  1.0000
  C   C13       1.0  0.5748554336930168  0.5557598586757779  0.9672535856062652  1.0000
  C   C14       1.0  0.4595854527150962  0.44604947431393777  0.9627703039963009  1.0000
  C   C15       1.0  0.5729338726987975  0.5535882709127264  0.0381761553880295  1.0000
  C   C16       1.0  0.7338438876034131  0.4903662076165319  0.49865121679917485  1.0000
  C   C17       1.0  0.264593956991213  0.49865488907209976  0.5057504406351541  1.0000
  C   C18       1.0  0.5178319523650501  0.5021775635249099  0.927944192483487  1.0000
  C   C19       1.0  0.5140388660122283  0.4977099200519036  0.0729526982822364  1.0000
  C   C20       1.0  0.42451688918867336  0.2718292249523203  0.45813714305104714  1.0000
  C   C21       1.0  0.5928954313058057  0.7274279556049379  0.5239927344989823  1.0000
  C   C22       1.0  0.42095529789991565  0.19686191032980824  0.4555565512838697  1.0000
  C   C23       1.0  0.12772062557306899  0.4956417795614031  0.5093998347657163  1.0000
  C   C24       1.0  0.597550003418334  0.8025414471962978  0.5256643644078948  1.0000
  C   C25       1.0  0.48871985742355417  0.1555301661602826  0.5039476297234557  1.0000
  C   C26       1.0  0.5095823153838951  0.8428730092791314  0.48773939132425437  1.0000
  C   C27       1.0  0.554125348267732  0.19259599002401734  0.5551055271502605  1.0000
  C   C28       1.0  0.4231058254386824  0.8056099784116102  0.44787880475421094  1.0000
  C   C29       1.0  0.5512476131150378  0.2677565913147504  0.5548710191010571  1.0000
  C   C30       1.0  0.4250413261932805  0.7302939674529227  0.4492164198678097  1.0000
  C   C31       1.0  0.5654315885623333  0.0340468814541808  0.5465430548469428  1.0000
  C   C32       1.0  0.4345317182492323  0.964220129660632  0.44441057372604575  1.0000
  C   C33       1.0  0.5707862355973816  0.959488270078353  0.5424732557928564  1.0000
  C   C34       1.0  0.8709708986846252  0.4943250055527886  0.49753661096876567  1.0000
  C   C35       1.0  0.4277820141049915  0.03866789294671241  0.4491325188783648  1.0000
  C   C36       1.0  0.5056802007515132  0.9223962609302064  0.4911857582483846  1.0000
  C   C37       1.0  0.4933585920924344  0.0759158273774219  0.5001990822293578  1.0000
  C   C38       1.0  0.7573675894894478  0.6543868998940071  0.3287082409250317  1.0000
  C   C39       1.0  0.2737333271889639  0.3183862045275774  0.6499936822046024  1.0000
  C   C40       1.0  0.8083570116113846  0.5981787897708843  0.3681181091014665  1.0000
  C   C41       1.0  0.22115828181710379  0.37937078541106933  0.6185238162083451  1.0000
  C   C42       1.0  0.8762916481261486  0.6122232905333506  0.42831381943427965  1.0000
  C   C43       1.0  0.12247750790700711  0.37320157360288425  0.5716264239636928  1.0000
  C   C44       1.0  0.8932007372919698  0.6840121804195011  0.44738611783841986  1.0000
  C   C45       1.0  0.06415390641908658  0.436570354997862  0.5368339865310716  1.0000
  C   C46       1.0  0.07669287979972239  0.3040584753769764  0.5583530163119547  1.0000
  C   C47       1.0  0.8404600212296175  0.7403990502944569  0.4085081678375886  1.0000
  C   C48       1.0  0.1292149265013194  0.2429902547638108  0.5899058291532029  1.0000
  C   C49       1.0  0.7722905669334211  0.7257427895698927  0.3490260105947057  1.0000
  C   C50       1.0  0.22846581336759186  0.24992589899166268  0.6357646807274193  1.0000
  C   C51       1.0  0.06233212887008928  0.5523798474421968  0.47745803376755447  1.0000
  C   C52       1.0  0.9366003237438745  0.4385923516186737  0.5306616937301456  1.0000
  C   C53       1.0  0.24166440658970603  0.31157333187810815  0.3963703973220305  1.0000
  C   C54       1.0  0.208016320422125  0.3711833806137436  0.3453984030345723  1.0000
  C   C55       1.0  0.0695648544240655  0.38135925978290447  0.337438689578704  1.0000
  C   C56       1.0  0.9348836250712934  0.5526540969551734  0.469054096880825  1.0000
  C   C57       1.0  0.7509747700188425  0.7075300643350317  0.6110214670483173  1.0000
  C   C58       1.0  0.8174720153532463  0.6412227270153751  0.6400337903214464  1.0000
  C   C59       1.0  0.8847415837032455  0.6564020001099211  0.707577494841736  1.0000
  C   C60       1.0  0.7231898781097286  0.28690858566045563  0.6330815672165286  1.0000
  C   C61       1.0  0.714296168311364  0.26041311181876386  0.7065116178790021  1.0000
  C   C62       1.0  0.8416060446882341  0.25352528496620863  0.7404843363758147  1.0000
  C   C63       1.0  0.29173234066745823  0.7135338122453662  0.35038677211792896  1.0000
  C   C64       1.0  0.16139430094179366  0.7414231476058932  0.3550418180419186  1.0000
  C   C65       1.0  0.10298022327183531  0.7537935040870638  0.2839995944398481  1.0000
  C   C66       1.0  0.48963936079412923  0.5606853667949424  0.2546599346554643  1.0000
  C   C67       1.0  0.5217672363445303  0.4438742544256017  0.7436896765049568  1.0000
  C   C68       1.0  0.494026557551706  0.5611024979107955  0.1838392166862519  1.0000
  N   N1        1.0  0.4887408248462179  0.3069199324067924  0.5068075857730747  1.0000
  N   N2        1.0  0.5067579108907196  0.6917907917373756  0.48752374383824565  1.0000
  O   O1        1.0  0.4869927201732906  0.4516036882983061  0.6030352791889442  1.0000
  O   O2        1.0  0.6723011603936159  0.6829892852545429  0.5563149810150136  1.0000
  O   O3        1.0  0.6064021506382246  0.3084349299199404  0.602682051242212  1.0000
  O   O4        1.0  0.3438425415795763  0.689269936600745  0.41541853893941993  1.0000
  O   O5        1.0  0.46586289162186734  0.5552379977251081  0.3952915631109946  1.0000
  O   O6        1.0  0.5205965151793919  0.5721589689255994  0.6024682495013208  1.0000
  O   O7        1.0  0.528813715039803  0.4383195761734484  0.3997506198062196  1.0000
  O   O8        1.0  0.6890945172363132  0.4292690018638725  0.5137726822605018  1.0000
  O   O9        1.0  0.3133721713856303  0.5594795421406931  0.5158027439665318  1.0000
  O   O10       1.0  0.6742765250610746  0.5480977941711347  0.4862848538480264  1.0000
  O   O11       1.0  0.3184468250320052  0.4405324129826482  0.49005012505683254  1.0000
  O   O12       1.0  0.3730085752764793  0.31442904567732916  0.4089086534135475  1.0000
