data_image0
_chemical_formula_structural       Cs4H28C28O16
_chemical_formula_sum              "Cs4 H28 C28 O16"
_cell_length_a       5.63950970303132
_cell_length_b       11.833958456153534
_cell_length_c       13.503569094727121
_cell_angle_alpha    99.8726894487082
_cell_angle_beta     90.0000313407658
_cell_angle_gamma    90.00034367173501

_space_group_name_H-M_alt    "P 1"
_space_group_IT_number       1

loop_
  _space_group_symop_operation_xyz
  'x, y, z'

loop_
  _atom_site_type_symbol
  _atom_site_label
  _atom_site_symmetry_multiplicity
  _atom_site_fract_x
  _atom_site_fract_y
  _atom_site_fract_z
  _atom_site_occupancy
  Cs  Cs1       1.0  0.7313563326588695  0.6063996618121692  0.4416562823058996  1.0000
  Cs  Cs2       1.0  0.23136110118195322  0.39359690622340077  0.05834634155564089  1.0000
  Cs  Cs3       1.0  0.2686376020905712  0.39359938253904403  0.5583404640107617  1.0000
  Cs  Cs4       1.0  0.76863992637999  0.6064004258795493  0.9416679207885821  1.0000
  H   H1        1.0  0.6619108311190801  0.9329682189481902  0.6957410378109756  1.0000
  H   H2        1.0  0.161942115485644  0.06702352639726429  0.804257216861437  1.0000
  H   H3        1.0  0.33806891795034494  0.06702224863573751  0.3042573830888244  1.0000
  H   H4        1.0  0.838067778150112  0.9329840957893439  0.19574377939244414  1.0000
  H   H5        1.0  0.2822777049691041  0.7766588542542794  0.8970954670546545  1.0000
  H   H6        1.0  0.7822894298700973  0.22333927963299524  0.6028971191437762  1.0000
  H   H7        1.0  0.7177055905117486  0.22333247053041566  0.10290012035382999  1.0000
  H   H8        1.0  0.21770805134575977  0.7766692009272448  0.3971077086970851  1.0000
  H   H9        1.0  0.6472166215165275  0.9757721274263533  0.8828088830899362  1.0000
  H   H10       1.0  0.1472543382026217  0.024215283006817905  0.617193159511416  1.0000
  H   H11       1.0  0.35276312760984047  0.024227775561961096  0.11719317594291569  1.0000
  H   H12       1.0  0.8527573285983792  0.9757854782929912  0.38281199056100224  1.0000
  H   H13       1.0  0.9605909789390098  0.8999397564249635  0.9841969412448961  1.0000
  H   H14       1.0  0.4605993564148321  0.10004694061731811  0.5157939833154046  1.0000
  H   H15       1.0  0.03939231652500301  0.10004899451077878  0.0157945570374807  1.0000
  H   H16       1.0  0.5394087639149774  0.8999435268789073  0.4842036970306652  1.0000
  H   H17       1.0  0.6670420491347784  0.5584312596463122  0.6784193680773426  1.0000
  H   H18       1.0  0.16705646907497856  0.4415742272217501  0.8215890971370783  1.0000
  H   H19       1.0  0.3329625248778427  0.44157464641054384  0.3215776678154327  1.0000
  H   H20       1.0  0.8329569709387457  0.5584282490037041  0.1784133482104338  1.0000
  H   H21       1.0  0.8213633193368466  0.44655213697696894  0.6810412725798685  1.0000
  H   H22       1.0  0.3213701852150948  0.5534581331244013  0.8189686991494369  1.0000
  H   H23       1.0  0.17863416184720657  0.5534511966843141  0.3189598203985256  1.0000
  H   H24       1.0  0.6786432548001998  0.4465443437668456  0.1810374490228597  1.0000
  H   H25       1.0  0.1400221922821103  0.759108039856038  0.5761854956070636  1.0000
  H   H26       1.0  0.6400343938563752  0.2408887835541692  0.9238238822489463  1.0000
  H   H27       1.0  0.859978835220062  0.24087985564409556  0.4238184635194883  1.0000
  H   H28       1.0  0.35998259260120596  0.7591196970373131  0.0761809455996314  1.0000
  C   C1        1.0  0.15166702931467313  0.7820938293508705  0.7487234097963693  1.0000
  C   C2        1.0  0.6517089598658005  0.2178953104049413  0.751276672167691  1.0000
  C   C3        1.0  0.8483091733376114  0.2178949230382514  0.2512762346977269  1.0000
  C   C4        1.0  0.3482938409328469  0.7821088801936398  0.24872010619016996  1.0000
  C   C5        1.0  0.7959063394212721  0.8986262922568571  0.7406159248559803  1.0000
  C   C6        1.0  0.2959379892669318  0.10135301625326322  0.7593790232132562  1.0000
  C   C7        1.0  0.20407695604430395  0.10136245934467071  0.2593792762511811  1.0000
  C   C8        1.0  0.7040577187238172  0.8986520329937807  0.24062306786360213  1.0000
  C   C9        1.0  0.14380485340407742  0.8102497347903113  0.8539458604748588  1.0000
  C   C10       1.0  0.6438304057377523  0.18974624050388664  0.6460493208784329  1.0000
  C   C11       1.0  0.8561766688685142  0.18974073253014012  0.14605107929573077  1.0000
  C   C12       1.0  0.35617594150381393  0.8102639540612488  0.3539476182856304  1.0000
  C   C13       1.0  0.7892197715669341  0.922397482694265  0.8451090243093659  1.0000
  C   C14       1.0  0.2892510542000437  0.07759724322291113  0.654886755146549  1.0000
  C   C15       1.0  0.21075288471120507  0.07759727285110071  0.15488633759838416  1.0000
  C   C16       1.0  0.7107606126410675  0.9224103796323391  0.34511794393282  1.0000
  C   C17       1.0  0.9649227615045889  0.8795331393770882  0.9024541811280287  1.0000
  C   C18       1.0  0.4649509528283602  0.12045357210939764  0.5975397091277586  1.0000
  C   C19       1.0  0.035051667932457106  0.1204538970211217  0.0975422435713256  1.0000
  C   C20       1.0  0.5350447551299595  0.8795463299723781  0.40245716595671155  1.0000
  C   C21       1.0  0.9777089512705502  0.8294842180384593  0.6916505850943011  1.0000
  C   C22       1.0  0.47776450626386696  0.170507681226951  0.8083463095877904  1.0000
  C   C23       1.0  0.0222672513951281  0.17050710673486694  0.308345002311377  1.0000
  C   C24       1.0  0.5222595730321588  0.8295050870823816  0.1916539781444371  1.0000
  C   C25       1.0  0.3319694400618758  0.7011260509347824  0.6968163675206043  1.0000
  C   C26       1.0  0.8319715818473982  0.298881679826664  0.8031924857333762  1.0000
  C   C27       1.0  0.6680528659634534  0.2988747110478656  0.30319248538081217  1.0000
  C   C28       1.0  0.168045404593741  0.7011250826462146  0.19679727328185243  1.0000
  O   O1        1.0  0.3445555256087189  0.6884738735592394  0.6003152932530184  1.0000
  O   O2        1.0  0.8445543509362852  0.3115321811374656  0.8996881284703447  1.0000
  O   O3        1.0  0.6554685536236207  0.31152774535501493  0.3996892450264652  1.0000
  O   O4        1.0  0.15545908911379766  0.6884771550455185  0.10030497910462802  1.0000
  O   O5        1.0  0.46227300816040895  0.6441976399668903  0.7482059681879818  1.0000
  O   O6        1.0  0.9623041465516879  0.35580707704718867  0.7518002514258697  1.0000
  O   O7        1.0  0.5377422050421503  0.35580226321140174  0.2517968314238601  1.0000
  O   O8        1.0  0.0377110666665388  0.644196255044598  0.24819195478004727  1.0000
  O   O9        1.0  0.7708131233952074  0.5004636273739678  0.6364035284814946  1.0000
  O   O10       1.0  0.27083003283046747  0.4995387610887647  0.8636045037815236  1.0000
  O   O11       1.0  0.22918967739929036  0.49953970589636754  0.36359534280413186  1.0000
  O   O12       1.0  0.729165675167259  0.5004671466849546  0.1364021594521887  1.0000
  O   O13       1.0  0.9863531516502207  0.8081597022937432  0.5899278634916811  1.0000
  O   O14       1.0  0.48638067158621134  0.19182793571945206  0.9100669130541803  1.0000
  O   O15       1.0  0.013639009813644501  0.1918256182779601  0.41006608198559746  1.0000
  O   O16       1.0  0.5136256756976466  0.8081891213332357  0.08993475907152512  1.0000
