data_image0
_chemical_formula_structural       Co12H144C192N24O48
_chemical_formula_sum              "Co12 H144 C192 N24 O48"
_cell_length_a       17.540996228732087
_cell_length_b       17.540234016985963
_cell_length_c       20.138377076993223
_cell_angle_alpha    89.99838649277494
_cell_angle_beta     90.01033916110244
_cell_angle_gamma    90.00371854600118

_space_group_name_H-M_alt    "P 1"
_space_group_IT_number       1

loop_
  _space_group_symop_operation_xyz
  'x, y, z'

loop_
  _atom_site_type_symbol
  _atom_site_label
  _atom_site_symmetry_multiplicity
  _atom_site_fract_x
  _atom_site_fract_y
  _atom_site_fract_z
  _atom_site_occupancy
  Co  Co1       1.0  0.7466167203464523  0.7552838077638243  0.0005684264183685  1.0000
  Co  Co2       1.0  0.7447343021497018  0.24669418032378604  0.0005934016063875  1.0000
  Co  Co3       1.0  0.25329236630987145  0.24480311838248528  0.00057838504069  1.0000
  Co  Co4       1.0  0.25521070018510983  0.7532929758966133  0.0005827111804564  1.0000
  Co  Co5       1.0  0.738235957377512  0.25352431511402057  0.3334801129753941  1.0000
  Co  Co6       1.0  0.2466561927351307  0.23829876353192952  0.333430490080012  1.0000
  Co  Co7       1.0  0.2617134602478046  0.7466334045280334  0.3334745762101718  1.0000
  Co  Co8       1.0  0.7534391598107036  0.7617728739983961  0.3334656169675938  1.0000
  Co  Co9       1.0  0.23853265808075014  0.25004668411828856  0.6661809554410496  1.0000
  Co  Co10      1.0  0.24982837450189524  0.7385376826743838  0.6661942047931433  1.0000
  Co  Co11      1.0  0.7614975197146167  0.7499252833559708  0.6662067117011148  1.0000
  Co  Co12      1.0  0.7500205182696291  0.2614952811249863  0.6662182756592614  1.0000
  H   H1        1.0  0.49480269893249573  0.24050880004637776  0.6045059450832966  1.0000
  H   H2        1.0  0.2594049790235786  0.9948166400268333  0.6045497936787783  1.0000
  H   H3        1.0  0.5052169013220933  0.7595962835916976  0.6044904452653129  1.0000
  H   H4        1.0  0.7405388073480099  0.005188098597621099  0.6045593120894708  1.0000
  H   H5        1.0  0.9939841064750253  0.26065409621352126  0.39541164020140235  1.0000
  H   H6        1.0  0.239572717680467  0.4939839758554497  0.3953578021057425  1.0000
  H   H7        1.0  0.0060261153743326  0.7395141702590563  0.3954507548536625  1.0000
  H   H8        1.0  0.7604181059423424  0.5060503139569478  0.39540180426198657  1.0000
  H   H9        1.0  0.3898601991409762  0.2787160414205942  0.4854246258287773  1.0000
  H   H10       1.0  0.22129611016084283  0.8899145047104468  0.485432252015066  1.0000
  H   H11       1.0  0.6101756258400713  0.7214362111621142  0.485432415551081  1.0000
  H   H12       1.0  0.7785344846718658  0.11017673778236767  0.48547592021539293  1.0000
  H   H13       1.0  0.8899937765758852  0.22137794087277027  0.5148470933383109  1.0000
  H   H14       1.0  0.27872268447669063  0.39006224220955227  0.5149000721070608  1.0000
  H   H15       1.0  0.11000999343564641  0.7787699400685426  0.5149263121130687  1.0000
  H   H16       1.0  0.7212428878784963  0.6100195037131115  0.5148802830752643  1.0000
  H   H17       1.0  0.45377153103645906  0.2989082595921673  0.379833967328871  1.0000
  H   H18       1.0  0.2013099720847649  0.9538001118020815  0.3798022278204343  1.0000
  H   H19       1.0  0.5462291658580796  0.7013671224288771  0.3797791348089988  1.0000
  H   H20       1.0  0.7987026961040941  0.04628428028047439  0.3798640099854112  1.0000
  H   H21       1.0  0.9544297571163156  0.20159866596669224  0.6201523140450576  1.0000
  H   H22       1.0  0.2983686136528121  0.454482785744986  0.6201764281796258  1.0000
  H   H23       1.0  0.045607934049058906  0.7984141232865551  0.6202284352095901  1.0000
  H   H24       1.0  0.7015088781155968  0.5455830200368297  0.620156637735498  1.0000
  H   H25       1.0  0.5715156334549008  0.2927086128490543  0.3100357262573255  1.0000
  H   H26       1.0  0.20751715282468552  0.0715663443157979  0.3100070398030041  1.0000
  H   H27       1.0  0.4284431515446058  0.7075621764333277  0.3100209426141944  1.0000
  H   H28       1.0  0.7925362660086962  0.9285271407538289  0.31008936378629676  1.0000
  H   H29       1.0  0.07213277294104609  0.20954372419137704  0.689869474907603  1.0000
  H   H30       1.0  0.29028893805940476  0.5721634101789234  0.6898780807843609  1.0000
  H   H31       1.0  0.9279342711436911  0.7903858614261806  0.6899326422099037  1.0000
  H   H32       1.0  0.7095027512534031  0.42790071495957704  0.6898837914636857  1.0000
  H   H33       1.0  0.7004113014092326  0.21646893552518517  0.4696330755355973  1.0000
  H   H34       1.0  0.2837126667784773  0.20047330333336788  0.4696116552204757  1.0000
  H   H35       1.0  0.2995887368219742  0.7837094804193399  0.4696399875022479  1.0000
  H   H36       1.0  0.7164350231837632  0.7995603071145182  0.46968376652383625  1.0000
  H   H37       1.0  0.20030109896010373  0.2852119421537367  0.5296451842965411  1.0000
  H   H38       1.0  0.21481773148462932  0.7003648005263727  0.5295642464664783  1.0000
  H   H39       1.0  0.7997450813826177  0.714744474288935  0.5296767847922226  1.0000
  H   H40       1.0  0.7852124835430132  0.2997409874364648  0.5296852211445682  1.0000
  H   H41       1.0  0.5910316855629746  0.22218358019335938  0.5458316970714492  1.0000
  H   H42       1.0  0.27785194856536327  0.09110276135029952  0.5458659562667378  1.0000
  H   H43       1.0  0.40900475799409725  0.7778823471549144  0.5458369679716384  1.0000
  H   H44       1.0  0.722163978991354  0.9089472008164491  0.5458781851510537  1.0000
  H   H45       1.0  0.09084760936547552  0.2779577189043819  0.4535650543483811  1.0000
  H   H46       1.0  0.22220092768083793  0.5909281597934565  0.453498966023787  1.0000
  H   H47       1.0  0.9091604788828604  0.7221083318399835  0.45358774598027196  1.0000
  H   H48       1.0  0.7778795555499941  0.4091601290635651  0.4535813412905156  1.0000
  H   H49       1.0  0.7534736936201513  0.5072424573681218  0.2736665116203341  1.0000
  H   H50       1.0  0.9928959866376561  0.2534867923407944  0.2736560519680822  1.0000
  H   H51       1.0  0.2465288098704974  0.49287899540923524  0.2736246163710305  1.0000
  H   H52       1.0  0.007166942942042502  0.7463763983112768  0.2736792781441011  1.0000
  H   H53       1.0  0.2514837794779011  0.9961844054874617  0.7267784720315689  1.0000
  H   H54       1.0  0.5037568372412197  0.7514107926636341  0.7268235275885007  1.0000
  H   H55       1.0  0.7487249364556163  0.0037844723290944996  0.7268796571005114  1.0000
  H   H56       1.0  0.49616910527802094  0.24852101925708325  0.7267764818880877  1.0000
  H   H57       1.0  0.7229370537760503  0.4057123104789611  0.1504583261945598  1.0000
  H   H58       1.0  0.0943812912673394  0.22261853273565893  0.15047157547292042  1.0000
  H   H59       1.0  0.2773658602506259  0.5944028622471363  0.15045299035675444  1.0000
  H   H60       1.0  0.9057061320384323  0.777458434224485  0.15049434679777823  1.0000
  H   H61       1.0  0.22319138365536872  0.0997225527341072  0.849035467150479  1.0000
  H   H62       1.0  0.40014853362281144  0.7228653631543551  0.8490004103866013  1.0000
  H   H63       1.0  0.7770097516276453  0.9001694076307416  0.849129456599556  1.0000
  H   H64       1.0  0.599719077650576  0.27680310210919856  0.8490463077508039  1.0000
  H   H65       1.0  0.7131082985726637  0.4697310798315683  0.0451225631151573  1.0000
  H   H66       1.0  0.0303394232859091  0.21265249267515424  0.0451995244880337  1.0000
  H   H67       1.0  0.28734026918003513  0.5304017462334298  0.04517546632816761  1.0000
  H   H68       1.0  0.9696536519941718  0.7873343658798646  0.04525786833399081  1.0000
  H   H69       1.0  0.20724222323917021  0.035868284829099706  0.9541457611683911  1.0000
  H   H70       1.0  0.4639974078648734  0.7066555809486701  0.954053286672135  1.0000
  H   H71       1.0  0.7927368374046396  0.9641040848744639  0.9543290417006746  1.0000
  H   H72       1.0  0.5358670184038061  0.29270220200304914  0.9541747223207082  1.0000
  H   H73       1.0  0.7232538006294933  0.5895089700338403  0.9770659023209022  1.0000
  H   H74       1.0  0.9105533916542826  0.22293555816852967  0.9771163194831942  1.0000
  H   H75       1.0  0.2770338877297434  0.41064511081063415  0.9770943319385169  1.0000
  H   H76       1.0  0.0893854027036411  0.7770286607129863  0.9771312851890457  1.0000
  H   H77       1.0  0.21298406226282654  0.9164960331245668  0.022347781152355105  1.0000
  H   H78       1.0  0.5833281312074945  0.7125147611160115  0.022354382142552306  1.0000
  H   H79       1.0  0.7868526095692446  0.0834750228898429  0.0224629221462678  1.0000
  H   H80       1.0  0.4164925494626602  0.2869751169396507  0.022332184736519902  1.0000
  H   H81       1.0  0.7767820826890175  0.7179654164432919  0.1437213071567029  1.0000
  H   H82       1.0  0.782247499069996  0.27686828621191484  0.1436998459052745  1.0000
  H   H83       1.0  0.2231517166397907  0.28225429365571847  0.1436819393804853  1.0000
  H   H84       1.0  0.21780943787744184  0.7232031968882139  0.1437257574660578  1.0000
  H   H85       1.0  0.269131502983143  0.7862592248891787  0.8570292727731612  1.0000
  H   H86       1.0  0.713497974571183  0.7693251777848927  0.8571426401911424  1.0000
  H   H87       1.0  0.7308797364220824  0.2136056776015707  0.8570247024223933  1.0000
  H   H88       1.0  0.28624989806024803  0.23086240195970484  0.8569664291125392  1.0000
  H   H89       1.0  0.7720394880334495  0.6062363831852764  0.21688212864152226  1.0000
  H   H90       1.0  0.8939213724381219  0.2718913204362393  0.2168848329229931  1.0000
  H   H91       1.0  0.2281393127902902  0.3938960275259547  0.216884472206317  1.0000
  H   H92       1.0  0.10619358235425122  0.7281897766629583  0.21693986159823453  1.0000
  H   H93       1.0  0.2688966152428094  0.8980525202867966  0.7838486957805983  1.0000
  H   H94       1.0  0.6017771736570053  0.7689561482176116  0.7838961412549923  1.0000
  H   H95       1.0  0.7312538672881318  0.10179878240292338  0.7838916127863342  1.0000
  H   H96       1.0  0.3980449371308766  0.2310576279261625  0.7838113664239686  1.0000
  H   H97       1.0  0.9191670131141406  0.8296926332098238  0.8491831360008534  1.0000
  H   H98       1.0  0.669805817002441  0.4191096330226003  0.8491617584783598  1.0000
  H   H99       1.0  0.08085569175700161  0.1698139184362688  0.8491853699351353  1.0000
  H   H100      1.0  0.3300567116665931  0.5807834521650291  0.8492777388982519  1.0000
  H   H101      1.0  0.4238131254005069  0.6653900404451462  0.15619638954941453  1.0000
  H   H102      1.0  0.834654516397123  0.9240795086061482  0.15618954048772343  1.0000
  H   H103      1.0  0.5762418556348124  0.3346713476471663  0.1562212973261268  1.0000
  H   H104      1.0  0.1653822271806078  0.07624926464118428  0.15619785125118577  1.0000
  H   H105      1.0  0.9468526122081189  0.6572970392733097  0.8662086501938974  1.0000
  H   H106      1.0  0.8421858196605427  0.44693157002176054  0.8661836966992098  1.0000
  H   H107      1.0  0.053011737870512804  0.3421924243994424  0.8662370683925005  1.0000
  H   H108      1.0  0.1576865248374872  0.5529062356191474  0.8662793979809891  1.0000
  H   H109      1.0  0.45129888258079387  0.8362340170669569  0.1290154964289414  1.0000
  H   H110      1.0  0.6638287475905856  0.9516202182818105  0.1289363277777795  1.0000
  H   H111      1.0  0.5486785986404782  0.16383565677044493  0.1290239193293061  1.0000
  H   H112      1.0  0.3362245556009285  0.04872881721320249  0.1290122191917931  1.0000
  H   H113      1.0  0.037337838039071904  0.6008100233776261  0.7880044143459273  1.0000
  H   H114      1.0  0.898599872817563  0.5371204561830398  0.7881648171558596  1.0000
  H   H115      1.0  0.9626818411242367  0.3986585867219076  0.7883751152023137  1.0000
  H   H116      1.0  0.1012510807258451  0.4626058396002505  0.7883447959066245  1.0000
  H   H117      1.0  0.5389714216183351  0.8971874144260708  0.210487940291614  1.0000
  H   H118      1.0  0.6029644441376831  0.03903104306455419  0.21043496226165104  1.0000
  H   H119      1.0  0.4610891770555697  0.10289217741488701  0.21050652043200563  1.0000
  H   H120      1.0  0.39716570441880356  0.9610941609149105  0.210531199164862  1.0000
  H   H121      1.0  0.146033184826095  0.6149748307859466  0.70957542449176  1.0000
  H   H122      1.0  0.8847088931985141  0.645855852293316  0.7096714624993723  1.0000
  H   H123      1.0  0.8539017390053233  0.3848132916366893  0.7099101203200463  1.0000
  H   H124      1.0  0.11515419979840398  0.3539134536785937  0.7098284773002916  1.0000
  H   H125      1.0  0.647660651516901  0.8853916521802888  0.28928544486335994  1.0000
  H   H126      1.0  0.6147052850585908  0.14768776795492042  0.2892924373770356  1.0000
  H   H127      1.0  0.3524118156344471  0.11468938976180004  0.28931903674561  1.0000
  H   H128      1.0  0.38534096344034197  0.8524263392656691  0.2893557394403602  1.0000
  H   H129      1.0  0.14550247159851895  0.8499166207490844  0.7298169264256344  1.0000
  H   H130      1.0  0.6497642213755128  0.6456409546377271  0.7296547293844711  1.0000
  H   H131      1.0  0.8543699104353096  0.14980757295688116  0.7295879186251853  1.0000
  H   H132      1.0  0.35013609200692036  0.35440535865721756  0.7296190209000244  1.0000
  H   H133      1.0  0.649322172241135  0.6500644489153372  0.2721664325838801  1.0000
  H   H134      1.0  0.8500083278604579  0.14949896062299223  0.2721942177031167  1.0000
  H   H135      1.0  0.3507341796500683  0.35001315433253666  0.272160211006323  1.0000
  H   H136      1.0  0.1500292241092254  0.8507764718582607  0.272196975351747  1.0000
  H   H137      1.0  0.0350622989165501  0.8462881216708666  0.8071616505168678  1.0000
  H   H138      1.0  0.653140234833586  0.5351886102784889  0.8070523596179839  1.0000
  H   H139      1.0  0.9648512837868779  0.1531422489313314  0.806945837094446  1.0000
  H   H140      1.0  0.34675625972050744  0.46480617698112775  0.8070198636511989  1.0000
  H   H141      1.0  0.539318090303368  0.6513334938383152  0.1945602126154355  1.0000
  H   H142      1.0  0.8487772376277576  0.039507911005479485  0.19457054900482262  1.0000
  H   H143      1.0  0.4607089708647295  0.34873178768354046  0.1945642493761426  1.0000
  H   H144      1.0  0.15134104746714172  0.9607529234724977  0.1945797390525428  1.0000
  C   C1        1.0  0.3720570579268312  0.2550751345567477  0.6159315607076792  1.0000
  C   C2        1.0  0.2447371127813156  0.872088997035476  0.6159706404581939  1.0000
  C   C3        1.0  0.6279632178307822  0.7450215984016992  0.6159549564526898  1.0000
  C   C4        1.0  0.7550380282479595  0.127955276049569  0.6159828943904415  1.0000
  C   C5        1.0  0.8710887177818876  0.246938379175198  0.38462030987162177  1.0000
  C   C6        1.0  0.25329659203575267  0.3711002586091965  0.3846296291001323  1.0000
  C   C7        1.0  0.12891526630426142  0.7533020698647662  0.3846623904615711  1.0000
  C   C8        1.0  0.7467113732422918  0.6289412199045328  0.3846242732581047  1.0000
  C   C9        1.0  0.442708511183902  0.2526447965971029  0.5766926346035106  1.0000
  C   C10       1.0  0.2472574065479094  0.9427392820950401  0.5767259918547794  1.0000
  C   C11       1.0  0.5573195446261111  0.747482848495224  0.5766865631216334  1.0000
  C   C12       1.0  0.7526058990179862  0.05730454888337278  0.5767430721815147  1.0000
  C   C13       1.0  0.9420693913125364  0.24833741551098856  0.423409497466821  1.0000
  C   C14       1.0  0.2518457788672564  0.44208153576575876  0.4233959181915452  1.0000
  C   C15       1.0  0.05794609869143131  0.7518470517437947  0.42345592130371307  1.0000
  C   C16       1.0  0.7481337853504542  0.5579598315668546  0.42341884996944407  1.0000
  C   C17       1.0  0.4434163304131716  0.26472782358687397  0.5105034933950705  1.0000
  C   C18       1.0  0.23527572448475806  0.9434526079638058  0.5105255716119929  1.0000
  C   C19       1.0  0.5566121795030837  0.735401955708504  0.5105045603757575  1.0000
  C   C20       1.0  0.7646233794409979  0.05659449884016249  0.5105574542857312  1.0000
  C   C21       1.0  0.9433426127511737  0.2355435173585007  0.4895064411526349  1.0000
  C   C22       1.0  0.264582319944104  0.4433893035779164  0.4895025218744991  1.0000
  C   C23       1.0  0.05667069293745191  0.7645749652031527  0.4895588075227337  1.0000
  C   C24       1.0  0.7354167280961335  0.5566704569139346  0.48952995316255254  1.0000
  C   C25       1.0  0.5113544465689586  0.2607022407970589  0.4692259783695434  1.0000
  C   C26       1.0  0.23938859766233386  0.011383743970739598  0.4692405780898312  1.0000
  C   C27       1.0  0.4886711576915985  0.7394328604405089  0.4692148453535125  1.0000
  C   C28       1.0  0.7606045159093284  0.9886607063102131  0.4692727426049146  1.0000
  C   C29       1.0  0.011543041318326197  0.23963115543953245  0.5305129022122586  1.0000
  C   C30       1.0  0.2604379575522913  0.5115979747374338  0.5304793391731621  1.0000
  C   C31       1.0  0.9884805201623691  0.7603976370035426  0.5305599501042124  1.0000
  C   C32       1.0  0.7395223162868164  0.488455902093463  0.5305155472902499  1.0000
  C   C33       1.0  0.5075837017282154  0.2803392080895505  0.4015188939034929  1.0000
  C   C34       1.0  0.2198374858312491  0.007622564199856199  0.4015136795007166  1.0000
  C   C35       1.0  0.492420377752822  0.7198835935160375  0.4014988986265138  1.0000
  C   C36       1.0  0.780166594887973  0.9924565668020403  0.4015607231311548  1.0000
  C   C37       1.0  0.0080776157241758  0.2203787816376632  0.5982983705843382  1.0000
  C   C38       1.0  0.2795971894210539  0.5081232050415351  0.5982907120587271  1.0000
  C   C39       1.0  0.9919634987608461  0.7796255907847821  0.5983588952494615  1.0000
  C   C40       1.0  0.7202882852654326  0.49193874520013753  0.598306456626908  1.0000
  C   C41       1.0  0.5725780904939981  0.2766122369718644  0.36238481360283  1.0000
  C   C42       1.0  0.2235969887979508  0.07262644098921102  0.36236652370165967  1.0000
  C   C43       1.0  0.4273904672815618  0.7236192367406956  0.3623754282498197  1.0000
  C   C44       1.0  0.7764605027170576  0.9274471122995673  0.3624354384427022  1.0000
  C   C45       1.0  0.07307416281113892  0.22510254594387644  0.6373983958289173  1.0000
  C   C46       1.0  0.27481573208739724  0.5731067293814007  0.6373840506911321  1.0000
  C   C47       1.0  0.9269944845178344  0.774837283454559  0.6374613021028495  1.0000
  C   C48       1.0  0.7250471098035123  0.42695966041708994  0.6374185247128495  1.0000
  C   C49       1.0  0.6446554534368333  0.23400652305779346  0.45153121817438796  1.0000
  C   C50       1.0  0.26614839597555573  0.14471265146837445  0.45152957157556983  1.0000
  C   C51       1.0  0.3553408103590101  0.7661565131818759  0.4515373382928516  1.0000
  C   C52       1.0  0.733967587317558  0.8553198310257669  0.45157921755805563  1.0000
  C   C53       1.0  0.1447023938713556  0.26743470989570983  0.547938463987137  1.0000
  C   C54       1.0  0.2325893475432963  0.644766051534404  0.5478860662742377  1.0000
  C   C55       1.0  0.8553481712731498  0.7325148453358422  0.5479812909553418  1.0000
  C   C56       1.0  0.7674099081508031  0.3553305933351396  0.5479775710818515  1.0000
  C   C57       1.0  0.582709089986068  0.2371104035428289  0.4938127689907503  1.0000
  C   C58       1.0  0.2629770861517571  0.08275716298015817  0.49382594691299897  1.0000
  C   C59       1.0  0.41730339710008474  0.7629851362481546  0.49381374579167675  1.0000
  C   C60       1.0  0.7370690404972466  0.9172756639971172  0.4938591658602931  1.0000
  C   C61       1.0  0.08274926678598861  0.26338155370862626  0.505686477700479  1.0000
  C   C62       1.0  0.23669900506151018  0.5828172934015043  0.5056394542715239  1.0000
  C   C63       1.0  0.9172827992058002  0.736606991166063  0.5057274583558709  1.0000
  C   C64       1.0  0.7633216550712874  0.41726019054810587  0.5057084367426512  1.0000
  C   C65       1.0  0.7383084666660905  0.38460206375944483  0.2827619076543328  1.0000
  C   C66       1.0  0.11555402377634755  0.23836830227146777  0.2827428801269463  1.0000
  C   C67       1.0  0.26164462770583446  0.6155407582404919  0.2827426998617497  1.0000
  C   C68       1.0  0.8845267667626545  0.761631994423972  0.28276124254925616  1.0000
  C   C69       1.0  0.23834383687134422  0.11893871730414668  0.7167844456865141  1.0000
  C   C70       1.0  0.38095618336330267  0.738382058752954  0.7167715805220638  1.0000
  C   C71       1.0  0.7617727156382159  0.881008245880828  0.7168427673654207  1.0000
  C   C72       1.0  0.6189300484451224  0.2616589673529148  0.7167965222297568  1.0000
  C   C73       1.0  0.7424815723879307  0.4559707371507925  0.2443699802744774  1.0000
  C   C74       1.0  0.044159682291770294  0.24241216071278862  0.24436574171767944  1.0000
  C   C75       1.0  0.2576014805551878  0.5441607843912947  0.2443538720976335  1.0000
  C   C76       1.0  0.9559005648162184  0.7575266596252135  0.24439783639024168  1.0000
  C   C77       1.0  0.24151529722988133  0.0480104065088369  0.7555890896212389  1.0000
  C   C78       1.0  0.451897576092378  0.7414007980731725  0.7555900424330133  1.0000
  C   C79       1.0  0.7586806089977004  0.9519267558271168  0.7556709995976831  1.0000
  C   C80       1.0  0.548000731517142  0.25848846602363557  0.7555885875815775  1.0000
  C   C81       1.0  0.7348508392997316  0.4583307129022884  0.1776455076180667  1.0000
  C   C82       1.0  0.04177803907424501  0.23459798362186035  0.1776725910536143  1.0000
  C   C83       1.0  0.2653967448266671  0.5418001145336363  0.1776554903630583  1.0000
  C   C84       1.0  0.9582865495961242  0.7654136819713955  0.1777078443971547  1.0000
  C   C85       1.0  0.23355514870338825  0.0464897091037457  0.8222740989607543  1.0000
  C   C86       1.0  0.4533933468912963  0.7333029582545052  0.8222689191772331  1.0000
  C   C87       1.0  0.7666523801803607  0.9534099557277783  0.8223736028065717  1.0000
  C   C88       1.0  0.546483512546324  0.26643250348552533  0.822281432173959  1.0000
  C   C89       1.0  0.7405247413491766  0.5273825045387993  0.137493405318331  1.0000
  C   C90       1.0  0.9727080542419273  0.24022283053589177  0.1375344337204609  1.0000
  C   C91       1.0  0.25978117290629404  0.4727393573331398  0.1375071838121471  1.0000
  C   C92       1.0  0.0273390463297574  0.7597912688055715  0.1375818360158689  1.0000
  C   C93       1.0  0.23681173359291563  0.977594758970774  0.8625660545815776  1.0000
  C   C94       1.0  0.5222859864400888  0.736545663592274  0.8625644972699861  1.0000
  C   C95       1.0  0.7633278025139347  0.0222979032568418  0.8626646005909749  1.0000
  C   C96       1.0  0.4775981318453689  0.263165694466629  0.8625678204446457  1.0000
  C   C97       1.0  0.7272006386001807  0.5240611079929849  0.0685042244784881  1.0000
  C   C98       1.0  0.9760229321970756  0.2267920740523834  0.0685734910361546  1.0000
  C   C99       1.0  0.2731918025196336  0.4760772338153458  0.0685433474299302  1.0000
  C   C100      1.0  0.023994398776714804  0.7732236779247117  0.0686185533104933  1.0000
  C   C101      1.0  0.2211688051757292  0.9812852291428839  0.9311219508995805  1.0000
  C   C102      1.0  0.5185784604498096  0.7207356413657492  0.9310927646759524  1.0000
  C   C103      1.0  0.7788487752149821  0.0186593793313676  0.9312433798448652  1.0000
  C   C104      1.0  0.48129086760623363  0.2787996200004912  0.9311300455563086  1.0000
  C   C105      1.0  0.7321250124893339  0.5901510760572035  0.030657648317465203  1.0000
  C   C106      1.0  0.9099390922854554  0.23179389442255166  0.0307116927909732  1.0000
  C   C107      1.0  0.2682002481848755  0.4099976059776295  0.030688187109476  1.0000
  C   C108      1.0  0.09004639879086801  0.7682036937010253  0.0307374033437782  1.0000
  C   C109      1.0  0.22379816501528887  0.9151801127741878  0.9689810346873954  1.0000
  C   C110      1.0  0.5846534327852027  0.7234412429537542  0.9689907166686283  1.0000
  C   C111      1.0  0.7761406510010431  0.08477125451344143  0.9690711240006068  1.0000
  C   C112      1.0  0.41518730579014124  0.2761606404884275  0.968964608609369  1.0000
  C   C113      1.0  0.7622316664839133  0.6623548392679481  0.123411372808313  1.0000
  C   C114      1.0  0.8377942017120219  0.2621026535837174  0.1234112701385115  1.0000
  C   C115      1.0  0.23789515198960492  0.33782049229090205  0.12339676093596098  1.0000
  C   C116      1.0  0.1622402611718243  0.7379164619911621  0.12344055597641561  1.0000
  C   C117      1.0  0.2554782578904167  0.8422770961815615  0.8770405506816772  1.0000
  C   C118      1.0  0.657525593595075  0.7555136456782348  0.8771286298001045  1.0000
  C   C119      1.0  0.7445297470295954  0.15761110525365035  0.8770747457149497  1.0000
  C   C120      1.0  0.3422720533169681  0.2444994043829141  0.877008497465262  1.0000
  C   C121      1.0  0.759419325226503  0.5990248308548373  0.1643124472653454  1.0000
  C   C122      1.0  0.9010918140357519  0.25919929715524864  0.1643346407560458  1.0000
  C   C123      1.0  0.24081407795915769  0.4011075662061714  0.1643275132893791  1.0000
  C   C124      1.0  0.09897170516500611  0.7408156489540187  0.16437780637036783  1.0000
  C   C125      1.0  0.2551168914212242  0.9055847668736303  0.8361491599407672  1.0000
  C   C126      1.0  0.594272905919567  0.7550287937747127  0.8361789864361598  1.0000
  C   C127      1.0  0.745025683275898  0.0943001963149825  0.8361978892819053  1.0000
  C   C128      1.0  0.4055817671405109  0.24484703886074746  0.8361263290105114  1.0000
  C   C129      1.0  0.8473599210783506  0.757002701494919  0.9112335717685269  1.0000
  C   C130      1.0  0.7423959425593126  0.34746313698527587  0.9114548568630951  1.0000
  C   C131      1.0  0.1525024312541916  0.24240606079155916  0.9114537793764796  1.0000
  C   C132      1.0  0.2574573320966708  0.6524678487761763  0.9114902040481923  1.0000
  C   C133      1.0  0.3529923229492483  0.7301650554740887  0.0882163623625516  1.0000
  C   C134      1.0  0.7699749128941633  0.8531843551705691  0.0882002398756754  1.0000
  C   C135      1.0  0.647023972317676  0.2698894013974781  0.0882494521147521  1.0000
  C   C136      1.0  0.23016680684377636  0.14707306811498458  0.088240753683813  1.0000
  C   C137      1.0  0.9120338602563436  0.7710053418542911  0.8660297424691096  1.0000
  C   C138      1.0  0.7284448462022582  0.4120281182362149  0.8661250904015176  1.0000
  C   C139      1.0  0.08791768423710522  0.22845676346724988  0.8661384037935421  1.0000
  C   C140      1.0  0.2714115238497072  0.5878706916309469  0.866205419600803  1.0000
  C   C141      1.0  0.4171232671837047  0.7221231624790293  0.13482601955814033  1.0000
  C   C142      1.0  0.7779409213962297  0.9173215470580015  0.13480313388070905  1.0000
  C   C143      1.0  0.5829101557787483  0.27793321281106387  0.1348523724375568  1.0000
  C   C144      1.0  0.22212271903266165  0.08293095033552332  0.1348385123019824  1.0000
  C   C145      1.0  0.9595798636732766  0.7144691660749061  0.8476801392111639  1.0000
  C   C146      1.0  0.784969197287225  0.459589477547091  0.8477207829739299  1.0000
  C   C147      1.0  0.04034618866208461  0.2849809879423972  0.8477626027437992  1.0000
  C   C148      1.0  0.21490500048666664  0.5402591854479083  0.8478272216734979  1.0000
  C   C149      1.0  0.46363900965144483  0.7805210124048684  0.1508034091775485  1.0000
  C   C150      1.0  0.7195625732618113  0.9638415804263544  0.1507382150602936  1.0000
  C   C151      1.0  0.5363817813358055  0.21955708202920474  0.15081995906981402  1.0000
  C   C152      1.0  0.280507812605606  0.0363990005088866  0.15080371850969954  1.0000
  C   C153      1.0  0.024788282915778802  0.722432024681268  0.803899446589803  1.0000
  C   C154      1.0  0.776981446506433  0.5247321578847987  0.8038637883933007  1.0000
  C   C155      1.0  0.9751799452724156  0.277012701795023  0.8039339546010922  1.0000
  C   C156      1.0  0.22289843052438127  0.47512134020316665  0.8039696008723993  1.0000
  C   C157      1.0  0.5279146912572442  0.7751056803432519  0.1959596015437981  1.0000
  C   C158      1.0  0.7250155079388066  0.028068450391231202  0.1959315422736339  1.0000
  C   C159      1.0  0.4721098109512099  0.22498464131810889  0.1959535653070716  1.0000
  C   C160      1.0  0.2750893778222832  0.9721244955342667  0.1959538219895904  1.0000
  C   C161      1.0  0.058878230077290504  0.657432740451128  0.7758077937764938  1.0000
  C   C162      1.0  0.8420574601716667  0.5587302767349485  0.7758349122615869  1.0000
  C   C163      1.0  0.9411012642704009  0.34211893159712753  0.7759997415162445  1.0000
  C   C164      1.0  0.15781828610870724  0.44105000896966107  0.7759865159201667  1.0000
  C   C165      1.0  0.5611184834839592  0.8409999637446076  0.2233479012244928  1.0000
  C   C166      1.0  0.6591252360213958  0.06119883786026749  0.223349748503189  1.0000
  C   C167      1.0  0.4389356752515923  0.15908890518019092  0.22336859200358822  1.0000
  C   C168      1.0  0.3409682635807841  0.9389504644456893  0.2233905821427626  1.0000
  C   C169      1.0  0.11964072650656021  0.6648440939936008  0.7323268183351743  1.0000
  C   C170      1.0  0.8347827944639334  0.6195206945847929  0.7323608779868636  1.0000
  C   C171      1.0  0.8802909441348774  0.3348691813314062  0.7325402392856333  1.0000
  C   C172      1.0  0.1650912984820323  0.3802769564699133  0.7324962428132551  1.0000
  C   C173      1.0  0.6218668291549108  0.8348793042839231  0.2670906046721768  1.0000
  C   C174      1.0  0.665217511561707  0.12192842061198658  0.2671072243738664  1.0000
  C   C175      1.0  0.3781924565104405  0.1651996027690501  0.2670966917506732  1.0000
  C   C176      1.0  0.3348400703294985  0.8782057870858537  0.26712525859152697  1.0000
  C   C177      1.0  0.1182944475930512  0.7962429180255696  0.743331943037667  1.0000
  C   C178      1.0  0.703383142026077  0.6183629078804247  0.7432234037035172  1.0000
  C   C179      1.0  0.8815893143064031  0.20343693927394207  0.7432210693699873  1.0000
  C   C180      1.0  0.2965086011548266  0.3816065709884954  0.7432392310557674  1.0000
  C   C181      1.0  0.6217259246792111  0.7032825708319095  0.2579638691845432  1.0000
  C   C182      1.0  0.7968060067102343  0.12185587105899741  0.257989159078079  1.0000
  C   C183      1.0  0.3783320274201571  0.29679720073985294  0.2579607836073237  1.0000
  C   C184      1.0  0.20325195580450384  0.8783630083488986  0.2579921003398056  1.0000
  C   C185      1.0  0.056912924086489604  0.7932824620388742  0.7863286651791628  1.0000
  C   C186      1.0  0.7062018901943504  0.5569446534536195  0.7862189062544189  1.0000
  C   C187      1.0  0.9430254028325818  0.20623238691519674  0.7862084425383956  1.0000
  C   C188      1.0  0.2936862769069891  0.4429812495910568  0.7862705223151636  1.0000
  C   C189      1.0  0.5604678357469766  0.7049072544299833  0.21485281105220372  1.0000
  C   C190      1.0  0.7951958509260921  0.06062928103862222  0.21484877225912413  1.0000
  C   C191      1.0  0.43955148207809464  0.29516763496827997  0.2148349985104261  1.0000
  C   C192      1.0  0.20490214607437454  0.9395881401034597  0.2148554283189128  1.0000
  N   N1        1.0  0.640581697070914  0.2535117396461145  0.3865318770435381  1.0000
  N   N2        1.0  0.24668192995451227  0.14065097876710544  0.3865059795905594  1.0000
  N   N3        1.0  0.3593833430733043  0.7466847481325373  0.38652967546172334  1.0000
  N   N4        1.0  0.7534165087443797  0.859414386080367  0.38656551623122243  1.0000
  N   N5        1.0  0.14084620140001647  0.2487319589074062  0.6131243807345328  1.0000
  N   N6        1.0  0.25122038825175264  0.6408848127348251  0.6130899435281307  1.0000
  N   N7        1.0  0.8592259351862525  0.7511915499511588  0.6131777799706626  1.0000
  N   N8        1.0  0.748697252507135  0.3591937640315024  0.6131580776918142  1.0000
  N   N9        1.0  0.7487088999795263  0.6588709056784837  0.0573385008563321  1.0000
  N   N10       1.0  0.8412644445363142  0.24856068227448705  0.0573587183288424  1.0000
  N   N11       1.0  0.2514366408672757  0.34131225797141695  0.057339323998007806  1.0000
  N   N12       1.0  0.15874028389389142  0.751448589910666  0.0573786853883718  1.0000
  N   N13       1.0  0.24012408166993282  0.8461164212987455  0.9428162039461299  1.0000
  N   N14       1.0  0.6536718465107468  0.7400485846072441  0.9428895284460169  1.0000
  N   N15       1.0  0.7598189665472576  0.153806714380778  0.9428712588791797  1.0000
  N   N16       1.0  0.346124116229845  0.2598580130276034  0.942788984937998  1.0000
  N   N17       1.0  0.14983563923869533  0.7330918621706174  0.7159168856644555  1.0000
  N   N18       1.0  0.766617176231634  0.649841034910544  0.7158945704348056  1.0000
  N   N19       1.0  0.8500321664826701  0.266691497110294  0.7159748175842324  1.0000
  N   N20       1.0  0.23328426435875826  0.350068322228715  0.715951946536002  1.0000
  N   N21       1.0  0.6528412986617411  0.7672138868540727  0.284357411521988  1.0000
  N   N22       1.0  0.7328607181854067  0.15294360615156682  0.2843731987781624  1.0000
  N   N23       1.0  0.34722443610763076  0.23286560404345372  0.2843525284224313  1.0000
  N   N24       1.0  0.26717537985605583  0.8472390743735969  0.2843824215030111  1.0000
  O   O1        1.0  0.8256907021667813  0.6903948844030765  0.9266748564737242  1.0000
  O   O2        1.0  0.8090219463618666  0.32601607302206753  0.9271433153251181  1.0000
  O   O3        1.0  0.17394685796817563  0.3090390241090332  0.9271351437555851  1.0000
  O   O4        1.0  0.1908334559628955  0.6739337914683646  0.9271453836024222  1.0000
  O   O5        1.0  0.337956603422839  0.795494228021404  0.0615876116376555  1.0000
  O   O6        1.0  0.7046463954483358  0.8381167314343329  0.061568550039858394  1.0000
  O   O7        1.0  0.662063265843358  0.20454284314153878  0.0616648783249474  1.0000
  O   O8        1.0  0.2955011748443823  0.16208225811759291  0.0616352845987649  1.0000
  O   O9        1.0  0.3074217955406339  0.2666126935585922  0.5866956144883987  1.0000
  O   O10       1.0  0.23319442510454996  0.8074508455234906  0.5867427563272614  1.0000
  O   O11       1.0  0.6926009381279529  0.733522039811099  0.5867224369157285  1.0000
  O   O12       1.0  0.7665267350661296  0.19260520052178975  0.5867547227887471  1.0000
  O   O13       1.0  0.8065180877224664  0.23540917131065706  0.41381984795898313  1.0000
  O   O14       1.0  0.26496791207421927  0.30652748224390086  0.4138020069329259  1.0000
  O   O15       1.0  0.19350281648200962  0.7649540527736464  0.413832004797932  1.0000
  O   O16       1.0  0.7350951633643562  0.6935193286502112  0.4137982103153703  1.0000
  O   O17       1.0  0.37407622849811883  0.24478128661753829  0.6783465072854116  1.0000
  O   O18       1.0  0.254936378823345  0.8740951361936382  0.6783969990428886  1.0000
  O   O19       1.0  0.625938814674349  0.7552490101998899  0.6783733074747645  1.0000
  O   O20       1.0  0.7447799437660764  0.1259271679777996  0.6784037324758572  1.0000
  O   O21       1.0  0.8726047333798448  0.25828021757141073  0.3222547863543141  1.0000
  O   O22       1.0  0.24184210299868872  0.3726225367803976  0.3222741378129825  1.0000
  O   O23       1.0  0.127385106644482  0.7418510688024609  0.32231180621038646  1.0000
  O   O24       1.0  0.7581722466585249  0.6274363457375357  0.3222730915464211  1.0000
  O   O25       1.0  0.748789317063263  0.38537219684808843  0.3451739030586651  1.0000
  O   O26       1.0  0.1148237402905039  0.2488939278681527  0.34514941100052  1.0000
  O   O27       1.0  0.2511340312933327  0.6147680416437282  0.3451495989918385  1.0000
  O   O28       1.0  0.8852848847271702  0.7511391345002209  0.3451731137078227  1.0000
  O   O29       1.0  0.24875232298848723  0.11770746622899955  0.654390970456987  1.0000
  O   O30       1.0  0.38218997591192055  0.748919451882699  0.6543976032612165  1.0000
  O   O31       1.0  0.7513768781374566  0.88231733500551  0.6544456499678475  1.0000
  O   O32       1.0  0.6176855348588292  0.25126383450810863  0.6543997668203049  1.0000
  O   O33       1.0  0.7251580880460722  0.3200083339140392  0.2532463866710017  1.0000
  O   O34       1.0  0.1801243871164928  0.22527697784561698  0.253181152738108  1.0000
  O   O35       1.0  0.2747284222751674  0.6801474103359625  0.2532152250571542  1.0000
  O   O36       1.0  0.8199394127215103  0.7747750116494246  0.25322237608229164  1.0000
  O   O37       1.0  0.2256935076953894  0.18367471136523508  0.746192181851825  1.0000
  O   O38       1.0  0.3162202128945424  0.7257342708195649  0.7461906008905004  1.0000
  O   O39       1.0  0.7743299787103269  0.8162456452211018  0.746251084782557  1.0000
  O   O40       1.0  0.6836607522176267  0.2743058061816582  0.7462342802612342  1.0000
  O   O41       1.0  0.8138144581862293  0.816083661730353  0.9361344173767776  1.0000
  O   O42       1.0  0.6833751294153886  0.3137457646816699  0.9362510719574004  1.0000
  O   O43       1.0  0.18623208782888412  0.1833944294885299  0.9362674799260021  1.0000
  O   O44       1.0  0.31650668782908303  0.6861650384418212  0.9362858726633833  1.0000
  O   O45       1.0  0.3130875784028929  0.6719247425838831  0.0740981274281793  1.0000
  O   O46       1.0  0.828200881887618  0.8133004588479975  0.0740919254385588  1.0000
  O   O47       1.0  0.6868904224523931  0.3281347300809969  0.0740789097711598  1.0000
  O   O48       1.0  0.17192991291166493  0.18697110227543587  0.0741054802236789  1.0000
