data_image0
_chemical_formula_structural       Zn4H40C60N8O16
_chemical_formula_sum              "Zn4 H40 C60 N8 O16"
_cell_length_a       9.354041996747371
_cell_length_b       9.981294934531778
_cell_length_c       14.47620586881939
_cell_angle_alpha    88.63728911607477
_cell_angle_beta     77.94382619519291
_cell_angle_gamma    88.21471883842852

_space_group_name_H-M_alt    "P 1"
_space_group_IT_number       1

loop_
  _space_group_symop_operation_xyz
  'x, y, z'

loop_
  _atom_site_type_symbol
  _atom_site_label
  _atom_site_symmetry_multiplicity
  _atom_site_fract_x
  _atom_site_fract_y
  _atom_site_fract_z
  _atom_site_occupancy
  Zn  Zn1       1.0  0.3597017283266553  0.174467262883347  0.11179091825360392  1.0000
  Zn  Zn2       1.0  0.6402979585116384  0.8255329735597388  0.8882085767688397  1.0000
  Zn  Zn3       1.0  0.25372158910325027  0.9551182707433769  0.2851713555316522  1.0000
  Zn  Zn4       1.0  0.7462780703841717  0.0448829715025454  0.7148288152058131  1.0000
  H   H1        1.0  0.9134575878281056  0.23052766251627332  0.4124805875862806  1.0000
  H   H2        1.0  0.08654313621710231  0.7694745777606258  0.5875187295875365  1.0000
  H   H3        1.0  0.7543521599071354  0.42229986303589584  0.4836887435423806  1.0000
  H   H4        1.0  0.2456496573400244  0.5777023760527769  0.5163104256399721  1.0000
  H   H5        1.0  0.8355178092402654  0.6576851293724743  0.44323735058475944  1.0000
  H   H6        1.0  0.1644829135116339  0.34231710432078444  0.556760585301852  1.0000
  H   H7        1.0  0.22779526080429954  0.5039647467026357  0.2629743897630732  1.0000
  H   H8        1.0  0.7722055172959941  0.4960354786767598  0.7370228853370976  1.0000
  H   H9        1.0  0.11884093891266903  0.7850020911104708  0.1256284975826247  1.0000
  H   H10       1.0  0.8811608529235782  0.21500116365650973  0.8743734192455579  1.0000
  H   H11       1.0  0.9049415695577921  0.6373565529645688  0.1750941100335979  1.0000
  H   H12       1.0  0.09506027827350749  0.36264469678037864  0.8249078366517396  1.0000
  H   H13       1.0  0.6538206671786783  0.7388678843899046  0.20822420341359296  1.0000
  H   H14       1.0  0.34618123341440565  0.26113134387389186  0.7917743199108858  1.0000
  H   H15       1.0  0.8286278426680268  0.1252785439965649  0.11850512850457319  1.0000
  H   H16       1.0  0.17137181552608644  0.874722691665717  0.8814936609456938  1.0000
  H   H17       1.0  0.6537683607437542  0.33290973502556653  0.8047930342658703  1.0000
  H   H18       1.0  0.34623239129897604  0.6670915027403126  0.19520629783652055  1.0000
  H   H19       1.0  0.6276756786027633  0.18147844217065773  0.9466302970385314  1.0000
  H   H20       1.0  0.3723240375263543  0.8185207983450554  0.05337059419970561  1.0000
  H   H21       1.0  0.4786225165650747  0.566375956164812  0.7504537054046595  1.0000
  H   H22       1.0  0.521378292766009  0.4336232831626745  0.24954703784209914  1.0000
  H   H23       1.0  0.2399608172416521  0.6850137311918447  0.8090402493839195  1.0000
  H   H24       1.0  0.7600388988874656  0.3149855093238613  0.19096064185431064  1.0000
  H   H25       1.0  0.08735158989847487  0.6312709732604562  0.9650550267687736  1.0000
  H   H26       1.0  0.9126481535815145  0.3687272614524204  0.034945188754434794  1.0000
  H   H27       1.0  0.16239142733325454  0.4449320712173091  0.0667034599204328  1.0000
  H   H28       1.0  0.8376083167933928  0.555066166787384  0.9332974462463783  1.0000
  H   H29       1.0  0.2159378969107166  0.037704198765951005  0.63785251653718  1.0000
  H   H30       1.0  0.7840596601653615  0.9622940383233713  0.36214799496897143  1.0000
  H   H31       1.0  0.13580319265660992  0.10313550596022479  0.48963375898398454  1.0000
  H   H32       1.0  0.8641964941816836  0.8968647304828609  0.510365736038459  1.0000
  H   H33       1.0  0.43181965184370347  0.8337159348478452  0.6892715864461181  1.0000
  H   H34       1.0  0.568177877881503  0.1662833080443136  0.31072960077505485  1.0000
  H   H35       1.0  0.5917418195351587  0.6464037928913273  0.6138539907843994  1.0000
  H   H36       1.0  0.4082567753944844  0.35359645132362516  0.38614703351672125  1.0000
  H   H37       1.0  0.6044589336009311  0.5894027928386265  0.44658285358670474  1.0000
  H   H38       1.0  0.395540755177322  0.41059745347993015  0.5534187133665541  1.0000
  H   H39       1.0  0.46762675515923036  0.7275834416915572  0.3458755691672765  1.0000
  H   H40       1.0  0.5323730169649394  0.27241379380211583  0.6541253519281087  1.0000
  C   C1        1.0  0.17389391765283338  0.24359888768981364  0.288376492923426  1.0000
  C   C2        1.0  0.8261068343898899  0.7564023500760656  0.7116228391789718  1.0000
  C   C3        1.0  0.07938848264817722  0.35702084806945333  0.3335136582293289  1.0000
  C   C4        1.0  0.9206100816973262  0.6429803854892243  0.6664845885688069  1.0000
  C   C5        1.0  0.9461712051149437  0.33349211199942624  0.39585182413570413  1.0000
  C   C6        1.0  0.053829546927787006  0.6665091257664528  0.6041475079666939  1.0000
  C   C7        1.0  0.857812820159829  0.44138948211502094  0.4351583658397687  1.0000
  C   C8        1.0  0.1421879318828942  0.5586117556508586  0.5648409662626221  1.0000
  C   C9        1.0  0.9026887958451439  0.5721815652415855  0.4129901353115032  1.0000
  C   C10       1.0  0.0973119561975793  0.4278196725242935  0.587009196790895  1.0000
  C   C11       1.0  0.03658917469259391  0.5969204306419157  0.35135202043444025  1.0000
  C   C12       1.0  0.9634115760568279  0.403080800540316  0.6486459303807522  1.0000
  C   C13       1.0  0.12404070898865173  0.4885967950242715  0.31171477135675474  1.0000
  C   C14       1.0  0.8759589479121601  0.511404434054363  0.6882826368062994  1.0000
  C   C15       1.0  0.0823825620131515  0.7386472257851081  0.3304642559489111  1.0000
  C   C16       1.0  0.9176203764334973  0.2613540096043253  0.6695347801705369  1.0000
  C   C17       1.0  0.11199486567877412  0.058331787055038796  0.10844504295958053  1.0000
  C   C18       1.0  0.8880059430056519  0.941667448980631  0.8915550096435754  1.0000
  C   C19       1.0  0.9869790915355023  0.9654712044105551  0.12414377507744945  1.0000
  C   C20       1.0  0.013020569245220801  0.0345300444190144  0.8758577769472284  1.0000
  C   C21       1.0  0.00816954611150319  0.8269756386254845  0.13597858301430685  1.0000
  C   C22       1.0  0.9918311811669583  0.1730266181105193  0.8640241873775242  1.0000
  C   C23       1.0  0.8888017499719181  0.7447200891285775  0.16462605089845547  1.0000
  C   C24       1.0  0.11120119041468972  0.2552811561363201  0.835375057151808  1.0000
  C   C25       1.0  0.7477871140714073  0.8006840605287593  0.18216872184741106  1.0000
  C   C26       1.0  0.252213637971316  0.19931717723711978  0.8178306102549797  1.0000
  C   C27       1.0  0.7248632087135006  0.9370593422449859  0.16316003034181395  1.0000
  C   C28       1.0  0.27513647683149134  0.0629408876144524  0.8368380833934312  1.0000
  C   C29       1.0  0.8448764049494245  0.019075843045392595  0.1331602949729458  1.0000
  C   C30       1.0  0.1551243750908284  0.9809243922094666  0.8668390520580334  1.0000
  C   C31       1.0  0.5725215793354081  0.9930779111866954  0.17280873961612286  1.0000
  C   C32       1.0  0.4274781068562348  0.006922321964566402  0.8271900647627252  1.0000
  C   C33       1.0  0.5523456899363026  0.2644353582295835  0.9394994091883293  1.0000
  C   C34       1.0  0.44765509139725174  0.735564883608923  0.06050131912984819  1.0000
  C   C35       1.0  0.4524981863340328  0.4386175011489328  0.8763366404337632  1.0000
  C   C36       1.0  0.54750150244422  0.5613827451696239  0.12366492651949561  1.0000
  C   C37       1.0  0.41071005224956286  0.540134718312551  0.8186225594260891  1.0000
  C   C38       1.0  0.5892896365286832  0.45986552800599867  0.18137900752716257  1.0000
  C   C39       1.0  0.27771188352073034  0.6066737579256198  0.8526744367119579  1.0000
  C   C40       1.0  0.7222878046108648  0.393326485101106  0.14732643959769123  1.0000
  C   C41       1.0  0.19004159799224846  0.5750570395941921  0.9417907572143349  1.0000
  C   C42       1.0  0.809958145487741  0.4249411951186774  0.058209458308873314  1.0000
  C   C43       1.0  0.23128878657707472  0.4730057225849507  0.9990906815704436  1.0000
  C   C44       1.0  0.7687109289053992  0.5269935146389387  0.0009095190241908274  1.0000
  C   C45       1.0  0.3632346937649303  0.4034984954729736  0.9648194592882505  1.0000
  C   C46       1.0  0.636766114919496  0.5965007405626891  0.03518059331490517  1.0000
  C   C47       1.0  0.216200875805221  0.024020568358984903  0.4938963978476566  1.0000
  C   C48       1.0  0.7837977464752868  0.9759786700531238  0.5061039507384422  1.0000
  C   C49       1.0  0.35901239035249694  0.8849026969245556  0.5587612044556494  1.0000
  C   C50       1.0  0.6409841015191375  0.11509453884196572  0.4412394699705474  1.0000
  C   C51       1.0  0.43791520867437583  0.8108214137761893  0.6154148891727118  1.0000
  C   C52       1.0  0.5620812558463939  0.18917682779317602  0.3845864609685137  1.0000
  C   C53       1.0  0.5268715533222874  0.7055290581377563  0.5724487947570938  1.0000
  C   C54       1.0  0.47312491119848243  0.2944691834316018  0.427552555384132  1.0000
  C   C55       1.0  0.5363009200325735  0.6743494019545863  0.47683802053909846  1.0000
  C   C56       1.0  0.4636966096926257  0.3256498409375724  0.5231631666820749  1.0000
  C   C57       1.0  0.45988279091979223  0.7494584045277081  0.42001179233395197  1.0000
  C   C58       1.0  0.5401147661562788  0.25053983256160717  0.5799887191721993  1.0000
  C   C59       1.0  0.3712008061193899  0.8561565482989408  0.4617802089707652  1.0000
  C   C60       1.0  0.6287967789542108  0.1438406862793613  0.5382203174639599  1.0000
  N   N1        1.0  0.4295167489883552  0.29350492702285175  0.0018524426440436218  1.0000
  N   N2        1.0  0.5704851255471581  0.7064953136274285  0.9981481376826696  1.0000
  N   N3        1.0  0.5710638695196124  0.3487945443372453  0.8638237638074743  1.0000
  N   N4        1.0  0.4289357906144603  0.6512067012005004  0.13617709757360072  1.0000
  N   N5        1.0  0.2591625034995246  0.9918517769694335  0.5757896528178678  1.0000
  N   N6        1.0  0.740833931730414  0.0081474605273044  0.4242103011075714  1.0000
  N   N7        1.0  0.2815799850215654  0.9459975205463709  0.42375563060745963  1.0000
  N   N8        1.0  0.7184175720545055  0.05400071654294441  0.5762448808986846  1.0000
  O   O1        1.0  0.29218042215184437  0.27399836053289317  0.23067476582064475  1.0000
  O   O2        1.0  0.7078203585350593  0.7260018780137898  0.7693252718539372  1.0000
  O   O3        1.0  0.13098528958649783  0.12488353020580689  0.31025801906504574  1.0000
  O   O4        1.0  0.8690154357520115  0.8751187166547325  0.6897426793959769  1.0000
  O   O5        1.0  0.21176418310303555  0.7573492538987807  0.27726895300452276  1.0000
  O   O6        1.0  0.7882387859277458  0.24265099214692748  0.7227328606179243  1.0000
  O   O7        1.0  0.9995975079299838  0.8341322432734939  0.363758286395715  1.0000
  O   O8        1.0  0.00040321546856600073  0.1658699937115813  0.6362403401344993  1.0000
  O   O9        1.0  0.0974309703992517  0.17942815463709394  0.08773937947439953  1.0000
  O   O10       1.0  0.9025709028429603  0.8205720794295461  0.912259819565101  1.0000
  O   O11       1.0  0.23782971915439796  0.007821096418638302  0.12279130523879901  1.0000
  O   O12       1.0  0.7621710908233296  0.9921781462006721  0.8772101286515622  1.0000
  O   O13       1.0  0.4716025590532809  0.934454696918486  0.23098427508829653  1.0000
  O   O14       1.0  0.5283993141889312  0.0655455371481537  0.769014923951211  1.0000
  O   O15       1.0  0.5559197938047759  0.09531979796217631  0.12122221133925855  1.0000
  O   O16       1.0  0.4440798650359953  0.9046814409919223  0.8787772687546112  1.0000
