data_image0
_chemical_formula_structural       Ni2H24C40N2O10
_chemical_formula_sum              "Ni2 H24 C40 N2 O10"
_cell_length_a       9.416566914581969
_cell_length_b       9.367365786486538
_cell_length_c       11.663309013256812
_cell_angle_alpha    75.10797156565316
_cell_angle_beta     79.33631273206807
_cell_angle_gamma    65.28391991037111

_space_group_name_H-M_alt    "P 1"
_space_group_IT_number       1

loop_
  _space_group_symop_operation_xyz
  'x, y, z'

loop_
  _atom_site_type_symbol
  _atom_site_label
  _atom_site_symmetry_multiplicity
  _atom_site_fract_x
  _atom_site_fract_y
  _atom_site_fract_z
  _atom_site_occupancy
  Ni  Ni1       1.0  0.9104106759359141  0.9831445350468186  0.5872785542511136  1.0000
  Ni  Ni2       1.0  0.0895359579000683  0.0168787198912383  0.4127348262854582  1.0000
  H   H1        1.0  0.5684834067941154  0.1338467979485074  0.6434346178064132  1.0000
  H   H2        1.0  0.4314849195592672  0.8661406249436183  0.356599586663016  1.0000
  H   H3        1.0  0.9400086866989383  0.822851287757544  0.8428059610329652  1.0000
  H   H4        1.0  0.0599808365859502  0.1771394546799954  0.15720086084260024  1.0000
  H   H5        1.0  0.3780852269181025  0.1545914466054725  0.8209699535489745  1.0000
  H   H6        1.0  0.6218955984722428  0.8453887562881945  0.1790632733888343  1.0000
  H   H7        1.0  0.7682205898429615  0.8290746388311021  0.02955721154117429  1.0000
  H   H8        1.0  0.231778097643847  0.17092220294930627  0.9704583585082386  1.0000
  H   H9        1.0  0.07652887626889539  0.7119941908528773  0.21782189954238612  1.0000
  H   H10       1.0  0.923502964622273  0.28796583657475594  0.7822355407476989  1.0000
  H   H11       1.0  0.7459701219485806  0.6404974614328154  0.5099476107702897  1.0000
  H   H12       1.0  0.2539739093767182  0.3595004107596865  0.4900515290530122  1.0000
  H   H13       1.0  0.0025912795875983148  0.5609656602675555  0.10495555390659211  1.0000
  H   H14       1.0  0.9974633766739486  0.4390048702264622  0.8950719810149362  1.0000
  H   H15       1.0  0.6623384998135506  0.5026736467435738  0.39649958509469485  1.0000
  H   H16       1.0  0.33767331176751725  0.4972916711682558  0.6034889869278784  1.0000
  H   H17       1.0  0.5147740497321394  0.5933120703512742  0.06525090810253431  1.0000
  H   H18       1.0  0.48526156800555487  0.40671420948188336  0.9347068157916281  1.0000
  H   H19       1.0  0.27504918534587836  0.534686891701014  0.11081625172567298  1.0000
  H   H20       1.0  0.7249796368350943  0.4653538486985481  0.8891454010378579  1.0000
  H   H21       1.0  0.4837403307340082  0.16156087187005846  0.4078211495638867  1.0000
  H   H22       1.0  0.5162680955186117  0.8384448719042721  0.5921261859280591  1.0000
  H   H23       1.0  0.25630857575904287  0.32009082819638485  0.2860020463524933  1.0000
  H   H24       1.0  0.7437137760995186  0.6799328211977455  0.7139338789060685  1.0000
  C   C1        1.0  0.6065036622573956  0.068139635011228  0.7313609830981702  1.0000
  C   C2        1.0  0.3934662525703132  0.9318500947764504  0.26866397343032117  1.0000
  C   C3        1.0  0.8144980612591155  0.8947761538098504  0.8423243666566049  1.0000
  C   C4        1.0  0.1854901773933904  0.1052146438435813  0.15768775362342774  1.0000
  C   C5        1.0  0.9585274514948168  0.7807247970623052  0.43224151986035503  1.0000
  C   C6        1.0  0.041447291992099566  0.21926967813580234  0.5677775707101631  1.0000
  C   C7        1.0  0.5011256611980315  0.0788465000858949  0.8323977885741696  1.0000
  C   C8        1.0  0.4988614147155276  0.9211288714109711  0.1676330532439181  1.0000
  C   C9        1.0  0.7157571228033747  0.9000769654109108  0.9470609041438889  1.0000
  C   C10       1.0  0.28424580631354257  0.0999114860159693  0.052956689954207485  1.0000
  C   C11       1.0  0.916246526669703  0.6845374279823204  0.3700842390643117  1.0000
  C   C12       1.0  0.08374374081888192  0.31544147414996354  0.6299394759290066  1.0000
  C   C13       1.0  0.5541839040511576  0.9946077260432133  0.9449200148103071  1.0000
  C   C14       1.0  0.4458186379186698  0.005372421420830199  0.05510789321387218  1.0000
  C   C15       1.0  0.9882588890636232  0.6624421972558067  0.25585753042105336  1.0000
  C   C16       1.0  0.011757451201930353  0.3375295918382121  0.7441754707241512  1.0000
  C   C17       1.0  0.8008217262775403  0.6237689073561865  0.4211049980308629  1.0000
  C   C18       1.0  0.19915697636413654  0.3762134467726455  0.5789040441105371  1.0000
  C   C19       1.0  0.9466271730808985  0.5799991416085959  0.19347056495544007  1.0000
  C   C20       1.0  0.0534215304967418  0.41995336570009556  0.8065570988491473  1.0000
  C   C21       1.0  0.7552046147982808  0.5456358138614732  0.3573052394741436  1.0000
  C   C22       1.0  0.24479943908092855  0.45434041319812474  0.6426923939272908  1.0000
  C   C23       1.0  0.8281553899650476  0.5223781909256855  0.24315440415019643  1.0000
  C   C24       1.0  0.1718892819118238  0.4775753245620108  0.7568546959861067  1.0000
  C   C25       1.0  0.7799027023366489  0.4453971818783842  0.16906514150108615  1.0000
  C   C26       1.0  0.22012530225688937  0.5546136713938736  0.8309112651314265  1.0000
  C   C27       1.0  0.6355857957717532  0.4091401834823571  0.20814841616869023  1.0000
  C   C28       1.0  0.36444302442553334  0.590870454633368  0.7918073444790676  1.0000
  C   C29       1.0  0.5071175231845828  0.4988996540182384  0.14043684641082163  1.0000
  C   C30       1.0  0.4929177627560862  0.5011169442829343  0.8595143091457725  1.0000
  C   C31       1.0  0.6257037061028613  0.2882436941370016  0.3058159959190334  1.0000
  C   C32       1.0  0.3743040651279089  0.7117814768820382  0.6941506349018809  1.0000
  C   C33       1.0  0.3715028556325137  0.4668620077303913  0.1673370547612834  1.0000
  C   C34       1.0  0.6285287616666224  0.5331606711752528  0.8326210508710047  1.0000
  C   C35       1.0  0.488601333280009  0.25738991175818876  0.3328558080483289  1.0000
  C   C36       1.0  0.5114113439124992  0.7426207298291203  0.6671002857248421  1.0000
  C   C37       1.0  0.7621434265485335  0.1892785227637859  0.37779646370503855  1.0000
  C   C38       1.0  0.23782608057746296  0.8107674312866208  0.6222042545032663  1.0000
  C   C39       1.0  0.3620772559775888  0.34555990785157314  0.26367298263182437  1.0000
  C   C40       1.0  0.6379426771765324  0.6544627329592174  0.736281467495324  1.0000
  N   N1        1.0  0.7611361111858413  0.9779674739316703  0.7356380296779076  1.0000
  N   N2        1.0  0.238834511266738  0.022029395979444595  0.26438023973732777  1.0000
  O   O1        1.0  0.8893893775399777  0.8043787137547155  0.5346075005971185  1.0000
  O   O2        1.0  0.1102573791160495  0.19594002561111523  0.4652792658851651  1.0000
  O   O3        1.0  0.9412700048794919  0.162177145093473  0.6256192044165018  1.0000
  O   O4        1.0  0.05899399561202053  0.8375017605005722  0.3745593775817183  1.0000
  O   O5        1.0  0.10121049624131459  0.8300385958015042  0.6742593286303276  1.0000
  O   O6        1.0  0.89879616167827  0.1696606225610395  0.32567760231230364  1.0000
  O   O7        1.0  0.7330047556727166  0.13056613332047107  0.4863679503457162  1.0000
  O   O8        1.0  0.2669119760052112  0.8698326706462607  0.5137067316937304  1.0000
  O   O9        1.0  0.8475813972666231  0.42436625965834907  0.06944970127327814  1.0000
  O   O10       1.0  0.15244178136320125  0.5756769934240894  0.9305224504849932  1.0000
