data_image0
_chemical_formula_structural       Sr2H16C8N24O10
_chemical_formula_sum              "Sr2 H16 C8 N24 O10"
_cell_length_a       6.950839433817514
_cell_length_b       8.404725096412971
_cell_length_c       10.902852997923164
_cell_angle_alpha    95.41621935003124
_cell_angle_beta     108.57867330355009
_cell_angle_gamma    89.99886647774174

_space_group_name_H-M_alt    "P 1"
_space_group_IT_number       1

loop_
  _space_group_symop_operation_xyz
  'x, y, z'

loop_
  _atom_site_type_symbol
  _atom_site_label
  _atom_site_symmetry_multiplicity
  _atom_site_fract_x
  _atom_site_fract_y
  _atom_site_fract_z
  _atom_site_occupancy
  Sr  Sr1       1.0  0.11277661880641429  0.7499853031951389  0.9999881317649795  1.0000
  Sr  Sr2       1.0  0.8872273188646318  0.2500125464939203  1.1822783854107995e-05  1.0000
  H   H1        1.0  0.20447729330412304  0.8932060097584439  0.532272732403591  1.0000
  H   H2        1.0  0.6718314365830195  0.6068592125879776  0.4676136647624319  1.0000
  H   H3        1.0  0.7955237971144342  0.1067966202750483  0.4677288270390463  1.0000
  H   H4        1.0  0.328166533091924  0.39314103349732943  0.5323843274067032  1.0000
  H   H5        1.0  0.25338720988296604  0.6852956794035096  0.5463149945355783  1.0000
  H   H6        1.0  0.7066362281436797  0.8147718969916864  0.4535310038847698  1.0000
  H   H7        1.0  0.7466154071066458  0.3147069539912621  0.45368504347496963  1.0000
  H   H8        1.0  0.2933601745325944  0.1852271540617991  0.5464665788581514  1.0000
  H   H9        1.0  0.36268224520969733  0.7925902687544095  0.4484579871711746  1.0000
  H   H10       1.0  0.9137368236138671  0.7075557757263907  0.5514988392176718  1.0000
  H   H11       1.0  0.6373188496267731  0.20741236331756602  0.5515426561311046  1.0000
  H   H12       1.0  0.0862611864887057  0.2924456620294436  0.4485010838097595  1.0000
  H   H13       1.0  0.5591705962046589  0.6635669892732993  0.9689051375489728  1.0000
  H   H14       1.0  0.5901072733682041  0.8360417392338422  0.031026972915867628  1.0000
  H   H15       1.0  0.44082883310623805  0.33643205627183903  0.031094899171925795  1.0000
  H   H16       1.0  0.40989220520614833  0.16395850205880447  0.9689731623826106  1.0000
  C   C1        1.0  0.31628856854991483  0.8006245252996608  0.5359729003171908  1.0000
  C   C2        1.0  0.7799514386802786  0.6994587269823925  0.46392239296577037  1.0000
  C   C3        1.0  0.6837139947583354  0.19937691030911958  0.4640279552561354  1.0000
  C   C4        1.0  0.22004500884153086  0.30054151778011107  0.536076204495096  1.0000
  C   C5        1.0  0.6149870854526611  0.7423550991729614  0.730875059933908  1.0000
  C   C6        1.0  0.8841294214443424  0.7576952235246708  0.2691315824375736  1.0000
  C   C7        1.0  0.3850138571755508  0.25764394361800663  0.2691262037759685  1.0000
  C   C8        1.0  0.11587001228446776  0.24230382405895762  0.7308675381429596  1.0000
  N   N1        1.0  0.5939565267570474  0.5814329114579094  0.6960698662512571  1.0000
  N   N2        1.0  0.897878460881458  0.9186199510565204  0.303922061775829  1.0000
  N   N3        1.0  0.40604441587116463  0.41856613133305837  0.3039313974586265  1.0000
  N   N4        1.0  0.10212253542812282  0.08138028952044608  0.6960783843712762  1.0000
  N   N5        1.0  0.48911579000458977  0.8414334576188337  0.6518584323678739  1.0000
  N   N6        1.0  0.837113970442104  0.658630428435437  0.348118613009511  1.0000
  N   N7        1.0  0.5108867688857474  0.15856797595146332  0.3481433393458034  1.0000
  N   N8        1.0  0.16288550813224842  0.34136981285720946  0.6518815222889744  1.0000
  N   N9        1.0  0.6979240679562082  0.9880744323953866  0.8057972040565674  1.0000
  N   N10       1.0  0.8921314215021425  0.5119564604374673  0.1942329728174102  1.0000
  N   N11       1.0  0.302076919517539  0.0119258041045995  0.19420507437125425  1.0000
  N   N12       1.0  0.10786800780875443  0.48804258510767073  0.8057670639034812  1.0000
  N   N13       1.0  0.5433723914892498  0.9937569250134359  0.700272906107756  1.0000
  N   N14       1.0  0.8429854224731271  0.5063047453825789  0.2997351076115962  1.0000
  N   N15       1.0  0.4566316851363156  0.0062445078411741  0.2997291764545551  1.0000
  N   N16       1.0  0.15701249352046182  0.4936943029167297  0.7002637021203101  1.0000
  N   N17       1.0  0.7475471972435132  0.8351482548558734  0.8281029357869657  1.0000
  N   N18       1.0  0.9195134302146926  0.6648742494617894  0.1719250198917593  1.0000
  N   N19       1.0  0.2524537453846989  0.1648507879350944  0.17189832792291074  1.0000
  N   N20       1.0  0.08048604835965278  0.3351259918308571  0.8280751154067262  1.0000
  N   N21       1.0  0.6659533349027598  0.48653797664359627  0.7873257868001602  1.0000
  N   N22       1.0  0.878595113096246  0.013481859218394699  0.21263666006996831  1.0000
  N   N23       1.0  0.33404609440814437  0.5134610689015489  0.21267424992073106  1.0000
  N   N24       1.0  0.12140436989601261  0.9865183841127348  0.7873625590881519  1.0000
  O   O1        1.0  0.4855627161820806  0.749778577717926  0.9999468738575461  1.0000
  O   O2        1.0  0.5144367087109032  0.250220465788729  5.407900370357636e-05  1.0000
  O   O3        1.0  0.6474583998022468  0.3379981460030663  0.7560383435320264  1.0000
  O   O4        1.0  0.8915207673660178  0.16202657698607945  0.24391727605920724  1.0000
  O   O5        1.0  0.35254103392657044  0.6620009015805621  0.24396077704850683  1.0000
  O   O6        1.0  0.10847866194488627  0.8379724685590588  0.7560827606616913  1.0000
  O   O7        1.0  0.7529390752904702  0.5375229012653763  0.9088816625918171  1.0000
  O   O8        1.0  0.8438961866268144  0.9624506155561083  0.0910866574906067  1.0000
  O   O9        1.0  0.2470618180743003  0.4624749457780837  0.09111950254047942  1.0000
  O   O10       1.0  0.15610324268408965  0.0375484299890303  0.9089133792302847  1.0000
