data_image0
_chemical_formula_structural       La2H44C62N4O14F6
_chemical_formula_sum              "La2 H44 C62 N4 O14 F6"
_cell_length_a       9.702252922406293
_cell_length_b       12.69111979396153
_cell_length_c       13.315
_cell_angle_alpha    113.30352763058336
_cell_angle_beta     104.83109008014154
_cell_angle_gamma    96.87290040202564

_space_group_name_H-M_alt    "P 1"
_space_group_IT_number       1

loop_
  _space_group_symop_operation_xyz
  'x, y, z'

loop_
  _atom_site_type_symbol
  _atom_site_label
  _atom_site_symmetry_multiplicity
  _atom_site_fract_x
  _atom_site_fract_y
  _atom_site_fract_z
  _atom_site_occupancy
  La  La1       1.0  0.2689748220142008  0.462386266516873  0.47520599024939253  1.0000
  La  La2       1.0  0.7310228143977042  0.5376142209421317  0.524793151876615  1.0000
  H   H1        1.0  0.614275308726242  0.1425075722391398  0.6966559663632665  1.0000
  H   H2        1.0  0.3857228755592175  0.8574946868317284  0.30334544803092456  1.0000
  H   H3        1.0  0.3423929734065609  0.11853234893327169  0.6188784533048732  1.0000
  H   H4        1.0  0.6576041446692855  0.8814699101375963  0.38112276222188496  1.0000
  H   H5        1.0  0.17202368819361877  0.9173680812634899  0.5195559443714969  1.0000
  H   H6        1.0  0.8279784869935013  0.0826332920014394  0.48044963555434345  1.0000
  H   H7        1.0  0.2744230246673709  0.7412229146322389  0.49670783241959526  1.0000
  H   H8        1.0  0.7255767441637531  0.2587775728267658  0.5032977157026224  1.0000
  H   H9        1.0  0.8171825549859406  0.5395497068995425  0.09455012766801467  1.0000
  H   H10       1.0  0.18281882792834378  0.4604525521713185  0.9054496302304501  1.0000
  H   H11       1.0  0.6391012418750606  0.3628828005754272  0.06737606216931616  1.0000
  H   H12       1.0  0.3608980086200048  0.6371194584954409  0.9326255510923004  1.0000
  H   H13       1.0  0.4279780665122672  0.2508017762315475  0.880797784050415  1.0000
  H   H14       1.0  0.5720230424652398  0.7491995970333819  0.11920309081197897  1.0000
  H   H15       1.0  0.397451317410372  0.3194074455228915  0.7259311705792015  1.0000
  H   H16       1.0  0.6025481774839817  0.6805921561301815  0.2740694862455796  1.0000
  H   H17       1.0  0.8855161753470355  0.9017256343426965  0.2870606952702416  1.0000
  H   H18       1.0  0.1144854519665301  0.0982739673103765  0.7129448654854186  1.0000
  H   H19       1.0  0.029851366875014648  0.8486942049155317  0.14970016322769197  1.0000
  H   H20       1.0  0.9701508083121055  0.1513071683494047  0.850306167730814  1.0000
  H   H21       1.0  0.1570310386180793  0.6849901825734577  0.13258724539022645  1.0000
  H   H22       1.0  0.8429714105058109  0.3150120764974034  0.867415715506354  1.0000
  H   H23       1.0  0.1383821533560123  0.5775773554815586  0.2517787823236474  1.0000
  H   H24       1.0  0.861619992293619  0.422420474559658  0.7482209498679069  1.0000
  H   H25       1.0  0.04143198984338172  0.37140513942954817  0.17703828692555126  1.0000
  H   H26       1.0  0.9585669571774175  0.6285926906116615  0.8229600976310393  1.0000
  H   H27       1.0  0.8432047872038879  0.2145005634074266  0.0016882028486762365  1.0000
  H   H28       1.0  0.15679522602651727  0.7854972666337828  0.9983096295426744  1.0000
  H   H29       1.0  0.8669801488104056  0.99560689004538  0.18183420728337998  1.0000
  H   H30       1.0  0.1330206862303314  0.0043935974136247  0.8181647804122463  1.0000
  H   H31       1.0  0.0650462239833587  0.1623009057486868  0.34921553624378276  1.0000
  H   H32       1.0  0.9349540631838307  0.8376978100984545  0.6507819302163256  1.0000
  H   H33       1.0  0.3813981120264742  0.9517302649064803  0.7837030710421896  1.0000
  H   H34       1.0  0.6186003166582664  0.04826933674659269  0.21629588484982068  1.0000
  H   H35       1.0  0.5986093850195359  0.1138774387702526  0.930700461887959  1.0000
  H   H36       1.0  0.4013901098748178  0.8861221628828275  0.06929794183881201  1.0000
  H   H37       1.0  0.7893438476655988  0.8471821341927352  0.9983685574790612  1.0000
  H   H38       1.0  0.21065564722874797  0.1528174674603378  0.0016305972803820823  1.0000
  H   H39       1.0  0.5618185757371563  0.6981948915744383  0.8515832193698072  1.0000
  H   H40       1.0  0.4381787867379714  0.3018047100786347  0.14841553765477758  1.0000
  H   H41       1.0  0.30790139557873175  0.7047303677272012  0.7053572864677234  1.0000
  H   H42       1.0  0.6920980993156219  0.2952692339258718  0.29463961519370935  1.0000
  H   H43       1.0  0.1354912054161233  0.6324875792866038  0.6520517409616318  1.0000
  H   H44       1.0  0.8645091112885481  0.3675146797842572  0.34795007116741766  1.0000
  C   C1        1.0  0.557119822943065  0.7330513549264596  0.5606183083138986  1.0000
  C   C2        1.0  0.4429002629456207  0.2669562189799848  0.4393809338106395  1.0000
  C   C3        1.0  0.49909292064822347  0.8406732322178812  0.5789608374237716  1.0000
  C   C4        1.0  0.5009036790915644  0.1593307984648433  0.4210394473730687  1.0000
  C   C5        1.0  0.5911298598236883  0.9555737768374684  0.6360570591339466  1.0000
  C   C6        1.0  0.4088717970273734  0.0444293680393244  0.3639445859312858  1.0000
  C   C7        1.0  0.5373004784682393  0.0555568621340683  0.6522351065247703  1.0000
  C   C8        1.0  0.4626958473347713  0.9444462827427245  0.3477670462686503  1.0000
  C   C9        1.0  0.3859067473511573  0.0413644795209507  0.609500640854904  1.0000
  C   C10       1.0  0.6140879643687001  0.9586368937439859  0.3905012939009111  1.0000
  C   C11       1.0  0.290320376000011  0.928327272231499  0.5532225308326986  1.0000
  C   C12       1.0  0.7096754019294521  0.0716741010334303  0.4467803538232147  1.0000
  C   C13       1.0  0.3470665817981454  0.8296688651474325  0.5389387098456665  1.0000
  C   C14       1.0  0.6529313285505366  0.1703325081175038  0.46106231944710163  1.0000
  C   C15       1.0  0.5676654166445019  0.49579620878493813  0.7206317405195293  1.0000
  C   C16       1.0  0.43235360303457776  0.5042113651215061  0.2793748130642797  1.0000
  C   C17       1.0  0.5912688923824518  0.4613906206513647  0.819130511919397  1.0000
  C   C18       1.0  0.4087249975270737  0.5386080951957766  0.18086501030345653  1.0000
  C   C19       1.0  0.7073781215164843  0.5210638229429136  0.9243924902891649  1.0000
  C   C20       1.0  0.292618722622592  0.4789375503220228  0.07560533600549484  1.0000
  C   C21       1.0  0.7262832345488306  0.4876042755427648  0.013614610635940577  1.0000
  C   C22       1.0  0.2737159864087459  0.5123944403043836  0.9863834079894077  1.0000
  C   C23       1.0  0.6258833305248855  0.38896092715950203  0.9973168932218924  1.0000
  C   C24       1.0  0.37411564603340247  0.6110404461054273  0.002682832872963601  1.0000
  C   C25       1.0  0.5080774617907835  0.3268216411583751  0.893310274443806  1.0000
  C   C26       1.0  0.49192069295718  0.6731770746887662  0.10668754531411646  1.0000
  C   C27       1.0  0.49065150683460246  0.3639333664086024  0.8063284633307717  1.0000
  C   C28       1.0  0.509347743660463  0.6360688926622657  0.19367465199618286  1.0000
  C   C29       1.0  0.9901625913869835  0.6047848846265964  0.4001397561831439  1.0000
  C   C30       1.0  0.009821732173548989  0.3952173744442646  0.599865832228481  1.0000
  C   C31       1.0  0.9991283090901533  0.6745491880745931  0.3321485601941063  1.0000
  C   C32       1.0  0.0008775239868725969  0.3254433271310404  0.6678476026280505  1.0000
  C   C33       1.0  0.9311803865726913  0.7675977862029271  0.34011964124719174  1.0000
  C   C34       1.0  0.06882069286732669  0.2324000438382896  0.6598821451749401  1.0000
  C   C35       1.0  0.9400622925707437  0.8295785129425539  0.27514784987491936  1.0000
  C   C36       1.0  0.0599420150355954  0.1704228603223825  0.7248543726224312  1.0000
  C   C37       1.0  0.020939377231577804  0.7996037260716733  0.19981220931730093  1.0000
  C   C38       1.0  0.9790638641651483  0.20039764719325603  0.8001913163779548  1.0000
  C   C39       1.0  0.09277916584350267  0.708817476288985  0.19088159596205387  1.0000
  C   C40       1.0  0.9072211213236798  0.2911812395581563  0.8091173725633922  1.0000
  C   C41       1.0  0.08165616393893768  0.647709268390571  0.25636820970424873  1.0000
  C   C42       1.0  0.9183473218570696  0.3522894474565703  0.7436321064561539  1.0000
  C   C43       1.0  0.9990602794930794  0.2864962119935086  0.17419283145081718  1.0000
  C   C44       1.0  0.0009400076741102233  0.7135025038536327  0.825806137074636  1.0000
  C   C45       1.0  0.8886460211285935  0.1982150213813298  0.0764699583784747  1.0000
  C   C46       1.0  0.1113580125409683  0.8017854660776749  0.9235288748867703  1.0000
  C   C47       1.0  0.8373793518424788  0.08996687929728608  0.07634495623243957  1.0000
  C   C48       1.0  0.16262468182708287  0.9100336081617186  0.9236553790981502  1.0000
  C   C49       1.0  0.90380456415361  0.0768356921885101  0.17602872737549555  1.0000
  C   C50       1.0  0.0961941384679079  0.9231647952704947  0.8239713646506032  1.0000
  C   C51       1.0  0.012746357687326805  0.1697647065162684  0.2703163144481735  1.0000
  C   C52       1.0  0.9872549956894686  0.8302340093308729  0.7296821019120328  1.0000
  C   C53       1.0  0.47364836372235425  0.9323771769442217  0.8343517930293273  1.0000
  C   C54       1.0  0.5263500649623865  0.0676224247088513  0.16564641183001783  1.0000
  C   C55       1.0  0.596511536701641  0.022707635019799  0.9154957973341311  1.0000
  C   C56       1.0  0.403488232129483  0.9772928524392057  0.08450374252672799  1.0000
  C   C57       1.0  0.7128797110437901  0.995627263581774  0.9803257991692645  1.0000
  C   C58       1.0  0.2871208500601696  0.004372338071299  0.019672803424931818  1.0000
  C   C59       1.0  0.7008141123822326  0.875773292200698  0.9550725069836686  1.0000
  C   C60       1.0  0.2991829761561178  0.12422542364644332  0.04492586493949349  1.0000
  C   C61       1.0  0.5736026453385392  0.7915358056597271  0.8723309535595902  1.0000
  C   C62       1.0  0.4263955094094242  0.2084629101874214  0.12766686619832507  1.0000
  N   N1        1.0  0.059827394426008595  0.2739248542325967  0.27039555678828714  1.0000
  N   N2        1.0  0.9401771575796118  0.7260738616145447  0.7296034561742103  1.0000
  N   N3        1.0  0.4597970115852447  0.8184882226968783  0.8137078333825086  1.0000
  N   N4        1.0  0.5402008692259486  0.1815096073443314  0.18629035230665633  1.0000
  O   O1        1.0  0.47132393054383925  0.6371424894496229  0.5414582354619099  1.0000
  O   O2        1.0  0.5286736763305768  0.36285445478566203  0.4585403161584977  1.0000
  O   O3        1.0  0.6891371549328936  0.7393892963567978  0.5632457262412984  1.0000
  O   O4        1.0  0.3108562461780622  0.2606147343259266  0.43675095782256784  1.0000
  O   O5        1.0  0.4346167384799955  0.481010336198608  0.6636441799842885  1.0000
  O   O6        1.0  0.5653689547644162  0.5189963519019045  0.3363543215424158  1.0000
  O   O7        1.0  0.6806748430977194  0.5345821072431747  0.7017047731313966  1.0000
  O   O8        1.0  0.31931188681880934  0.4654210376336181  0.29830009605117164  1.0000
  O   O9        1.0  0.05936614208398788  0.523505989892378  0.38370008331876443  1.0000
  O   O10       1.0  0.9406379882974037  0.47647412403023287  0.6162903347856528  1.0000
  O   O11       1.0  0.9158328053323216  0.6291117728867448  0.4679241476173956  1.0000
  O   O12       1.0  0.08418554832324078  0.370879856512957  0.532064253087796  1.0000
  O   O13       1.0  0.2287416467286576  0.637413546064252  0.6371375777326093  1.0000
  O   O14       1.0  0.7712608023952398  0.36258871300660894  0.36286237903328805  1.0000
  F   F1        1.0  0.7392643386673825  0.9736211868586649  0.6819969593251612  1.0000
  F   F2        1.0  0.2607343934916244  0.0263828438240594  0.3180014701085269  1.0000
  F   F3        1.0  0.8051441862300948  0.6202785161511315  0.9443558030263474  1.0000
  F   F4        1.0  0.1948566192731462  0.3797184280841535  0.05564184313101346  1.0000
  F   F5        1.0  0.854639274034625  0.8034986147466155  0.4150919186394404  1.0000
  F   F6        1.0  0.1453596434486855  0.1964956720708813  0.5849058754115646  1.0000
