data_image0
_chemical_formula_structural       Cd2H16C20S4N12
_chemical_formula_sum              "Cd2 H16 C20 S4 N12"
_cell_length_a       8.722233178100673
_cell_length_b       9.120703302377766
_cell_length_c       9.120691102707877
_cell_angle_alpha    113.53546531085152
_cell_angle_beta     89.99994525478543
_cell_angle_gamma    90.00052607031962

_space_group_name_H-M_alt    "P 1"
_space_group_IT_number       1

loop_
  _space_group_symop_operation_xyz
  'x, y, z'

loop_
  _atom_site_type_symbol
  _atom_site_label
  _atom_site_symmetry_multiplicity
  _atom_site_fract_x
  _atom_site_fract_y
  _atom_site_fract_z
  _atom_site_occupancy
  Cd  Cd1       1.0  1.0017943453000004e-06  0.49999744967529847  0.5000018866537701  1.0000
  Cd  Cd2       1.0  0.5000044454436079  4.494452042498298e-06  0.9999986047066473  1.0000
  H   H1        1.0  0.9404214711998338  0.1915809689551083  0.5845690327555318  1.0000
  H   H2        1.0  0.44041802880566655  0.30840504175022704  0.9154244980663008  1.0000
  H   H3        1.0  0.05959067123737331  0.5845735095305785  0.1915847035996947  1.0000
  H   H4        1.0  0.5595880116653049  0.9154296381388037  0.3084171208518144  1.0000
  H   H5        1.0  0.05959392600070859  0.8084178524135697  0.4154259991240466  1.0000
  H   H6        1.0  0.5595859033937813  0.6915841420822773  0.08457206282620434  1.0000
  H   H7        1.0  0.9404212865162762  0.41543369666153757  0.8084126713401432  1.0000
  H   H8        1.0  0.44043197152322483  0.08457147540283225  0.6915865266981385  1.0000
  H   H9        1.0  0.7500026793027317  0.9670260404496034  0.5329662371073526  1.0000
  H   H10       1.0  0.25000340121366793  0.5329654899498523  0.967025447311343  1.0000
  H   H11       1.0  0.25001271789294316  0.0329715993229271  0.46702721358332877  1.0000
  H   H12       1.0  0.750005117001649  0.4670308971499822  0.03297187546507986  1.0000
  H   H13       1.0  0.7499938283996315  0.28603025273985594  0.21398092463099522  1.0000
  H   H14       1.0  0.2499896116401956  0.21397453571149339  0.2860267800267806  1.0000
  H   H15       1.0  0.24998602749097643  0.713980341787611  0.7860331910531713  1.0000
  H   H16       1.0  0.7499856582137808  0.7860219506815584  0.7139629080980471  1.0000
  C   C1        1.0  0.7010789976599626  0.6231180145447085  0.37687733849939076  1.0000
  C   C2        1.0  0.20108225972521152  0.8768830430106079  0.12311691328095986  1.0000
  C   C3        1.0  0.2989192020746003  0.37687465721384683  0.6231283285791562  1.0000
  C   C4        1.0  0.7989216725792971  0.12312779318057208  0.8768786612705243  1.0000
  C   C5        1.0  0.8533565229955684  0.1627784732136845  0.4911699769795276  1.0000
  C   C6        1.0  0.3533446191072827  0.3372128692030359  0.008841980722671427  1.0000
  C   C7        1.0  0.1466447759421854  0.4911778279552621  0.1627924428693817  1.0000
  C   C8        1.0  0.6466438918432118  0.008819964299490803  0.3372113949956059  1.0000
  C   C9        1.0  0.1466497022205715  0.8372155790993007  0.5088220021013543  1.0000
  C   C10       1.0  0.6466467016842188  0.6627868920980833  0.9911731734784868  1.0000
  C   C11       1.0  0.8533453984184688  0.5088351724413231  0.8372215632374919  1.0000
  C   C12       1.0  0.3533485753830234  0.9911644930912118  0.6627788411233623  1.0000
  C   C13       1.0  0.7500062585217863  0.03829465391827111  0.4617029100214651  1.0000
  C   C14       1.0  0.2500024043397602  0.461693407603086  0.03829683657326655  1.0000
  C   C15       1.0  0.25000225965526823  0.9616944446864436  0.5383001948206925  1.0000
  C   C16       1.0  0.7500026743988357  0.5383042605348508  0.9616944327871124  1.0000
  C   C17       1.0  0.7499968846792414  0.21453372925891764  0.2854675531363213  1.0000
  C   C18       1.0  0.24999343429846013  0.2854638559823073  0.21453938965547786  1.0000
  C   C19       1.0  0.24999214316626  0.7854734626103339  0.7145309124247134  1.0000
  C   C20       1.0  0.7499864215321494  0.7145335989030884  0.7854682395216201  1.0000
  S   S1        1.0  0.517990633319215  0.6358250962718446  0.36417343372637134  1.0000
  S   S2        1.0  0.0179949056841338  0.8641790025796824  0.13581566317500204  1.0000
  S   S3        1.0  0.4820144453451221  0.3641591196382166  0.6358353435826913  1.0000
  S   S4        1.0  0.982014759152385  0.13584164162042361  0.864165294469629  1.0000
  N   N1        1.0  0.8375806962194831  0.6155034104677526  0.38448937067442307  1.0000
  N   N2        1.0  0.33756913544903705  0.8844941407987008  0.11550989014733665  1.0000
  N   N3        1.0  0.162417503545889  0.3844953113559982  0.6155132957778022  1.0000
  N   N4        1.0  0.6624233318663714  0.1155105458109631  0.8844963196120899  1.0000
  N   N5        1.0  0.8499691161986433  0.25432320537614583  0.40645459993876193  1.0000
  N   N6        1.0  0.34996197074266894  0.24567304277008625  0.09354731206770592  1.0000
  N   N7        1.0  0.150032212036507  0.4064509760599293  0.25431882077008083  1.0000
  N   N8        1.0  0.650033389924829  0.0935492842454408  0.24568273679318509  1.0000
  N   N9        1.0  0.1500359625791887  0.7456849976680007  0.5935585347212469  1.0000
  N   N10       1.0  0.6500304965192357  0.7543186462819594  0.906441504613845  1.0000
  N   N11       1.0  0.8499648412548879  0.5935503647024165  0.7456673762307063  1.0000
  N   N12       1.0  0.34996366331663603  0.906444512269765  0.7543288741007785  1.0000
