data_image0
_chemical_formula_structural       Cd4H16C20I8N8O8
_chemical_formula_sum              "Cd4 H16 C20 I8 N8 O8"
_cell_length_a       7.409341061761419
_cell_length_b       7.685819945398007
_cell_length_c       19.871954427119608
_cell_angle_alpha    90.0006194343802
_cell_angle_beta     90.00040232328946
_cell_angle_gamma    113.94005896048897

_space_group_name_H-M_alt    "P 1"
_space_group_IT_number       1

loop_
  _space_group_symop_operation_xyz
  'x, y, z'

loop_
  _atom_site_type_symbol
  _atom_site_label
  _atom_site_symmetry_multiplicity
  _atom_site_fract_x
  _atom_site_fract_y
  _atom_site_fract_z
  _atom_site_occupancy
  Cd  Cd1       1.0  0.846256595711793  0.8110383186930648  0.5470190577359517  1.0000
  Cd  Cd2       1.0  0.15374280806555873  0.18896038490051137  0.0470199737168286  1.0000
  Cd  Cd3       1.0  0.31926468185469753  0.7555386631930077  0.47576214439875036  1.0000
  Cd  Cd4       1.0  0.6807288292059753  0.24445875908569553  0.9757607375872865  1.0000
  H   H1        1.0  0.05242230655185409  0.1017749340996659  0.8015431494958634  1.0000
  H   H2        1.0  0.9475868661896101  0.8982251353610168  0.301537910894254  1.0000
  H   H3        1.0  0.4553342669278565  0.4282636060534841  0.657651300999369  1.0000
  H   H4        1.0  0.5446717606454643  0.5717354859087324  0.1576518248551295  1.0000
  H   H5        1.0  0.2571248940561688  0.20335185953838664  0.5663652152951215  1.0000
  H   H6        1.0  0.7428695554315252  0.7966600647000703  0.0663690538873567  1.0000
  H   H7        1.0  0.5985250267246727  0.7185196447172046  0.7771395604710634  1.0000
  H   H8        1.0  0.4014907166795183  0.2814742476377035  0.2771420723776856  1.0000
  H   H9        1.0  0.014390430218533435  0.4951480557998666  0.2263694898053075  1.0000
  H   H10       1.0  0.9856189557264302  0.5048478855480596  0.7263670228833092  1.0000
  H   H11       1.0  0.6745673882867181  0.14758650790374622  0.3792876095455568  1.0000
  H   H12       1.0  0.3254406250658022  0.8524248822492595  0.8792940087829137  1.0000
  H   H13       1.0  0.9154058128130202  0.3543375365455717  0.46574027101781473  1.0000
  H   H14       1.0  0.08458605863642527  0.6456625860352858  0.9657458299186884  1.0000
  H   H15       1.0  0.45005956998745933  0.8924963490612612  0.2348952653310405  1.0000
  H   H16       1.0  0.5499079030442999  0.10749292436440071  0.7348949296801806  1.0000
  C   C1        1.0  0.984222168202095  0.0039331725531895  0.6980298969770118  1.0000
  C   C2        1.0  0.015800526346026824  0.9960850385615744  0.1980337805302241  1.0000
  C   C3        1.0  0.0972728096852862  0.12584884720197917  0.7487045303441136  1.0000
  C   C4        1.0  0.9027310871529933  0.8741432297095529  0.2487100235903696  1.0000
  C   C5        1.0  0.32044922658925395  0.30448953929961686  0.6699181558794294  1.0000
  C   C6        1.0  0.6795643171001656  0.6955268406109526  0.1699225665791602  1.0000
  C   C7        1.0  0.2103594924389043  0.1804013792741017  0.6189396431355193  1.0000
  C   C8        1.0  0.7896276639591447  0.8195986354910829  0.11893778177352489  1.0000
  C   C9        1.0  0.7933247774325024  0.837777039993192  0.7103255801234667  1.0000
  C   C10       1.0  0.20669299568304214  0.1622357041546252  0.2103179645142461  1.0000
  C   C11       1.0  0.1274298188839325  0.5769237984395019  0.32763582118955276  1.0000
  C   C12       1.0  0.8725658566716773  0.4230725329873906  0.8276323556230665  1.0000
  C   C13       1.0  0.9921211689757216  0.4635317230449162  0.2800574971957914  1.0000
  C   C14       1.0  0.007880435749441965  0.5364637580847571  0.7800564758984692  1.0000
  C   C15       1.0  0.8046155687863461  0.2721184602454727  0.3637744642374799  1.0000
  C   C16       1.0  0.1953742152548017  0.7278885262730485  0.8637805128379412  1.0000
  C   C17       1.0  0.9390745494595764  0.3861195519734295  0.4121135917336574  1.0000
  C   C18       1.0  0.060916068233318174  0.6138725329818226  0.9121143123091215  1.0000
  C   C19       1.0  0.3100497481183808  0.7461756919869131  0.3096591571896994  1.0000
  C   C20       1.0  0.6899360836532226  0.25382326985826603  0.8096583534302156  1.0000
  I   I1        1.0  0.6155964751783002  0.0517802557609954  0.5517825308099377  1.0000
  I   I2        1.0  0.38441620654286596  0.9482241371716567  0.0517870177137851  1.0000
  I   I3        1.0  0.5440835070177884  0.5170724650927099  0.4723952129650115  1.0000
  I   I4        1.0  0.4559290090126709  0.4829347491147544  0.9723990908586799  1.0000
  I   I5        1.0  0.10592564325530421  0.0032741796431424008  0.4380220550393616  1.0000
  I   I6        1.0  0.8940883782697783  0.9967310137170105  0.9380185685613823  1.0000
  I   I7        1.0  0.061666593640815275  0.573212533688121  0.5884454574851219  1.0000
  I   I8        1.0  0.9383236051399494  0.42678265710344476  0.0884450119303395  1.0000
  N   N1        1.0  0.043949335103022194  0.030901301464339795  0.6332911965620696  1.0000
  N   N2        1.0  0.956074839050828  0.9691186610584099  0.1332910044615119  1.0000
  N   N3        1.0  0.266339639914321  0.2766020934623583  0.7346735386317746  1.0000
  N   N4        1.0  0.7336454431728328  0.7233841810967904  0.2346748276929276  1.0000
  N   N5        1.0  0.09837505938292414  0.5381512114953395  0.39397636402508607  1.0000
  N   N6        1.0  0.9016228430222952  0.4618362248093675  0.8939732764637754  1.0000
  N   N7        1.0  0.8291698447801323  0.31058365064808413  0.2979869523202794  1.0000
  N   N8        1.0  0.17080614635177935  0.6894051931942045  0.7979855973008654  1.0000
  O   O1        1.0  0.7040257045510926  0.7206555942525554  0.6668380908286835  1.0000
  O   O2        1.0  0.2959669228982307  0.279330903434257  0.1668406809628138  1.0000
  O   O3        1.0  0.7261717536017401  0.8289030977209181  0.7736553752309447  1.0000
  O   O4        1.0  0.2738401494247569  0.17108505272552318  0.2736596554626445  1.0000
  O   O5        1.0  0.4327964793555096  0.8436175049939152  0.3509495780385663  1.0000
  O   O6        1.0  0.567187835949376  0.15638645118201575  0.8509461211691303  1.0000
  O   O7        1.0  0.3259802967421379  0.7814164263584049  0.2431510039131837  1.0000
  O   O8        1.0  0.6739940402931454  0.2185729325234149  0.7431488908095787  1.0000
