data_image0
_chemical_formula_structural       Cd2H20C28Cl4O10
_chemical_formula_sum              "Cd2 H20 C28 Cl4 O10"
_cell_length_a       6.254649331531648
_cell_length_b       7.320552476096523
_cell_length_c       17.06526869635228
_cell_angle_alpha    97.29804289399372
_cell_angle_beta     103.48075364828661
_cell_angle_gamma    86.84571138381396

_space_group_name_H-M_alt    "P 1"
_space_group_IT_number       1

loop_
  _space_group_symop_operation_xyz
  'x, y, z'

loop_
  _atom_site_type_symbol
  _atom_site_label
  _atom_site_symmetry_multiplicity
  _atom_site_fract_x
  _atom_site_fract_y
  _atom_site_fract_z
  _atom_site_occupancy
  Cd  Cd1       1.0  0.8257828929671831  0.2465016959161943  0.9961920225031805  1.0000
  Cd  Cd2       1.0  0.1742101731960304  0.7535072985002742  0.0038075447514386916  1.0000
  H   H1        1.0  0.5429520533662568  0.6053234210572853  0.16047828061787336  1.0000
  H   H2        1.0  0.4060914222135921  0.8896641783440558  0.849725795828711  1.0000
  H   H3        1.0  0.45707057791002376  0.3946851156934343  0.8395229938366813  1.0000
  H   H4        1.0  0.5939101131094234  0.11035003818476952  0.1502800226963998  1.0000
  H   H5        1.0  0.7814902493291883  0.6987771459277142  0.2970216434952277  1.0000
  H   H6        1.0  0.5161112129792045  0.8046163360855089  0.7187695051920713  1.0000
  H   H7        1.0  0.2185097119928443  0.301224718597993  0.7029827291892874  1.0000
  H   H8        1.0  0.4838889101307303  0.19536213172114  0.2812328996567146  1.0000
  H   H9        1.0  0.28805282547452293  0.5272365472055752  0.4098504445500382  1.0000
  H   H10       1.0  0.8779694516343567  0.9853836818683773  0.5894015555139731  1.0000
  H   H11       1.0  0.7119551035576845  0.4727488647523899  0.5901465392850369  1.0000
  H   H12       1.0  0.1220253583280666  0.014621119815181802  0.4105990710225953  1.0000
  H   H13       1.0  0.05025947943788368  0.4316844747947357  0.2724222341751883  1.0000
  H   H14       1.0  0.7685510644601479  0.0719174964137821  0.7215680772748172  1.0000
  H   H15       1.0  0.9497498818005924  0.5683147354073768  0.7275739259924522  1.0000
  H   H16       1.0  0.23143395792739344  0.928081937167228  0.27843204723339454  1.0000
  H   H17       1.0  0.39002075716437196  0.355600160909013  0.01671227298363221  1.0000
  H   H18       1.0  0.3636054164943586  0.1676611907366308  0.9598425940479771  1.0000
  H   H19       1.0  0.6099686521510392  0.6444063385398023  0.9832798248308877  1.0000
  H   H20       1.0  0.6363921572352639  0.8323520632524292  0.0401505471614527  1.0000
  C   C1        1.0  0.1441886899239506  0.44843086384805275  0.1267903907983765  1.0000
  C   C2        1.0  0.014916679036701895  0.04079875417532009  0.8720842146028218  1.0000
  C   C3        1.0  0.8558155948574396  0.5515739863829054  0.8732039486138775  1.0000
  C   C4        1.0  0.9850728949414246  0.9592035444493519  0.12790999034770323  1.0000
  C   C5        1.0  0.2820736451030541  0.5118870006195734  0.20819189949884992  1.0000
  C   C6        1.0  0.07974020209515228  0.9858828686018126  0.7938832931496407  1.0000
  C   C7        1.0  0.7179405427562526  0.48813275533059663  0.791807036284915  1.0000
  C   C8        1.0  0.9202578444664554  0.0141164228606243  0.20611550060828418  1.0000
  C   C9        1.0  0.48768589794464406  0.5879259882279371  0.21504596866539324  1.0000
  C   C10       1.0  0.29044742945676216  0.9107469153374409  0.7928878156172205  1.0000
  C   C11       1.0  0.5123367253213048  0.4120756965397518  0.7849537245120786  1.0000
  C   C12       1.0  0.7095510001766313  0.0892453172935248  0.2071164489457473  1.0000
  C   C13       1.0  0.6212767228452449  0.64041836880871  0.2910849692877946  1.0000
  C   C14       1.0  0.3528448997076197  0.862744633164759  0.719843891819643  1.0000
  C   C15       1.0  0.3787297213973205  0.3595752126204984  0.7089164878849632  1.0000
  C   C16       1.0  0.6471218493757079  0.13725793140478967  0.2801520542703742  1.0000
  C   C17       1.0  0.5480664966171177  0.6167005337309703  0.36046531784091945  1.0000
  C   C18       1.0  0.2030176321019468  0.8895967594163209  0.6472310836468511  1.0000
  C   C19       1.0  0.4519431756654484  0.3833081106635774  0.639538462710945  1.0000
  C   C20       1.0  0.7969745838915048  0.1103830452257171  0.3527766416582026  1.0000
  C   C21       1.0  0.3418358227262387  0.5444787675151234  0.35501172704554324  1.0000
  C   C22       1.0  0.9916487867648343  0.9638620937922224  0.6466177657461784  1.0000
  C   C23       1.0  0.6581818384226636  0.45551478436586723  0.6449853335164094  1.0000
  C   C24       1.0  0.008369400962401104  0.036118838378961  0.3533862038972942  1.0000
  C   C25       1.0  0.20981173209791146  0.49168229214310327  0.2785254323494684  1.0000
  C   C26       1.0  0.9312341277489438  0.011861695564036294  0.7202591814235859  1.0000
  C   C27       1.0  0.7901915687293412  0.5083016665374913  0.7214763768822865  1.0000
  C   C28       1.0  0.06874717890892872  0.9881462441443887  0.2797347108061459  1.0000
  Cl  Cl1       1.0  0.7199868493508034  0.6753834816400115  0.45466257745569294  1.0000
  Cl  Cl2       1.0  0.2846183455899691  0.8314847866271222  0.5570065070219884  1.0000
  Cl  Cl3       1.0  0.28001321145359276  0.32461421653629685  0.545342727017804  1.0000
  Cl  Cl4       1.0  0.7153738280911454  0.16849229790654618  0.4429998805640238  1.0000
  O   O1        1.0  0.9639098874853786  0.3706184390370026  0.12300451487531924  1.0000
  O   O2        1.0  0.8207801671741707  0.10388921840836929  0.8709963473378083  1.0000
  O   O3        1.0  0.0361159363659027  0.6293859820215173  0.876994420313089  1.0000
  O   O4        1.0  0.17920003776585247  0.8961198319398208  0.12900748903464893  1.0000
  O   O5        1.0  0.21006140445552288  0.4696314116204476  0.0626938048637626  1.0000
  O   O6        1.0  0.15816651884507138  0.028828004356427094  0.939677476578602  1.0000
  O   O7        1.0  0.789939981062453  0.530377399166376  0.9373081628762279  1.0000
  O   O8        1.0  0.8418252563577228  0.97119317074435  0.060330921286315224  1.0000
  O   O9        1.0  0.46028426334960676  0.27658999890802244  0.977297426061824  1.0000
  O   O10       1.0  0.5397149746900497  0.7234012782195052  0.022691605296820697  1.0000
