data_image0
_chemical_formula_structural       Cu4H20C24N4O12
_chemical_formula_sum              "Cu4 H20 C24 N4 O12"
_cell_length_a       3.602271861126023
_cell_length_b       12.97533248913278
_cell_length_c       15.587954282361208
_cell_angle_alpha    89.99964864160071
_cell_angle_beta     89.99928879944129
_cell_angle_gamma    98.47869666792312

_space_group_name_H-M_alt    "P 1"
_space_group_IT_number       1

loop_
  _space_group_symop_operation_xyz
  'x, y, z'

loop_
  _atom_site_type_symbol
  _atom_site_label
  _atom_site_symmetry_multiplicity
  _atom_site_fract_x
  _atom_site_fract_y
  _atom_site_fract_z
  _atom_site_occupancy
  Cu  Cu1       1.0  0.7460884195559245  0.5080678014182067  0.9205102360310207  1.0000
  Cu  Cu2       1.0  0.2461134369644071  0.0080760435237934  0.5794855071425857  1.0000
  Cu  Cu3       1.0  0.2538904986791053  0.4919283251535375  0.07948536843866799  1.0000
  Cu  Cu4       1.0  0.7539267706994862  0.9919319725315103  0.4205126632837092  1.0000
  H   H1        1.0  0.6755958567675366  0.3544464996235348  0.0101719112073511  1.0000
  H   H2        1.0  0.17560944433448364  0.8544571143646421  0.4898315564039279  1.0000
  H   H3        1.0  0.32440544752108746  0.6455442639592235  0.9898313914923946  1.0000
  H   H4        1.0  0.8244220421051341  0.14555009219891699  0.5101659725172567  1.0000
  H   H5        1.0  0.8335752440386346  0.7305606809281998  0.8995927412630065  1.0000
  H   H6        1.0  0.33359283312187676  0.23056714382792617  0.6004060873686115  1.0000
  H   H7        1.0  0.1664159319765943  0.2694378235211801  0.1004073538281958  1.0000
  H   H8        1.0  0.666436386599777  0.769435387830647  0.3996004228620009  1.0000
  H   H9        1.0  0.6662779902035112  0.8520624604347803  0.7841060887092581  1.0000
  H   H10       1.0  0.16625583374166555  0.3520614709775103  0.7158952213832918  1.0000
  H   H11       1.0  0.3337321391444874  0.1479407795542187  0.21589913850785786  1.0000
  H   H12       1.0  0.8337158740681758  0.6479369626432501  0.284106798301984  1.0000
  H   H13       1.0  0.500246562894553  0.5916943907220045  0.6113049911398816  1.0000
  H   H14       1.0  0.0002598688086905857  0.09168646151380948  0.8886936747195477  1.0000
  H   H15       1.0  0.4997664516748088  0.4083205263385422  0.388693179312078  1.0000
  H   H16       1.0  0.9997270150722812  0.9083089162469874  0.11130577886539329  1.0000
  H   H17       1.0  0.6719769690479679  0.47868405584432583  0.7345206601355655  1.0000
  H   H18       1.0  0.17200311823378905  0.9786867142671555  0.7654722918583514  1.0000
  H   H19       1.0  0.3280184993739681  0.5213175753428629  0.26546981212592863  1.0000
  H   H20       1.0  0.8280218094727942  0.021312690724379  0.23452908621900545  1.0000
  C   C1        1.0  0.7575768131285442  0.7032119239210103  0.8348583302283145  1.0000
  C   C2        1.0  0.2575763044279711  0.20321615692708414  0.6651402367380399  1.0000
  C   C3        1.0  0.24241676623687886  0.2967858114894639  0.16514433094501868  1.0000
  C   C4        1.0  0.7424252406855559  0.7967808296909026  0.3348624244245499  1.0000
  C   C5        1.0  0.6670107316908157  0.769745283453872  0.7710667403015989  1.0000
  C   C6        1.0  0.16700532553136332  0.26974578789887  0.7289337015458557  1.0000
  C   C7        1.0  0.3329815774790674  0.2302555584110735  0.2289365623868846  1.0000
  C   C8        1.0  0.8329799103393541  0.7302519171604372  0.2710689596407931  1.0000
  C   C9        1.0  0.5651371366000006  0.7298884992092877  0.6896804414598917  1.0000
  C   C10       1.0  0.06514183055396218  0.2298836087341555  0.8103179596394554  1.0000
  C   C11       1.0  0.43485857240845155  0.270119354970049  0.31031837055843425  1.0000
  C   C12       1.0  0.9348283663205735  0.7701117083212309  0.18968213549312202  1.0000
  C   C13       1.0  0.5725740583895843  0.6240464139349411  0.6746395965038658  1.0000
  C   C14       1.0  0.07258907853539401  0.12404141963290977  0.8253593173423183  1.0000
  C   C15       1.0  0.42741962491310653  0.3759629884084815  0.3253604985557459  1.0000
  C   C16       1.0  0.9274061488573084  0.8759539884821309  0.1746394947083019  1.0000
  C   C17       1.0  0.6657086659115806  0.5619292248951311  0.741653531141317  1.0000
  C   C18       1.0  0.16572154435672104  0.061930297153459386  0.7583421942546947  1.0000
  C   C19       1.0  0.3342931201630748  0.43807398478269716  0.2583433563161321  1.0000
  C   C20       1.0  0.8342887220832438  0.938067498974732  0.24165725928700968  1.0000
  C   C21       1.0  0.4372817246786694  0.7988295413058777  0.6208273039324936  1.0000
  C   C22       1.0  0.9372960688528879  0.2988217815836407  0.8791766232913429  1.0000
  C   C23       1.0  0.5627024818724992  0.2011774932523522  0.3791734326691554  1.0000
  C   C24       1.0  0.0626789348241986  0.7011719974124021  0.12082475487950009  1.0000
  N   N1        1.0  0.7496162800530471  0.6003984574397023  0.8206123465524938  1.0000
  N   N2        1.0  0.24962651757095947  0.100403373403168  0.6793835590784667  1.0000
  N   N3        1.0  0.2503713593381391  0.399598478611473  0.1793864655063047  1.0000
  N   N4        1.0  0.7503960067343487  0.8995968006180417  0.320617177479761  1.0000
  O   O1        1.0  0.6736040325453062  0.4287153869857647  0.026843573901253096  1.0000
  O   O2        1.0  0.173645561492478  0.9287247045834806  0.4731524668929481  1.0000
  O   O3        1.0  0.32640358975362466  0.5712769551522568  0.9731526720534729  1.0000
  O   O4        1.0  0.8264268869785456  0.0712810954578416  0.5268431374037946  1.0000
  O   O5        1.0  0.4455032154141989  0.8943709912922272  0.6442220365837841  1.0000
  O   O6        1.0  0.9454818909254288  0.39436176620431945  0.8557800973935911  1.0000
  O   O7        1.0  0.5545481169603833  0.1056370652405221  0.3557742092617602  1.0000
  O   O8        1.0  0.054471378083711455  0.6056272671042747  0.1442225638657675  1.0000
  O   O9        1.0  0.3292019836166277  0.7582664708071719  0.5502326829714619  1.0000
  O   O10       1.0  0.8292661777849591  0.2582597843428259  0.9497737173500198  1.0000
  O   O11       1.0  0.670736727995056  0.24173262055872158  0.4497680537225222  1.0000
  O   O12       1.0  0.17074195899494532  0.7417278930134257  0.05023022686769  1.0000
