data_image0
_chemical_formula_structural       FeH10C8O12
_chemical_formula_sum              "Fe1 H10 C8 O12"
_cell_length_a       5.124568723947563
_cell_length_b       7.387690295634743
_cell_length_c       8.771475732405973
_cell_angle_alpha    66.91642585542816
_cell_angle_beta     77.14369687869569
_cell_angle_gamma    75.20325920654379

_space_group_name_H-M_alt    "P 1"
_space_group_IT_number       1

loop_
  _space_group_symop_operation_xyz
  'x, y, z'

loop_
  _atom_site_type_symbol
  _atom_site_label
  _atom_site_symmetry_multiplicity
  _atom_site_fract_x
  _atom_site_fract_y
  _atom_site_fract_z
  _atom_site_occupancy
  Fe  Fe1       1.0  0.002131511166822866  0.9985124381359399  0.0007459693767942076  1.0000
  H   H1        1.0  0.9844643956257428  0.0116370198655531  0.5009170248996143  1.0000
  H   H2        1.0  0.9802373017268023  0.5081377375957318  0.4971933134078839  1.0000
  H   H3        1.0  0.241347307394001  0.8388653549026514  0.2797829151485304  1.0000
  H   H4        1.0  0.7627489871439224  0.15982996430611957  0.7229504536329829  1.0000
  H   H5        1.0  0.47092631005846625  0.7925307997709936  0.13370445483083415  1.0000
  H   H6        1.0  0.5314828094019007  0.20712745247603684  0.8672893641951518  1.0000
  H   H7        1.0  0.8169323059324609  0.6991148174722284  0.9664052091197419  1.0000
  H   H8        1.0  0.18451674181970645  0.2994665488101091  0.03297824607572859  1.0000
  H   H9        1.0  0.9054438527881672  0.6226362277852715  0.1450459652267568  1.0000
  H   H10       1.0  0.09733300529995152  0.37590395929046133  0.8539996374182977  1.0000
  C   C1        1.0  0.6063952979105024  0.18213601100229937  0.2744549499405197  1.0000
  C   C2        1.0  0.3941066213247737  0.815585169300128  0.7254748185167729  1.0000
  C   C3        1.0  0.6352368802641379  0.2020109645881902  0.4289148174408554  1.0000
  C   C4        1.0  0.36662465508677394  0.7969725569955557  0.5680271516579439  1.0000
  C   C5        1.0  0.3725689103154152  0.33269819850735866  0.43363145765528816  1.0000
  C   C6        1.0  0.6302580130849974  0.6672224402130308  0.5681494090462353  1.0000
  C   C7        1.0  0.3348521324007335  0.3186504027723346  0.2754816926848136  1.0000
  C   C8        1.0  0.6667244093033984  0.6799706312337933  0.7247750230133505  1.0000
  O   O1        1.0  0.7411301886171981  0.08426810654516707  0.1853675740740429  1.0000
  O   O2        1.0  0.25672150845045383  0.9122083748254894  0.814630221412678  1.0000
  O   O3        1.0  0.8156042481783174  0.12545413752172863  0.5315202400947855  1.0000
  O   O4        1.0  0.1896182575808536  0.8729566516620224  0.4670121787280905  1.0000
  O   O5        1.0  0.23187305273694384  0.41411358403085075  0.5356997943196546  1.0000
  O   O6        1.0  0.7741091256158087  0.5851992790248204  0.4635850868995348  1.0000
  O   O7        1.0  0.14960594642437283  0.3843320548709741  0.18543466756783292  1.0000
  O   O8        1.0  0.8515655278171581  0.6140601979597946  0.8156776087705496  1.0000
  O   O9        1.0  0.26952927297969603  0.8227756729919945  0.16953359220573114  1.0000
  O   O10       1.0  0.733303570823388  0.17694553607982044  0.8321242869390705  1.0000
  O   O11       1.0  0.8015991162539322  0.7408385350016217  0.0654587959926474  1.0000
  O   O12       1.0  0.20099811766051798  0.25784521337371297  0.9340403903356178  1.0000
