data_image0
_chemical_formula_structural       Hg4H36C44N12Cl8O4
_chemical_formula_sum              "Hg4 H36 C44 N12 Cl8 O4"
_cell_length_a       7.954832604
_cell_length_b       12.000000819596334
_cell_length_c       13.4161
_cell_angle_alpha    90.0
_cell_angle_beta     90.0
_cell_angle_gamma    95.35164011459108

_space_group_name_H-M_alt    "P 1"
_space_group_IT_number       1

loop_
  _space_group_symop_operation_xyz
  'x, y, z'

loop_
  _atom_site_type_symbol
  _atom_site_label
  _atom_site_symmetry_multiplicity
  _atom_site_fract_x
  _atom_site_fract_y
  _atom_site_fract_z
  _atom_site_occupancy
  Hg  Hg1       1.0  0.8313494680417294  0.1775849065695141  0.6190480094811477  1.0000
  Hg  Hg2       1.0  0.6686467985871046  0.3224162104243362  0.1190495002273408  1.0000
  Hg  Hg3       1.0  0.1686481595008971  0.8224131425099657  0.3809527358919524  1.0000
  Hg  Hg4       1.0  0.3313511822363111  0.6775843496000817  0.8809512451457593  1.0000
  H   H1        1.0  0.47681799086540627  0.202210580529389  0.49839372097703466  1.0000
  H   H2        1.0  0.0231836315015173  0.2977905364644613  0.9983929756039416  1.0000
  H   H3        1.0  0.5231772402425251  0.7977883055317392  0.5016062790229654  1.0000
  H   H4        1.0  0.9768153708988411  0.702208349596667  0.0016070243960584  1.0000
  H   H5        1.0  0.5021237724764376  0.50947323827058  0.32907402300221383  1.0000
  H   H6        1.0  0.9978658916943461  0.9905292757293366  0.8290710415098275  1.0000
  H   H7        1.0  0.4978779796394123  0.490527321753838  0.6709267223708794  1.0000
  H   H8        1.0  0.0021284355969016008  0.0094721212767297  0.1709252316246932  1.0000
  H   H9        1.0  0.8109067961599478  0.540269140917566  0.3745551986046607  1.0000
  H   H10       1.0  0.6890868748237935  0.9597350470456405  0.8745566893508538  1.0000
  H   H11       1.0  0.18909448491484684  0.4597280711802725  0.6254455467684323  1.0000
  H   H12       1.0  0.3109088273251928  0.0402671869420672  0.1254403291567598  1.0000
  H   H13       1.0  0.9325078872539265  0.3981931806381596  0.4840177100647766  1.0000
  H   H14       1.0  0.567491129090385  0.1018096103189805  0.9840244184226421  1.0000
  H   H15       1.0  0.0674895047681687  0.6018031944780304  0.5159830353083237  1.0000
  H   H16       1.0  0.4325066162124998  0.8981892757421477  0.0159778176966512  1.0000
  H   H17       1.0  0.0388410487752822  0.0451066148135908  0.4293065794083262  1.0000
  H   H18       1.0  0.4611619484493872  0.4548953391619079  0.9293073247814192  1.0000
  H   H19       1.0  0.9611595640033529  0.9548947821924685  0.570694165964774  1.0000
  H   H20       1.0  0.5388372894715019  0.54510522086251  0.0706911844723876  1.0000
  H   H21       1.0  0.7430482630494168  0.9806102062541626  0.3748526024701633  1.0000
  H   H22       1.0  0.7569527149986542  0.5193923077457541  0.8748518570970704  1.0000
  H   H23       1.0  0.2569524674894694  0.0193920277335451  0.6251473975298368  1.0000
  H   H24       1.0  0.24304652292223494  0.4806082522786639  0.1251473975298367  1.0000
  H   H25       1.0  0.5970340831266869  0.1012371148737827  0.256225728788543  1.0000
  H   H26       1.0  0.9029673296523131  0.39876483910171606  0.756225728788543  1.0000
  H   H27       1.0  0.40296641189167565  0.8987634451506352  0.7437735258383569  1.0000
  H   H28       1.0  0.09703556180074463  0.6012348839410606  0.2437772527038433  1.0000
  H   H29       1.0  0.011583529436769895  0.338607620347311  0.2466074343512616  1.0000
  H   H30       1.0  0.48841707135320434  0.1613951706098291  0.7466081797243618  1.0000
  H   H31       1.0  0.9884183404393383  0.6613937766587483  0.7533925656487384  1.0000
  H   H32       1.0  0.5115833059048995  0.8386045524329404  0.2533925656487384  1.0000
  H   H33       1.0  0.28472168849533125  0.1658512608879334  0.3891824002504478  1.0000
  H   H34       1.0  0.21528083768828318  0.3341473451609858  0.8891831456235408  1.0000
  H   H35       1.0  0.7152789242832966  0.8341501361181258  0.6108183451226523  1.0000
  H   H36       1.0  0.7847195395698208  0.6658523778817909  0.110816109003359  1.0000
  C   C1        1.0  0.5444697269445342  0.2784052045840824  0.468591468459536  1.0000
  C   C2        1.0  0.955529171639519  0.2215967493914164  0.968590723086443  1.0000
  C   C3        1.0  0.4555255041633971  0.7215936814770458  0.531409276913557  1.0000
  C   C4        1.0  0.044468573663365915  0.7784021366697118  0.0314070407942708  1.0000
  C   C5        1.0  0.4662194896209756  0.352995334825259  0.4079419503432433  1.0000
  C   C6        1.0  0.0337808756484677  0.1470057821685913  0.907938968850857  1.0000
  C   C7        1.0  0.533781005397387  0.6470052251991589  0.5920595404029498  1.0000
  C   C8        1.0  0.9662168696544173  0.8529931038925369  0.09205954040294981  1.0000
  C   C9        1.0  0.5626193574402265  0.4497638046962678  0.3749278851529141  1.0000
  C   C10       1.0  0.937371094742268  0.0502406602241621  0.8749226675412346  1.0000
  C   C11       1.0  0.437383769533362  0.5502375923097915  0.6250758417125724  1.0000
  C   C12       1.0  0.06262586450419153  0.9497615737635458  0.1250713694739929  1.0000
  C   C13       1.0  0.7322483659569131  0.4667403034022755  0.400470330423893  1.0000
  C   C14       1.0  0.767749511050184  0.033263324536513  0.9004710757969934  1.0000
  C   C15       1.0  0.2677566864103156  0.533256908695563  0.5995311603223001  1.0000
  C   C16       1.0  0.23224607333853703  0.9667380724695533  0.0995266880837207  1.0000
  C   C17       1.0  0.8001203832046075  0.38839128859329725  0.4616751514970829  1.0000
  C   C18       1.0  0.69987875089997  0.1116123393454913  0.9616766422432762  1.0000
  C   C19       1.0  0.199877008817495  0.6116050865228999  0.5383263392491102  1.0000
  C   C20       1.0  0.30012036926066094  0.8883873836972782  0.0383226123836309  1.0000
  C   C21       1.0  0.2841069421238772  0.3382485552215968  0.3782216888663612  1.0000
  C   C22       1.0  0.21588851251591734  0.1617533987539019  0.8782179620008819  1.0000
  C   C23       1.0  0.7158913919803214  0.6617545157477593  0.621779801879832  1.0000
  C   C24       1.0  0.7841089972664436  0.8382438133439366  0.121780547252925  1.0000
  C   C25       1.0  0.0481276358387319  0.1965458887558711  0.3425980724651723  1.0000
  C   C26       1.0  0.4518739865281916  0.3034552282379792  0.8426003085844656  1.0000
  C   C27       1.0  0.9518717198424158  0.8034555082501882  0.6574026729079208  1.0000
  C   C28       1.0  0.5481263907299124  0.6965444948047903  0.1574004367886346  1.0000
  C   C29       1.0  0.9697258977938006  0.0947781275191417  0.37833349483084083  1.0000
  C   C30       1.0  0.5302767720826793  0.405223826456357  0.878335730950127  1.0000
  C   C31       1.0  0.030273457887346908  0.9052232694869247  0.6216672505422594  1.0000
  C   C32       1.0  0.4697237229356902  0.5947767335680609  0.121664269049873  1.0000
  C   C33       1.0  0.8065195378564313  0.0591645585234062  0.3481466297955436  1.0000
  C   C34       1.0  0.6934817571623102  0.4408365584704512  0.8481473751686438  1.0000
  C   C35       1.0  0.19347981782472354  0.9408368384826603  0.6518526248313563  1.0000
  C   C36       1.0  0.3065185023355284  0.559162327590677  0.1518526248313563  1.0000
  C   C37       1.0  0.7246102871939968  0.1259038009342675  0.2824770238743  1.0000
  C   C38       1.0  0.7753925004427417  0.3740989900228797  0.7824777692474001  1.0000
  C   C39       1.0  0.2753954717348038  0.8740984330534404  0.7175222307525999  1.0000
  C   C40       1.0  0.22460936943335955  0.6259024069831867  0.2175229761257  1.0000
  C   C41       1.0  0.9576646520340903  0.2589956002359912  0.2765937940235972  1.0000
  C   C42       1.0  0.54233801784239  0.2410063537395075  0.7765952847697903  1.0000
  C   C43       1.0  0.042335960744537715  0.7410057967700752  0.7234062059764028  1.0000
  C   C44       1.0  0.4576624771759796  0.7589942062849105  0.2234062059764028  1.0000
  N   N1        1.0  0.7075001413475874  0.2968999879941592  0.4954890020199585  1.0000
  N   N2        1.0  0.7925027640494235  0.2031036399446293  0.995491238139252  1.0000
  N   N3        1.0  0.2924974861950389  0.7030980610853207  0.5045117433531345  1.0000
  N   N4        1.0  0.20749749544842194  0.7968952461164989  0.0045095072338484  1.0000
  N   N5        1.0  0.8002717853235382  0.2229668883443239  0.2480922175595026  1.0000
  N   N6        1.0  0.6997308845529417  0.2770350656311749  0.7480937083056958  1.0000
  N   N7        1.0  0.1997287096948241  0.777033671680094  0.7519077824404974  1.0000
  N   N8        1.0  0.3002720069001157  0.7229646574115945  0.2519085278135975  1.0000
  N   N9        1.0  0.21384782719550804  0.23011973348268813  0.3714231408531532  1.0000
  N   N10       1.0  0.2861546989881064  0.2698788725662311  0.8714238862262533  1.0000
  N   N11       1.0  0.7861526678228616  0.7698808265417298  0.6285776045199399  1.0000
  N   N12       1.0  0.713845560509739  0.7301200134948971  0.1285753684006536  1.0000
  Cl  Cl1       1.0  0.6279396490850999  0.0130133906168197  0.6110516469018563  1.0000
  Cl  Cl2       1.0  0.8720602710759028  0.4869868893953893  0.1110538830211496  1.0000
  Cl  Cl3       1.0  0.3720604926524801  0.98698465846266  0.3889476077250436  1.0000
  Cl  Cl4       1.0  0.1279413632796818  0.5130128336473874  0.8889468623519505  1.0000
  Cl  Cl5       1.0  0.12787459770278536  0.2384535597221884  0.6240673519129987  1.0000
  Cl  Cl6       1.0  0.37212415718839514  0.2615450463267308  0.1240658611668053  1.0000
  Cl  Cl7       1.0  0.8721250729937469  0.7615411414307189  0.3759319027139014  1.0000
  Cl  Cl8       1.0  0.6278738236350137  0.738455513697687  0.8759319027139016  1.0000
  O   O1        1.0  0.2058173845180349  0.4206184298532705  0.3606748608015735  1.0000
  O   O2        1.0  0.2941788561781848  0.0793801761956487  0.8606659163244146  1.0000
  O   O3        1.0  0.794184367597808  0.5793821301711475  0.6393266299446196  1.0000
  O   O4        1.0  0.7058164926900048  0.9206195468471279  0.1393340836755854  1.0000
