data_image0
_chemical_formula_structural       Zn4H32C52N4O16F4
_chemical_formula_sum              "Zn4 H32 C52 N4 O16 F4"
_cell_length_a       8.401444923881773
_cell_length_b       10.96087048847209
_cell_length_c       35.151229261010336
_cell_angle_alpha    90.08212430107008
_cell_angle_beta     89.88985561226178
_cell_angle_gamma    89.89351262900892

_space_group_name_H-M_alt    "P 1"
_space_group_IT_number       1

loop_
  _space_group_symop_operation_xyz
  'x, y, z'

loop_
  _atom_site_type_symbol
  _atom_site_label
  _atom_site_symmetry_multiplicity
  _atom_site_fract_x
  _atom_site_fract_y
  _atom_site_fract_z
  _atom_site_occupancy
  Zn  Zn1       1.0  0.6648765944827062  0.0015690846832825001  0.4999142389553057  1.0000
  Zn  Zn2       1.0  0.3494352020054308  0.002275167237769399  0.5000504187888949  1.0000
  Zn  Zn3       1.0  0.24434710053392192  0.9965196739943921  0.9999725878219367  1.0000
  Zn  Zn4       1.0  0.5596572043969984  0.9961940469454832  0.9998235398946492  1.0000
  H   H1        1.0  0.7133485814510934  0.9919502031633559  0.8756099165568046  1.0000
  H   H2        1.0  0.6882226622394683  0.9906507274818926  0.8056587305010865  1.0000
  H   H3        1.0  0.17579446149685646  0.006088805179921099  0.81693710393251  1.0000
  H   H4        1.0  0.20476165451388786  0.006795655835475101  0.88698622311788  1.0000
  H   H5        1.0  0.7332200080771542  0.004064240178799102  0.6830771298369669  1.0000
  H   H6        1.0  0.2206638941712598  0.9919904750395575  0.6941218945653631  1.0000
  H   H7        1.0  0.1959476349779479  0.9949093935449298  0.6241808988598265  1.0000
  H   H8        1.0  0.7046682573211668  0.00677716590193  0.6129943104822573  1.0000
  H   H9        1.0  0.712662250947254  0.9960737494517178  0.12371444829589251  1.0000
  H   H10       1.0  0.6889720719227127  0.9954647594571711  0.19374402922169756  1.0000
  H   H11       1.0  0.17595499770956016  0.9931662902443538  0.1833923644027919  1.0000
  H   H12       1.0  0.20365882592702178  0.9939185867736033  0.1133091380524931  1.0000
  H   H13       1.0  0.7334191840260685  0.9907076146782289  0.3167979081470733  1.0000
  H   H14       1.0  0.22076881989731587  0.9988644773953369  0.30597661291370304  1.0000
  H   H15       1.0  0.1956699917472307  0.0007742028638020001  0.3759053554031482  1.0000
  H   H16       1.0  0.7044516089438773  0.9929616169888931  0.38688891644829937  1.0000
  H   H17       1.0  0.21167687104409788  0.6196022541348114  0.4753683518280241  1.0000
  H   H18       1.0  0.20651304565654977  0.6160800691353074  0.5261603598914134  1.0000
  H   H19       1.0  0.21026640410968153  0.38574900155556696  0.5248451350155392  1.0000
  H   H20       1.0  0.20730666361373548  0.3892620662483283  0.47404373039523756  1.0000
  H   H21       1.0  0.6982339963878985  0.6124776146972408  0.0246107990781539  1.0000
  H   H22       1.0  0.7037097018472876  0.608132104870059  0.9738080886272725  1.0000
  H   H23       1.0  0.6986467907683646  0.3777446036055351  0.9753176969941107  1.0000
  H   H24       1.0  0.7015742703699459  0.3822475998432182  0.026112912852774197  1.0000
  H   H25       1.0  0.8696384924166195  0.2879430945821753  0.5024343868627099  1.0000
  H   H26       1.0  0.9600364619824545  0.4233663167235378  0.5146711552638337  1.0000
  H   H27       1.0  0.8698809417762731  0.7143280801571593  0.49827855870283594  1.0000
  H   H28       1.0  0.9604932751215998  0.5784871033144513  0.4862705898620376  1.0000
  H   H29       1.0  0.0390427886716651  0.2839025192095336  0.9974843967335617  1.0000
  H   H30       1.0  0.9491681191681565  0.41965486414594716  0.9851951244262622  1.0000
  H   H31       1.0  0.040277108770141005  0.7103292914108225  0.0014212272886027  1.0000
  H   H32       1.0  0.9490982755911047  0.5751236710765681  0.013472582707400699  1.0000
  C   C1        1.0  0.5741901293154043  0.7686789852817886  0.5007493394757674  1.0000
  C   C2        1.0  0.4413324147066077  0.0022445723135220003  0.5718006895871355  1.0000
  C   C3        1.0  0.5735116828824047  0.23489609477010026  0.4995286256723759  1.0000
  C   C4        1.0  0.4409012566387034  0.9992716673990362  0.428229593771654  1.0000
  C   C5        1.0  0.33595843443465867  0.7632706984794738  0.9990688307037985  1.0000
  C   C6        1.0  0.46827694205707354  0.9980444584651805  0.9280891733609593  1.0000
  C   C7        1.0  0.3349154134844241  0.22947468956467532  0.00048752547061779993  1.0000
  C   C8        1.0  0.46687807362648925  0.9954082756662435  0.0717042315038228  1.0000
  C   C9        1.0  0.4604325651638914  0.9990922083949061  0.8857823542424582  1.0000
  C   C10       1.0  0.5959519303554686  0.9950538849641647  0.8624825387068782  1.0000
  C   C11       1.0  0.5814305140600523  0.9944591503984628  0.8230527862221778  1.0000
  C   C12       1.0  0.4294216381758034  0.998124818944227  0.8057537501487602  1.0000
  C   C13       1.0  0.293820396341239  0.0028833595057236013  0.8295622369961251  1.0000
  C   C14       1.0  0.30952606699346313  0.0032756134971663013  0.8687525003852983  1.0000
  C   C15       1.0  0.4025389868076629  0.9973031952158852  0.7648827349173642  1.0000
  C   C16       1.0  0.5061048060019147  0.9971400553388037  0.7350049980341637  1.0000
  C   C17       1.0  0.61527949657507  0.0021947367494093008  0.670388139050587  1.0000
  C   C18       1.0  0.4794761503419379  0.9981291692400024  0.6941271946465548  1.0000
  C   C19       1.0  0.3275622441112418  0.9955503375095988  0.6767742730283643  1.0000
  C   C20       1.0  0.31330744518994175  0.9971878685971022  0.6373430257019734  1.0000
  C   C21       1.0  0.44897314264200355  0.0013137387691344  0.6141041143358237  1.0000
  C   C22       1.0  0.5998002007610381  0.0038076399624458004  0.6312007165601798  1.0000
  C   C23       1.0  0.4594852098281734  0.9948334707010033  0.11402516932268722  1.0000
  C   C24       1.0  0.5954586737005485  0.9953023350851  0.1370881715692036  1.0000
  C   C25       1.0  0.5817072169676081  0.9949272542753678  0.1765637574745895  1.0000
  C   C26       1.0  0.42990918019655305  0.9940278581136897  0.194160322290152  1.0000
  C   C27       1.0  0.2938519487607891  0.9936190975863043  0.1705698880575142  1.0000
  C   C28       1.0  0.30879981153861275  0.994038860326015  0.1313480448548958  1.0000
  C   C29       1.0  0.4034114532959236  0.9937628087069189  0.23508189989409797  1.0000
  C   C30       1.0  0.5068660529377026  0.9942937061484257  0.2648931390442399  1.0000
  C   C31       1.0  0.6153245867180032  0.992884515183036  0.32952160603294084  1.0000
  C   C32       1.0  0.4796832498665963  0.9946951226186088  0.3058030476621596  1.0000
  C   C33       1.0  0.32764986560370346  0.9973420206921805  0.3232536663662344  1.0000
  C   C34       1.0  0.31314468123953526  0.9984371245803629  0.3627031682025859  1.0000
  C   C35       1.0  0.4486696938762691  0.9970443525110539  0.38590388267757436  1.0000
  C   C36       1.0  0.599647787954602  0.9940955503017155  0.3687258522286641  1.0000
  C   C37       1.0  0.5814462918933431  0.634568382903929  0.5011929961452708  1.0000
  C   C38       1.0  0.5810375159088678  0.3689453527286162  0.4994170743744206  1.0000
  C   C39       1.0  0.44086009765043593  0.5649402384806593  0.5009479616179107  1.0000
  C   C40       1.0  0.725726110697252  0.43553336149473415  0.5003315735635567  1.0000
  C   C41       1.0  0.44066039975727017  0.4392327894815865  0.4996416779000655  1.0000
  C   C42       1.0  0.7259165416972094  0.5672867529505013  0.5004892512307108  1.0000
  C   C43       1.0  0.2611951474300085  0.574845630611236  0.5007747039160861  1.0000
  C   C44       1.0  0.2610035720273132  0.4302477090351928  0.4995210894706332  1.0000
  C   C45       1.0  0.3285833763054882  0.6291674373855899  0.9986697069662966  1.0000
  C   C46       1.0  0.32785828019500224  0.36355733550148983  0.0006136527873934  1.0000
  C   C47       1.0  0.4689025106738852  0.5587646750882628  0.9990163950749534  1.0000
  C   C48       1.0  0.1834467307293863  0.43087094282399363  0.9996091812396557  1.0000
  C   C49       1.0  0.4685092944580234  0.433071031767696  0.0004325411595615999  1.0000
  C   C50       1.0  0.1838101287232945  0.562598436819144  0.9993600085634782  1.0000
  C   C51       1.0  0.6486150783724652  0.5676636047724559  0.9992149413007352  1.0000
  C   C52       1.0  0.6480851841593136  0.42301963376556284  0.0005916339779829999  1.0000
  N   N1        1.0  0.8731704556248089  0.38043448214747144  0.4997457178873077  1.0000
  N   N2        1.0  0.8733994540785089  0.6218579314838308  0.5011461518458589  1.0000
  N   N3        1.0  0.03584973926524529  0.37646386802231285  0.00014155764695540003  1.0000
  N   N4        1.0  0.03646237890936278  0.6178289057530222  0.9986024642141588  1.0000
  O   O1        1.0  0.7084546398326735  0.8291239685423903  0.5004856427475133  1.0000
  O   O2        1.0  0.4385399599284767  0.8204675991432993  0.5004472853160634  1.0000
  O   O3        1.0  0.3047562555396368  0.0023697077252791006  0.5549690604227848  1.0000
  O   O4        1.0  0.5741379817562162  0.0027966731362312003  0.5544287524215292  1.0000
  O   O5        1.0  0.4377377956700456  0.1835654054525691  0.49975932806336226  1.0000
  O   O6        1.0  0.7077457103120324  0.17407848689906305  0.49947974042635934  1.0000
  O   O7        1.0  0.5736325919872199  0.0005116512535750001  0.4455182997283059  1.0000
  O   O8        1.0  0.3043120493108518  0.9999558005435106  0.4451893451213564  1.0000
  O   O9        1.0  0.20173119611825285  0.8240917066288989  0.9992098868536631  1.0000
  O   O10       1.0  0.4716536756115984  0.8146762778437234  0.9994691179129018  1.0000
  O   O11       1.0  0.6048939020732647  0.9976446054159711  0.9449109065045178  1.0000
  O   O12       1.0  0.3355201235362344  0.997445985773517  0.9454881367772288  1.0000
  O   O13       1.0  0.4705821263063186  0.17760161840342906  0.00021635828223760004  1.0000
  O   O14       1.0  0.20058270750504184  0.16917018620168284  0.0004894755089353  1.0000
  O   O15       1.0  0.33401210798201214  0.9957200830235138  0.054475360712920896  1.0000
  O   O16       1.0  0.6034474793961307  0.9954712803438428  0.0547331971161071  1.0000
  F   F1        1.0  0.24449193147712114  0.997579749082867  0.7551263452603862  1.0000
  F   F2        1.0  0.6641821436266326  0.9974347023784774  0.7447754571171004  1.0000
  F   F3        1.0  0.24538641686921636  0.9928355059043881  0.24500541348317742  1.0000
  F   F4        1.0  0.664967508831829  0.9947934756220604  0.2550266143987798  1.0000
