data_image0
_chemical_formula_structural       Fe2H32C32S4N20
_chemical_formula_sum              "Fe2 H32 C32 S4 N20"
_cell_length_a       9.135708153374456
_cell_length_b       9.027510479940945
_cell_length_c       13.534583950147391
_cell_angle_alpha    89.99888705472446
_cell_angle_beta     90.0020244888488
_cell_angle_gamma    120.39682602415552

_space_group_name_H-M_alt    "P 1"
_space_group_IT_number       1

loop_
  _space_group_symop_operation_xyz
  'x, y, z'

loop_
  _atom_site_type_symbol
  _atom_site_label
  _atom_site_symmetry_multiplicity
  _atom_site_fract_x
  _atom_site_fract_y
  _atom_site_fract_z
  _atom_site_occupancy
  Fe  Fe1       1.0  0.9997079277845415  2.1621741340033837e-06  1.7288925799993786e-08  1.0000
  Fe  Fe2       1.0  0.5003754983780552  0.9999971507921687  0.4999978806096124  1.0000
  H   H1        1.0  0.7222210259077643  0.054861333230668795  0.1342206747676542  1.0000
  H   H2        1.0  0.7777678504136885  0.945127060740198  0.6342221195350604  1.0000
  H   H3        1.0  0.8326388495576325  0.05487243461249852  0.3657791555421994  1.0000
  H   H4        1.0  0.6673601560950073  0.945123690272574  0.8657831572498794  1.0000
  H   H5        1.0  0.277782273299259  0.9451812700636071  0.8657748491306663  1.0000
  H   H6        1.0  0.22223110789830264  0.05482580740360993  0.3657741437360684  1.0000
  H   H7        1.0  0.16740755677279426  0.9451843167245148  0.6342267126474681  1.0000
  H   H8        1.0  0.3325984042101453  0.054827952236834746  0.1342212328784811  1.0000
  H   H9        1.0  0.6830712812302623  0.5936473787589736  0.0310595353268468  1.0000
  H   H10       1.0  0.8168935647695575  0.40632243878373253  0.53104813903672  1.0000
  H   H11       1.0  0.4105813146359693  0.593660985261174  0.4689434294031614  1.0000
  H   H12       1.0  0.0894366618084205  0.4063285159771866  0.9689510272764251  1.0000
  H   H13       1.0  0.31697840917454556  0.4064037655010111  0.9689160401705693  1.0000
  H   H14       1.0  0.18304056953387962  0.5936071319168833  0.4689222639370669  1.0000
  H   H15       1.0  0.5894204815692916  0.40640558259893583  0.531086081330514  1.0000
  H   H16       1.0  0.9105588113160078  0.5936144682772025  0.031074051088090495  1.0000
  H   H17       1.0  0.402533654615773  0.513246862721509  0.14816265641336201  1.0000
  H   H18       1.0  0.09742845680455033  0.4867370067810981  0.6481546345530661  1.0000
  H   H19       1.0  0.6107109207539594  0.5132609021329844  0.3518411275234854  1.0000
  H   H20       1.0  0.8893075091015132  0.4867415503617424  0.8518429735048443  1.0000
  H   H21       1.0  0.5975422404678101  0.4867886521265422  0.8518225245184681  1.0000
  H   H22       1.0  0.9024612427273483  0.5132089277197027  0.35182463396517955  1.0000
  H   H23       1.0  0.3892403960074516  0.48679682681492403  0.6481780387974537  1.0000
  H   H24       1.0  0.11073453123513119  0.5132165220939698  0.14817323913849384  1.0000
  H   H25       1.0  0.35286900075007555  0.7057060303312427  0.2712026640771796  1.0000
  H   H26       1.0  0.14711672729966813  0.2942910888569302  0.7712027235333991  1.0000
  H   H27       1.0  0.8528325562477121  0.7057149042262197  0.2287979718961921  1.0000
  H   H28       1.0  0.6471766264341027  0.29429770085781115  0.7287958159639416  1.0000
  H   H29       1.0  0.46643704772301897  0.9328702614575094  0.2510999744383327  1.0000
  H   H30       1.0  0.03355976499631909  0.06713021265654362  0.7511010004909551  1.0000
  H   H31       1.0  0.966427233484083  0.9328730273242558  0.2489004342509276  1.0000
  H   H32       1.0  0.5335742998013869  0.06712821924387674  0.7488992440785296  1.0000
  C   C1        1.0  0.6767569629021748  0.9197585241671505  0.1204431949657945  1.0000
  C   C2        1.0  0.8232286762224702  0.08022353882105895  0.6204383531691846  1.0000
  C   C3        1.0  0.743006916739219  0.9197733811217293  0.37955870459591523  1.0000
  C   C4        1.0  0.75699499995423  0.08022492395701875  0.8795633766907258  1.0000
  C   C5        1.0  0.3232682029728551  0.08029083210346502  0.8795442018203374  1.0000
  C   C6        1.0  0.17674069103446738  0.9197147910080902  0.3795423940373012  1.0000
  C   C7        1.0  0.25702522164436903  0.08029574279382251  0.6204545518251338  1.0000
  C   C8        1.0  0.24297517081357947  0.9197193109371115  0.12045209634238319  1.0000
  C   C9        1.0  0.6504296226533696  0.677818266644735  0.0696013519579495  1.0000
  C   C10       1.0  0.8495310493002038  0.32214650841787323  0.5695932874558736  1.0000
  C   C11       1.0  0.527391811148391  0.6778411499190968  0.4304015284649836  1.0000
  C   C12       1.0  0.9726204023541527  0.3221558337427554  0.9304045060966714  1.0000
  C   C13       1.0  0.3496404053560552  0.32225465148703597  0.930372007096551  1.0000
  C   C14       1.0  0.15036714914375426  0.6777481141394831  0.4303675102930455  1.0000
  C   C15       1.0  0.4726107134958538  0.32226055065931564  0.5696346316835275  1.0000
  C   C16       1.0  0.027373590679374497  0.6777640000857232  0.0696250054868486  1.0000
  C   C17       1.0  0.5087347269955412  0.6355378995517498  0.1248354815435988  1.0000
  C   C18       1.0  0.9912302226158827  0.36444090505112575  0.6248257969047515  1.0000
  C   C19       1.0  0.626797865353147  0.6355532935066323  0.3751689188296865  1.0000
  C   C20       1.0  0.8732079144981026  0.3644453236454839  0.8751749096592006  1.0000
  C   C21       1.0  0.4913503214811141  0.36451066365457757  0.8751533936527381  1.0000
  C   C22       1.0  0.00866210958464824  0.635491120737811  0.3751556882779283  1.0000
  C   C23       1.0  0.37315615997731294  0.364517357883969  0.6248472920484218  1.0000
  C   C24       1.0  0.12681915474027494  0.6354989323894458  0.1248398251996079  1.0000
  C   C25       1.0  0.40361956910445645  0.8072161014284943  0.2150959753892181  1.0000
  C   C26       1.0  0.09637006226839867  0.19278547444277908  0.7150953976940642  1.0000
  C   C27       1.0  0.9035900541602402  0.8072161496388051  0.2849045590438948  1.0000
  C   C28       1.0  0.5964128427098954  0.19278322711314644  0.7849047210676048  1.0000
  C   C29       1.0  0.11168045814847008  0.2234429582205523  0.1880448257707386  1.0000
  C   C30       1.0  0.38832617149384413  0.7765555735500771  0.6880370157728564  1.0000
  C   C31       1.0  0.6117691069021588  0.2234421477316602  0.3119614648948428  1.0000
  C   C32       1.0  0.8882446014354883  0.7765564539621865  0.8119595636541419  1.0000
  S   S1        1.0  0.15975202226815804  0.3194670062199734  0.29495829757569675  1.0000
  S   S2        1.0  0.34024076287646193  0.6805397485507784  0.7949550151224969  1.0000
  S   S3        1.0  0.6597045835482049  0.3194635500776358  0.2050442025818171  1.0000
  S   S4        1.0  0.8402958117300013  0.6805389493611004  0.7050409213252493  1.0000
  N   N1        1.0  0.5268462499800817  0.78963964167032  0.1562468283035585  1.0000
  N   N2        1.0  0.9731409436849104  0.21035604310564804  0.6562482989993725  1.0000
  N   N3        1.0  0.7627934520813823  0.7896488301780878  0.34375224603972043  1.0000
  N   N4        1.0  0.7372127784463983  0.21035450860744487  0.843753300636756  1.0000
  N   N5        1.0  0.4732071515809579  0.21038976233173667  0.8437479574248671  1.0000
  N   N6        1.0  0.026799586885431277  0.7896118248058316  0.3437464857875554  1.0000
  N   N7        1.0  0.2371821880777603  0.21039519579394297  0.656252882545644  1.0000
  N   N8        1.0  0.26280428565186026  0.7896089652793706  0.1562533066523883  1.0000
  N   N9        1.0  0.7545014097199709  0.8543239871404398  0.0684163388244343  1.0000
  N   N10       1.0  0.7454681538895898  0.1456383491188547  0.568408076392906  1.0000
  N   N11       1.0  0.5998328638142352  0.8543526562742088  0.4315907981180587  1.0000
  N   N12       1.0  0.9001808398469106  0.14564958656957566  0.9315884161368331  1.0000
  N   N13       1.0  0.2455726562414213  0.14578740034210824  0.9315370711354163  1.0000
  N   N14       1.0  0.25443889487222265  0.8542180560053865  0.4315320339628101  1.0000
  N   N15       1.0  0.40021302005705195  0.14579657072526692  0.5684690053740766  1.0000
  N   N16       1.0  0.09978524262038482  0.8542382915215968  0.0684603053688235  1.0000
  N   N17       1.0  0.07553095758367326  0.15126582878476566  0.1105862555592552  1.0000
  N   N18       1.0  0.4245022064727804  0.8487331109989074  0.6105820693341073  1.0000
  N   N19       1.0  0.5757609336852879  0.1512630914423597  0.38941567448323877  1.0000
  N   N20       1.0  0.9242620743433317  0.8487342755437197  0.889413699209797  1.0000
