data_image0
_chemical_formula_structural       Zn2H46C64N10O8
_chemical_formula_sum              "Zn2 H46 C64 N10 O8"
_cell_length_a       9.943103795365692
_cell_length_b       11.955474013667686
_cell_length_c       12.093548696482074
_cell_angle_alpha    98.36952616827585
_cell_angle_beta     100.12923942801953
_cell_angle_gamma    91.91809914492737

_space_group_name_H-M_alt    "P 1"
_space_group_IT_number       1

loop_
  _space_group_symop_operation_xyz
  'x, y, z'

loop_
  _atom_site_type_symbol
  _atom_site_label
  _atom_site_symmetry_multiplicity
  _atom_site_fract_x
  _atom_site_fract_y
  _atom_site_fract_z
  _atom_site_occupancy
  Zn  Zn1       1.0  0.8265515836769527  0.41299698851600664  0.17549684792276576  1.0000
  Zn  Zn2       1.0  0.1734468574072707  0.5870031026689447  0.8245038160694166  1.0000
  H   H1        1.0  0.8286423315156882  0.05125126974400019  0.1227640255825193  1.0000
  H   H2        1.0  0.17135942635028564  0.9487530704553818  0.8772360386892473  1.0000
  H   H3        1.0  0.8659309120137382  0.847290397292703  0.059267239099170886  1.0000
  H   H4        1.0  0.13406990928783102  0.15271479114595368  0.9407352981696988  1.0000
  H   H5        1.0  0.5253631738740125  0.3254130172519965  0.3688602678382651  1.0000
  H   H6        1.0  0.4746404547961094  0.6745887923227799  0.631138866725621  1.0000
  H   H7        1.0  0.3751125685178566  0.3206550781482207  0.516097273404327  1.0000
  H   H8        1.0  0.6248838516048637  0.6793458394566017  0.4839007508713635  1.0000
  H   H9        1.0  0.022847122508188995  0.4450233179659051  0.4166870799817204  1.0000
  H   H10       1.0  0.9771542864953704  0.5549751011250805  0.5833145794439362  1.0000
  H   H11       1.0  0.20067081368225811  0.6344661689467942  0.49042779661885305  1.0000
  H   H12       1.0  0.7993275731101407  0.36553307526615714  0.5095727400892827  1.0000
  H   H13       1.0  0.024177935799883695  0.625350901361962  0.14119465905601195  1.0000
  H   H14       1.0  0.9758210721994658  0.3746424153449369  0.8588034696648137  1.0000
  H   H15       1.0  0.0865076571047396  0.8030947444397116  0.1621405412374699  1.0000
  H   H16       1.0  0.9134886856146381  0.1969044869166865  0.8378597146123424  1.0000
  H   H17       1.0  0.24671906602419116  0.9519671120743995  0.1341668076191311  1.0000
  H   H18       1.0  0.7532763193439181  0.0480329623908915  0.8658342637996341  1.0000
  H   H19       1.0  0.5242529498869359  0.8952028083586325  0.43508279024190694  1.0000
  H   H20       1.0  0.4757423165041176  0.10479556959748491  0.5649171978946868  1.0000
  H   H21       1.0  0.3666425465109882  0.7416005415459707  0.45908546955700297  1.0000
  H   H22       1.0  0.6333536564444701  0.25839698817087964  0.5409120455824947  1.0000
  H   H23       1.0  0.2932840579950949  0.1385066536124384  0.30432873274026667  1.0000
  H   H24       1.0  0.7067197312258103  0.8614968627322528  0.6956747999620703  1.0000
  H   H25       1.0  0.22405316392541155  0.3107060457980141  0.2201391547332179  1.0000
  H   H26       1.0  0.7759538542804807  0.6893000307475036  0.7798651811087468  1.0000
  H   H27       1.0  0.5315148441871501  0.263318606903681  0.010360324577810304  1.0000
  H   H28       1.0  0.4684874031906148  0.736677272569224  0.9896394359967217  1.0000
  H   H29       1.0  0.5988364483321719  0.08997727687523847  0.09171382880168011  1.0000
  H   H30       1.0  0.40115964603965193  0.9100185588976191  0.9082834317697249  1.0000
  H   H31       1.0  0.2852838861277363  0.3497537256105474  0.8897608398770487  1.0000
  H   H32       1.0  0.7147219055924696  0.6502497933299622  0.11023965882732513  1.0000
  H   H33       1.0  0.28691531725648645  0.6705273391788112  0.08918068845139258  1.0000
  H   H34       1.0  0.713094573003204  0.3294762080399991  0.9108212006837135  1.0000
  H   H35       1.0  0.3798195859492425  0.5152256231011522  0.2316078751731965  1.0000
  H   H36       1.0  0.6201881851587461  0.4847770591587306  0.7683919483913896  1.0000
  H   H37       1.0  0.6220313747327638  0.8127833667302442  0.25210434330085  1.0000
  H   H38       1.0  0.3779687927423582  0.18721082389841828  0.74790068284576  1.0000
  H   H39       1.0  0.8666722418538343  0.7901984993119984  0.3120934973609693  1.0000
  H   H40       1.0  0.13332711268326855  0.20979990435724016  0.6879070524922853  1.0000
  H   H41       1.0  0.029867951537923394  0.9604765701723892  0.38302322093230146  1.0000
  H   H42       1.0  0.970129392431105  0.03952266248190742  0.6169755179185261  1.0000
  H   H43       1.0  0.9398251290229285  0.1535232156706314  0.3923771836623046  1.0000
  H   H44       1.0  0.060172160654282415  0.8464751700116724  0.6076214279044762  1.0000
  H   H45       1.0  0.6937275742158847  0.17697826173735356  0.3327704530169627  1.0000
  H   H46       1.0  0.3062696172711341  0.8230184325661514  0.6672287326957971  1.0000
  C   C1        1.0  0.9500158832303642  0.2361839498400826  0.06582068423522712  1.0000
  C   C2        1.0  0.04998171947964639  0.7638186809629417  0.9341818786080793  1.0000
  C   C3        1.0  0.9784143722026644  0.11403799779333211  0.03476407572361502  1.0000
  C   C4        1.0  0.021587437630458308  0.885966355231979  0.9652401321185096  1.0000
  C   C5        1.0  0.9029165734175779  0.027882296743200606  0.06850954908109236  1.0000
  C   C6        1.0  0.09708736828534373  0.9721237579522894  0.9314935367593122  1.0000
  C   C7        1.0  0.9240209492610918  0.91481279553944  0.03354398570842673  1.0000
  C   C8        1.0  0.07598288385819531  0.08519156521206381  0.966458845563878  1.0000
  C   C9        1.0  0.6733180513422498  0.5044914808838571  0.3309050463425933  1.0000
  C   C10       1.0  0.32668038167320657  0.4955094418819642  0.6690907726492057  1.0000
  C   C11       1.0  0.5840116012399507  0.5024379456201941  0.4186646311856919  1.0000
  C   C12       1.0  0.4159848627811513  0.497563816391434  0.5813326916599735  1.0000
  C   C13       1.0  0.513689855582534  0.4013041701109188  0.4272341111308862  1.0000
  C   C14       1.0  0.4863085982197789  0.5986967577852768  0.572763365289056  1.0000
  C   C15       1.0  0.4301627957240298  0.3986277325554113  0.5079428248075786  1.0000
  C   C16       1.0  0.569835800166871  0.601375731126396  0.49205337603636673  1.0000
  C   C17       1.0  0.04970130904582961  0.5110742087500314  0.3705218069091814  1.0000
  C   C18       1.0  0.9502987521703263  0.4889191220807093  0.6294789483830244  1.0000
  C   C19       1.0  0.13791893551913154  0.6048061843940077  0.4079880123712769  1.0000
  C   C20       1.0  0.862080462916353  0.3951930636820364  0.5920118360519524  1.0000
  C   C21       1.0  0.04515399031060241  0.6021027559246194  0.226062544502561  1.0000
  C   C22       1.0  0.9548461148039351  0.39789141931292704  0.7739375093596265  1.0000
  C   C23       1.0  0.2178700981589827  0.75929392113391  0.31016216204428554  1.0000
  C   C24       1.0  0.7821251139402464  0.24070360985021483  0.6898376988082617  1.0000
  C   C25       1.0  0.1827850037619712  0.8222171172415501  0.22173376195081565  1.0000
  C   C26       1.0  0.8172082728478642  0.17778209483000043  0.7782660726115012  1.0000
  C   C27       1.0  0.27374479922104916  0.9065714404788141  0.2059279041819052  1.0000
  C   C28       1.0  0.7262495745039814  0.0934286301233911  0.7940738555217663  1.0000
  C   C29       1.0  0.4004896073632481  0.9316040428724436  0.2799098749274407  1.0000
  C   C30       1.0  0.5995047351814904  0.0683960200342  0.7200893986340162  1.0000
  C   C31       1.0  0.4288187723502048  0.8745870028978473  0.3744869871174642  1.0000
  C   C32       1.0  0.5711755262961448  0.12541221560198326  0.6255129878740107  1.0000
  C   C33       1.0  0.33935075536999904  0.7882931791699692  0.3885615103793398  1.0000
  C   C34       1.0  0.6606465989924645  0.21170605604951484  0.6114380571855591  1.0000
  C   C35       1.0  0.45245822331715163  0.10398985765399969  0.2051912139005196  1.0000
  C   C36       1.0  0.5475421971548542  0.8960093968503245  0.7948087749518676  1.0000
  C   C37       1.0  0.3452177217374981  0.16571820121532  0.2397019825738198  1.0000
  C   C38       1.0  0.6547850246600292  0.8342853035707166  0.7602997522712087  1.0000
  C   C39       1.0  0.3063934754031551  0.26190188786348045  0.1931389454434509  1.0000
  C   C40       1.0  0.6936142286949264  0.7380991107131579  0.8068639384093288  1.0000
  C   C41       1.0  0.3754257094306084  0.297546564660621  0.1120959371046624  1.0000
  C   C42       1.0  0.6245800487846509  0.7024561124382632  0.8879060917438081  1.0000
  C   C43       1.0  0.4786971309340942  0.2347400196309337  0.07380050047611059  1.0000
  C   C44       1.0  0.5213074215823427  0.7652601049933168  0.9261993486629192  1.0000
  C   C45       1.0  0.5163044769436526  0.13777419052335202  0.11958559901383845  1.0000
  C   C46       1.0  0.4836937030749199  0.8622216683668072  0.8804152572721761  1.0000
  C   C47       1.0  0.2976495578381275  0.4162187428810782  0.9626027650648297  1.0000
  C   C48       1.0  0.7023603220281347  0.5837848017725449  0.03739829535620491  1.0000
  C   C49       1.0  0.30066042193035264  0.5808497468216771  0.06910822936013969  1.0000
  C   C50       1.0  0.6993483169223397  0.41915209489448557  0.9308916073495581  1.0000
  C   C51       1.0  0.3446932957250724  0.5053134660297119  0.1406021844641643  1.0000
  C   C52       1.0  0.6553156163964928  0.49469091916762425  0.8593988628117516  1.0000
  C   C53       1.0  0.6398387437670509  0.9966776911791585  0.28924474334021255  1.0000
  C   C54       1.0  0.36015848122491434  0.0033198449659649996  0.7107529122284504  1.0000
  C   C55       1.0  0.6909919277912949  0.8880736774290839  0.2819898085370554  1.0000
  C   C56       1.0  0.3090052740891522  0.11192301943960808  0.7180102058897759  1.0000
  C   C57       1.0  0.830304394863653  0.8755639202600137  0.3166298607827684  1.0000
  C   C58       1.0  0.1696929387119468  0.12443530982909584  0.6833680493539872  1.0000
  C   C59       1.0  0.9210133170387139  0.9705307989351724  0.35659970458262075  1.0000
  C   C60       1.0  0.07898397263849691  0.029467586747131205  0.6433989069841601  1.0000
  C   C61       1.0  0.8704389946978851  0.07846181918608862  0.3620583426779261  1.0000
  C   C62       1.0  0.12955823029408006  0.9215357169590346  0.6379393128907367  1.0000
  C   C63       1.0  0.7311227565178344  0.09206798149374153  0.329267334789229  1.0000
  C   C64       1.0  0.26887129378096125  0.9079278414225554  0.6707296449238456  1.0000
  N   N1        1.0  0.992648974064487  0.5107925344502605  0.2578117113277685  1.0000
  N   N2        1.0  0.007354142867775694  0.48920081310012625  0.7421886365378539  1.0000
  N   N3        1.0  0.13410497381985922  0.6623254689824664  0.315737030980543  1.0000
  N   N4        1.0  0.8658921633753425  0.3376703783490385  0.6842620274481703  1.0000
  N   N5        1.0  0.497249015954445  0.010189628847058404  0.25791977362150226  1.0000
  N   N6        1.0  0.5027482298243839  0.9898079124284392  0.7420795393753038  1.0000
  N   N7        1.0  0.3421595886073661  0.4014181162557905  0.07193115037193822  1.0000
  N   N8        1.0  0.657850291258896  0.5985854283978328  0.9280699100490893  1.0000
  N   N9        1.0  0.2712855671335035  0.5242307417685907  0.9587568882029059  1.0000
  N   N10       1.0  0.7287222374794455  0.4757727823329177  0.041241405217583335  1.0000
  O   O1        1.0  0.005432776956524795  0.3119122862988988  0.024080383670828084  1.0000
  O   O2        1.0  0.9945640439957588  0.6880945652402557  0.9759201890213305  1.0000
  O   O3        1.0  0.8635208342848629  0.2538582461968204  0.1345464070844713  1.0000
  O   O4        1.0  0.13647459498163528  0.7461426726752765  0.8654539629042689  1.0000
  O   O5        1.0  0.7163276797083429  0.4061263158855652  0.2960215177352694  1.0000
  O   O6        1.0  0.28366776227624513  0.59387543969779  0.7039756646812307  1.0000
  O   O7        1.0  0.7000247799695958  0.5952711624387562  0.2970627416942976  1.0000
  O   O8        1.0  0.2999786107464076  0.40472725411766675  0.7029342263052527  1.0000
