data_image0
_chemical_formula_structural       Co2H40C24O16
_chemical_formula_sum              "Co2 H40 C24 O16"
_cell_length_a       7.236775444324198
_cell_length_b       10.595037447818353
_cell_length_c       10.594905084447818
_cell_angle_alpha    76.25406687171555
_cell_angle_beta     75.87574621830083
_cell_angle_gamma    75.87566440394127

_space_group_name_H-M_alt    "P 1"
_space_group_IT_number       1

loop_
  _space_group_symop_operation_xyz
  'x, y, z'

loop_
  _atom_site_type_symbol
  _atom_site_label
  _atom_site_symmetry_multiplicity
  _atom_site_fract_x
  _atom_site_fract_y
  _atom_site_fract_z
  _atom_site_occupancy
  Co  Co1       1.0  0.5000014246357838  0.4999980371413386  0.9999999318876149  1.0000
  Co  Co2       1.0  0.9999987920649077  2.497052996400013e-06  0.4999991135348196  1.0000
  H   H1        1.0  0.22152448292641955  0.2817901253490048  0.9831958943053892  1.0000
  H   H2        1.0  0.278488103086957  0.0167957460853216  0.7182064952361031  1.0000
  H   H3        1.0  0.7784738840519698  0.7182096232045436  0.01680417531134989  1.0000
  H   H4        1.0  0.7215134051618295  0.9831980565590257  0.2817954182875368  1.0000
  H   H5        1.0  0.2500120892934846  0.24303145063151982  0.7569567717925095  1.0000
  H   H6        1.0  0.7499751682420882  0.7569673024239735  0.24304066607984245  1.0000
  H   H7        1.0  0.25002345786472807  0.864643097206745  0.13535487025811926  1.0000
  H   H8        1.0  0.7499931498807942  0.1353526884744838  0.8646478306413242  1.0000
  H   H9        1.0  0.2589177571231219  0.3395389865429904  0.16293308905808598  1.0000
  H   H10       1.0  0.24108268045814912  0.837066654103907  0.6604609149395486  1.0000
  H   H11       1.0  0.7410843137105588  0.6604627407384952  0.837064946623343  1.0000
  H   H12       1.0  0.7589188258969913  0.16293209655301408  0.3395360393551954  1.0000
  H   H13       1.0  0.07915666828760248  0.6175850486837006  0.1324313970541411  1.0000
  H   H14       1.0  0.42084976113734773  0.8675671293243353  0.38241396273478034  1.0000
  H   H15       1.0  0.9208471128233245  0.3824156886341682  0.8675675347005408  1.0000
  H   H16       1.0  0.5791494605349286  0.1324345973378414  0.6175836035139568  1.0000
  H   H17       1.0  0.031239376003874525  0.4971300189964722  0.2804494686884738  1.0000
  H   H18       1.0  0.46876642638363125  0.7195517355829182  0.5028720504072481  1.0000
  H   H19       1.0  0.9687626928214502  0.5028717119484156  0.7195504541536621  1.0000
  H   H20       1.0  0.531242485673744  0.28045097619328624  0.4971227231775829  1.0000
  H   H21       1.0  0.9629687321090049  0.48642071636820816  0.13255598308990105  1.0000
  H   H22       1.0  0.5370301514356514  0.8674459494310439  0.5135828030856119  1.0000
  H   H23       1.0  0.0370333377204944  0.5135810127449857  0.8674429961718815  1.0000
  H   H24       1.0  0.4629662121523098  0.132560737446326  0.4864159395640116  1.0000
  H   H25       1.0  0.3349069468523569  0.6052904528174209  0.8111745337181233  1.0000
  H   H26       1.0  0.16509231730903914  0.18882820599718286  0.3947131547601685  1.0000
  H   H27       1.0  0.6650914161093058  0.39470930306294594  0.18882931022002936  1.0000
  H   H28       1.0  0.8349046186761842  0.8111764985019505  0.6052859670229154  1.0000
  H   H29       1.0  0.40491817471721014  0.45986077985593005  0.6502305846244025  1.0000
  H   H30       1.0  0.09508850895595347  0.3497729318158135  0.540140950708178  1.0000
  H   H31       1.0  0.5950750554043581  0.5401419495786753  0.3497724582546978  1.0000
  H   H32       1.0  0.9049189690957181  0.6502347414010927  0.45985570578405793  1.0000
  H   H33       1.0  0.6154875775533175  0.5050767394674834  0.6747857325669101  1.0000
  H   H34       1.0  0.8845165990587704  0.3252176555320929  0.49492553105995535  1.0000
  H   H35       1.0  0.3845079392594785  0.494923010298457  0.32521481119749046  1.0000
  H   H36       1.0  0.11548745542587116  0.6747920031071428  0.5050721640268351  1.0000
  H   H37       1.0  0.5558352969453537  0.3476188708552995  0.7567943833132915  1.0000
  H   H38       1.0  0.9441664859897758  0.24321245492990326  0.6523851082056283  1.0000
  H   H39       1.0  0.4441602208716235  0.65238087707894  0.24320521687075572  1.0000
  H   H40       1.0  0.05583642961070015  0.7567962131264139  0.3476130135217304  1.0000
  C   C1        1.0  0.19219454334733402  0.09294108722910009  0.21560656684422244  1.0000
  C   C2        1.0  0.30780403656714134  0.7843935780304179  0.9070489874844656  1.0000
  C   C3        1.0  0.8077932933853308  0.9070457819278982  0.7843983378783292  1.0000
  C   C4        1.0  0.6921900621921255  0.21560615951979395  0.09294518829129571  1.0000
  C   C5        1.0  0.2271963423007081  0.07546530086976588  0.07539461906573311  1.0000
  C   C6        1.0  0.2728125270930877  0.9245984385641676  0.9245403456313498  1.0000
  C   C7        1.0  0.7728037290445546  0.9245384130595581  0.9246051617167768  1.0000
  C   C8        1.0  0.7271861239608484  0.07539537811450708  0.07546864710243281  1.0000
  C   C9        1.0  0.23253445763906205  0.18201919748433676  0.9677208994209892  1.0000
  C   C10       1.0  0.26747840588776484  0.0322699585462942  0.8179642142258245  1.0000
  C   C11       1.0  0.7674610790279105  0.8179706269491972  0.03227446551555599  1.0000
  C   C12       1.0  0.7325202533143343  0.9677287878279087  0.1820303834755279  1.0000
  C   C13       1.0  0.2500088209287484  0.1597402199738838  0.8402566465210058  1.0000
  C   C14       1.0  0.7499855568851718  0.8402535948599805  0.15975117027356583  1.0000
  C   C15       1.0  0.2500063057045454  0.9476592355205253  0.05233848298924219  1.0000
  C   C16       1.0  0.7499954858450482  0.052338525778985484  0.947659604452589  1.0000
  C   C17       1.0  0.0729948061490617  0.5130193381423638  0.17134319738732265  1.0000
  C   C18       1.0  0.42700930999078685  0.8286566830392559  0.4869828299160874  1.0000
  C   C19       1.0  0.9270081153617871  0.4869843745745611  0.8286561092475252  1.0000
  C   C20       1.0  0.5729924756484409  0.17134603359964726  0.5130140726182617  1.0000
  C   C21       1.0  0.4953316184421016  0.45232292641138366  0.7228059048623833  1.0000
  C   C22       1.0  0.004671149642980825  0.27719914797112466  0.5476789873104835  1.0000
  C   C23       1.0  0.5046644667512298  0.5476748483031456  0.2771987923568987  1.0000
  C   C24       1.0  0.9953331900361134  0.7228095213107011  0.4523198409233941  1.0000
  O   O1        1.0  0.13437804874077144  0.999170122380363  0.3047156509553587  1.0000
  O   O2        1.0  0.36561930266980636  0.6952779648650064  0.00083545253159661  1.0000
  O   O3        1.0  0.86561148065276  0.0008355671803598998  0.6952797487283888  1.0000
  O   O4        1.0  0.6343730835744171  0.30471287761390187  0.999173407110831  1.0000
  O   O5        1.0  0.2199733743976396  0.19857241323942523  0.24154340366202828  1.0000
  O   O6        1.0  0.2800309733770591  0.7584572974287267  0.8014323059932026  1.0000
  O   O7        1.0  0.7800249846620135  0.8014322943169246  0.7584573682079352  1.0000
  O   O8        1.0  0.7199736603046746  0.2415404773120215  0.19857285594379454  1.0000
  O   O9        1.0  0.26245992799120904  0.4368238715947825  0.13152593319522776  1.0000
  O   O10       1.0  0.23754081941874022  0.8684751837839428  0.5631724165826029  1.0000
  O   O11       1.0  0.737543569818911  0.563172907067937  0.8684768246412702  1.0000
  O   O12       1.0  0.7624578357666396  0.13152356991707848  0.43682595544015607  1.0000
  O   O13       1.0  0.37961729920953513  0.504626257781524  0.8358396741153767  1.0000
  O   O14       1.0  0.12038292538804288  0.16416463581654736  0.4953763906987945  1.0000
  O   O15       1.0  0.6203859113977688  0.4953715139020075  0.16416383773474053  1.0000
  O   O16       1.0  0.879614577084084  0.8358430416437415  0.5046219253102678  1.0000
