data_image0
_chemical_formula_structural       Zn2H28C52N8O8
_chemical_formula_sum              "Zn2 H28 C52 N8 O8"
_cell_length_a       5.717274469315423
_cell_length_b       10.800398681398358
_cell_length_c       16.791742269963862
_cell_angle_alpha    90.99761257141647
_cell_angle_beta     81.1174767363895
_cell_angle_gamma    73.90822462534545

_space_group_name_H-M_alt    "P 1"
_space_group_IT_number       1

loop_
  _space_group_symop_operation_xyz
  'x, y, z'

loop_
  _atom_site_type_symbol
  _atom_site_label
  _atom_site_symmetry_multiplicity
  _atom_site_fract_x
  _atom_site_fract_y
  _atom_site_fract_z
  _atom_site_occupancy
  Zn  Zn1       1.0  0.7421832926651036  0.49357231550910535  0.3825004804407896  1.0000
  Zn  Zn2       1.0  0.2578199299741187  0.5064259221977423  0.6174987032043189  1.0000
  H   H1        1.0  0.3324222261805688  0.598010956613429  0.27509258278725207  1.0000
  H   H2        1.0  0.6675830853863401  0.4019901960843555  0.7249088754033932  1.0000
  H   H3        1.0  0.30729193105406705  0.5904850866271687  0.12805564127189933  1.0000
  H   H4        1.0  0.6927126273201268  0.4095208944032223  0.8719464724432979  1.0000
  H   H5        1.0  0.674709067589319  0.44975664353589195  0.03102388785021051  1.0000
  H   H6        1.0  0.32528937770072724  0.5502474205868779  0.9689773739346205  1.0000
  H   H7        1.0  0.27486034445547614  0.3387162108811522  0.42197923696432577  1.0000
  H   H8        1.0  0.7251376719912201  0.6612821096506422  0.5780244109321088  1.0000
  H   H9        1.0  0.6589719325473383  0.1859198234987289  0.34586510172142926  1.0000
  H   H10       1.0  0.3410397865287891  0.8140794087872935  0.654138369188537  1.0000
  H   H11       1.0  0.6852167547950216  0.1385034895629715  0.19526608359372935  1.0000
  H   H12       1.0  0.314799644933885  0.8614966169255354  0.8047323606495451  1.0000
  H   H13       1.0  0.14248438542349354  0.24293783043113854  0.8385925941730289  1.0000
  H   H14       1.0  0.8575159608351656  0.7570527906857407  0.16141208544493674  1.0000
  H   H15       1.0  0.5217402926152346  0.11359966189188242  0.7509224334269787  1.0000
  H   H16       1.0  0.4782514728672994  0.8863804092248202  0.24908328987333309  1.0000
  H   H17       1.0  0.9006114862995601  0.01289239505367589  0.8082674053660381  1.0000
  H   H18       1.0  0.09937949260421418  0.9870924874027341  0.19173778409439274  1.0000
  H   H19       1.0  0.9065795006339884  0.0433442767418342  0.9549579657148042  1.0000
  H   H20       1.0  0.09342936309042944  0.9566636119865422  0.045043911058272074  1.0000
  H   H21       1.0  0.5467363523664446  0.1432466056208028  0.5066895092382777  1.0000
  H   H22       1.0  0.45325893622338503  0.8567564490694508  0.4933077584880861  1.0000
  H   H23       1.0  0.6444026009978857  0.931356148862271  0.5692429619349253  1.0000
  H   H24       1.0  0.3555904711694211  0.068647913120941  0.43075681727908915  1.0000
  H   H25       1.0  0.9528862137173842  0.8835220645739457  0.6610569869721273  1.0000
  H   H26       1.0  0.0471121314145293  0.11648194857011869  0.3389407067194198  1.0000
  H   H27       1.0  0.16364423602855988  0.050926330566355184  0.6916192519605884  1.0000
  H   H28       1.0  0.8363521370268147  0.9490748270619347  0.3083803299609256  1.0000
  C   C1        1.0  0.4886453291929769  0.5420740527112216  0.23136060014527252  1.0000
  C   C2        1.0  0.5113533771360751  0.45792615709927276  0.7686406330640805  1.0000
  C   C3        1.0  0.4756549334524537  0.535994859631053  0.14865505015843175  1.0000
  C   C4        1.0  0.5243490458412126  0.46400530134030055  0.8513440975284463  1.0000
  C   C5        1.0  0.6758754462579973  0.45994920526435834  0.09555227490023548  1.0000
  C   C6        1.0  0.3241306518876783  0.5400471360937118  0.9044497171302905  1.0000
  C   C7        1.0  0.8894576158963615  0.3927917127261226  0.12539185093415733  1.0000
  C   C8        1.0  0.11054312928131098  0.607211386585952  0.874609872774087  1.0000
  C   C9        1.0  0.8898889610825974  0.40817111439975673  0.2088030715112622  1.0000
  C   C10       1.0  0.11009916939291031  0.5918359276932463  0.791201762944915  1.0000
  C   C11       1.0  0.10924099538897283  0.3457712883210604  0.24283555834618645  1.0000
  C   C12       1.0  0.8907409218442479  0.6542337858856158  0.7571648560863476  1.0000
  C   C13       1.0  0.29239413918831053  0.3147678270901935  0.3575572280485772  1.0000
  C   C14       1.0  0.7075921501672225  0.685239188800267  0.6424453281706944  1.0000
  C   C15       1.0  0.5070299344882016  0.2289500198820137  0.3140542188121741  1.0000
  C   C16       1.0  0.49295163736679365  0.771049353215936  0.6859515551430417  1.0000
  C   C17       1.0  0.5216972414226293  0.20342897177009425  0.23193705446840332  1.0000
  C   C18       1.0  0.4783171361506719  0.7965682537132819  0.7680614939581925  1.0000
  C   C19       1.0  0.3201994794346206  0.26356339966928033  0.19404619500937054  1.0000
  C   C20       1.0  0.6797870375738881  0.7364397449159981  0.8059551432699903  1.0000
  C   C21       1.0  0.32287498844146273  0.24597368806289674  0.10761313275670398  1.0000
  C   C22       1.0  0.6771236211911856  0.7540332223660116  0.8923851519256796  1.0000
  C   C23       1.0  0.10686196894553752  0.3090965326680361  0.07364776253928795  1.0000
  C   C24       1.0  0.8931380495020206  0.6908979087753124  0.9263545669252974  1.0000
  C   C25       1.0  0.3049084196729268  0.21695981261574102  0.9482497885401951  1.0000
  C   C26       1.0  0.6951022517854285  0.783048085322278  0.05175317710536826  1.0000
  C   C27       1.0  0.3064469769968881  0.1973505534381559  0.8644391085793541  1.0000
  C   C28       1.0  0.6935561146857766  0.8026448549554602  0.13556424153263436  1.0000
  C   C29       1.0  0.5185362220317343  0.1251495956571631  0.8157162380108713  1.0000
  C   C30       1.0  0.4814603743407704  0.874831426130086  0.18428981076268505  1.0000
  C   C31       1.0  0.735356958251593  0.068823807459836  0.8485053406180041  1.0000
  C   C32       1.0  0.26464411473718047  0.9311754715257692  0.1514987332436205  1.0000
  C   C33       1.0  0.7400189029354537  0.085105692206831  0.9296141277340124  1.0000
  C   C34       1.0  0.259988038791491  0.9148993664951205  0.07039142131566928  1.0000
  C   C35       1.0  0.5249992874089529  0.1588670261373579  0.9817551006933696  1.0000
  C   C36       1.0  0.4750018022728427  0.8411322613446969  0.01824956785046787  1.0000
  C   C37       1.0  0.7311387160198564  0.3414752493154722  0.5266343101700739  1.0000
  C   C38       1.0  0.2688651403733289  0.6585208619252115  0.47335113125040335  1.0000
  C   C39       1.0  0.8015544358127328  0.21343610167483723  0.5629821054364611  1.0000
  C   C40       1.0  0.19844006273661569  0.7865650127580041  0.4370140088837004  1.0000
  C   C41       1.0  0.6842426023859929  0.1205337880996069  0.5464119610515821  1.0000
  C   C42       1.0  0.3157528303917017  0.8794653528032086  0.45358111532379997  1.0000
  C   C43       1.0  0.7370193388173546  0.0030191694398382977  0.5822070973458507  1.0000
  C   C44       1.0  0.26298339166816465  0.9969800422873407  0.4177927132483318  1.0000
  C   C45       1.0  0.9107758320487986  0.9766633896198372  0.6342437719390047  1.0000
  C   C46       1.0  0.0892270127002632  0.0233386429241236  0.3657512775060922  1.0000
  C   C47       1.0  0.028180148068386812  0.06894122225488529  0.6509174186180855  1.0000
  C   C48       1.0  0.9718326194996296  0.9310588573178933  0.3490782531980086  1.0000
  C   C49       1.0  0.9747029566063787  0.1881060391508171  0.6157623940082289  1.0000
  C   C50       1.0  0.02529988814268336  0.8118959933931436  0.38423265543686097  1.0000
  C   C51       1.0  0.09462390455130527  0.28871928913656575  0.6377471516760662  1.0000
  C   C52       1.0  0.9053916849823765  0.711272117000959  0.3622489249124853  1.0000
  N   N1        1.0  0.6901397196091069  0.47935093447780025  0.2604483958280568  1.0000
  N   N2        1.0  0.3098458130919894  0.5206541581481474  0.739554196349445  1.0000
  N   N3        1.0  0.09970335305813906  0.3712392208389517  0.32226659849848  1.0000
  N   N4        1.0  0.9002793542155699  0.6287677936251299  0.6777349693402498  1.0000
  N   N5        1.0  0.09984468554198146  0.2932222624728951  0.9953344867755543  1.0000
  N   N6        1.0  0.9001400571186268  0.7067808898956471  0.00466695199575179  1.0000
  N   N7        1.0  0.5285450710042028  0.174104490967288  0.061676601712569785  1.0000
  N   N8        1.0  0.4714643850320499  0.825902474719463  0.9383282162047234  1.0000
  O   O1        1.0  0.7700906440213515  0.33758185530483326  0.44974074464383307  1.0000
  O   O2        1.0  0.22989113620597829  0.6624163993331039  0.5502542927646699  1.0000
  O   O3        1.0  0.6360129388297011  0.4422515824423952  0.5735177494251713  1.0000
  O   O4        1.0  0.36397483763063593  0.5577485296280001  0.4264739771381939  1.0000
  O   O5        1.0  0.16862968566777425  0.35281026445866104  0.579041427100364  1.0000
  O   O6        1.0  0.8313540033257354  0.6471975633063637  0.4209499629156354  1.0000
  O   O7        1.0  0.1113950347138442  0.3060490991311724  0.7102740658117667  1.0000
  O   O8        1.0  0.8886508663835784  0.6939450125005634  0.2897167306290882  1.0000
