data_image0
_chemical_formula_structural       Zn2H10C24N2O14
_chemical_formula_sum              "Zn2 H10 C24 N2 O14"
_cell_length_a       8.077729813203172
_cell_length_b       9.255849933106916
_cell_length_c       17.056012397635968
_cell_angle_alpha    90.08016890019344
_cell_angle_beta     84.78702148321702
_cell_angle_gamma    90.0125982100119

_space_group_name_H-M_alt    "P 1"
_space_group_IT_number       1

loop_
  _space_group_symop_operation_xyz
  'x, y, z'

loop_
  _atom_site_type_symbol
  _atom_site_label
  _atom_site_symmetry_multiplicity
  _atom_site_fract_x
  _atom_site_fract_y
  _atom_site_fract_z
  _atom_site_occupancy
  Zn  Zn1       1.0  0.3391975940353475  0.4968686222509503  0.49456213771807717  1.0000
  Zn  Zn2       1.0  0.6613421310537434  0.49710894511650144  0.5056983812166251  1.0000
  H   H1        1.0  0.2390497546168859  0.22089515124891082  0.8750281623236023  1.0000
  H   H2        1.0  0.15442792143745274  0.3431069155636806  0.9902960899217491  1.0000
  H   H3        1.0  0.7593215467558636  0.2171066385172864  0.1241010893943724  1.0000
  H   H4        1.0  0.4028514408059323  0.5580415168563561  0.1013218492169727  1.0000
  H   H5        1.0  0.5988120270056001  0.5586080641532193  0.8998901017768547  1.0000
  H   H6        1.0  0.602012961166679  0.6101925378402696  0.7571863235207702  1.0000
  H   H7        1.0  0.4019145118952423  0.6084340839113054  0.24408787066141002  1.0000
  H   H8        1.0  0.9121564152763425  0.0739095023053196  0.2777288335971804  1.0000
  H   H9        1.0  0.0878994284295729  0.07992222374546999  0.7200215238710969  1.0000
  H   H10       1.0  0.8450312537822313  0.34142987150943327  0.009543829368219306  1.0000
  C   C1        1.0  0.4988433494331872  0.7753138397768138  0.4994429914676034  1.0000
  C   C2        1.0  0.48315001112872114  0.525234838231597  0.21658564422340024  1.0000
  C   C3        1.0  0.5202458797567929  0.4965719682075757  0.8634884478889334  1.0000
  C   C4        1.0  0.48116362658159767  0.49499062277537564  0.1372607370920775  1.0000
  C   C5        1.0  0.42197509627897023  0.3834597209410687  0.8977599465502664  1.0000
  C   C6        1.0  0.578047739400738  0.3815218019463343  0.10235489395224559  1.0000
  C   C7        1.0  0.3152945494084848  0.3100801849377106  0.8506984482967113  1.0000
  C   C8        1.0  0.6842123315615608  0.30664837672763673  0.1489268308852303  1.0000
  C   C9        1.0  0.3076891458427227  0.34516748064368125  0.7710911935315465  1.0000
  C   C10       1.0  0.6927021451096707  0.3405934737596184  0.2287000088269835  1.0000
  C   C11       1.0  0.4265800548013915  0.35229123779863863  0.9818541064103455  1.0000
  C   C12       1.0  0.4988353913810998  0.2184164337337222  0.5004282229916868  1.0000
  C   C13       1.0  0.5729558107568735  0.35152870124863256  0.01813064181020961  1.0000
  C   C14       1.0  0.8132404989905524  0.2580962307824493  0.2732591166778207  1.0000
  C   C15       1.0  0.18590242588898317  0.26432310620673155  0.7262604311812026  1.0000
  C   C16       1.0  0.7378678961132507  0.31979317968947635  0.9741274419000802  1.0000
  C   C17       1.0  0.26145564330978743  0.3208415708495309  0.025682091650601493  1.0000
  C   C18       1.0  0.49859494479304795  0.9313126612996429  0.4995798202956649  1.0000
  C   C19       1.0  0.49860786424822834  0.06243648374186961  0.49991948936660435  1.0000
  C   C20       1.0  0.4400008203479828  0.4834382186563886  0.6501568599035751  1.0000
  C   C21       1.0  0.5630568623751344  0.48009756792607305  0.35025954534595644  1.0000
  C   C22       1.0  0.41451513219243463  0.4530272332198562  0.7369495179415466  1.0000
  C   C23       1.0  0.5876189538183925  0.4492540848042168  0.26340787575009733  1.0000
  C   C24       1.0  0.5194674700190305  0.5275920378033163  0.784259163755884  1.0000
  N   N1        1.0  0.9317436966857285  0.4849290430862538  0.5067191661603445  1.0000
  N   N2        1.0  0.0685796349720391  0.4848699781242233  0.4941292957683174  1.0000
  O   O1        1.0  0.3692842220539063  0.7136409879375805  0.47775137476256907  1.0000
  O   O2        1.0  0.8263081361297325  0.1177715530070174  0.24831039671849445  1.0000
  O   O3        1.0  0.1018675774273206  0.31449526152249513  0.6770962622664742  1.0000
  O   O4        1.0  0.17475545953711696  0.12293267718862919  0.7492211195864158  1.0000
  O   O5        1.0  0.7612095709595791  0.2675782230510322  0.9080937300078135  1.0000
  O   O6        1.0  0.2377704550912298  0.26840462193044345  0.09158532359808189  1.0000
  O   O7        1.0  0.639734901062802  0.27967923776545695  0.4868643130937897  1.0000
  O   O8        1.0  0.6286358023584242  0.7142210964450728  0.5211343024254802  1.0000
  O   O9        1.0  0.3580313061386989  0.2798420220674842  0.5143885045545672  1.0000
  O   O10       1.0  0.3209837862448808  0.5290192976189019  0.6133822710483869  1.0000
  O   O11       1.0  0.6822438986395766  0.5265584402785707  0.38671942468865694  1.0000
  O   O12       1.0  0.5889936920611306  0.4608829497812719  0.6207157510266941  1.0000
  O   O13       1.0  0.414376996620291  0.45744185447451  0.3799868499497309  1.0000
  O   O14       1.0  0.8948684400020143  0.30627444290756495  0.3239761312081413  1.0000
