data_image0
_chemical_formula_structural       Mn2H24C24N4O12
_chemical_formula_sum              "Mn2 H24 C24 N4 O12"
_cell_length_a       7.034557949595293
_cell_length_b       8.460554119964291
_cell_length_c       9.956136852791797
_cell_angle_alpha    89.74871500483926
_cell_angle_beta     91.34602764829475
_cell_angle_gamma    99.13225483252957

_space_group_name_H-M_alt    "P 1"
_space_group_IT_number       1

loop_
  _space_group_symop_operation_xyz
  'x, y, z'

loop_
  _atom_site_type_symbol
  _atom_site_label
  _atom_site_symmetry_multiplicity
  _atom_site_fract_x
  _atom_site_fract_y
  _atom_site_fract_z
  _atom_site_occupancy
  Mn  Mn1       1.0  0.9999964857759311  0.4999972478861281  0.9999964329202553  1.0000
  Mn  Mn2       1.0  0.49999804660348707  0.4999991477613648  0.5000010343894559  1.0000
  H   H1        1.0  0.20764149865651396  0.2805857264688428  0.1170796890839583  1.0000
  H   H2        1.0  0.2817258915574214  0.6890494461709267  0.6198421158810206  1.0000
  H   H3        1.0  0.7923579164823024  0.719414941784727  0.8829224030226827  1.0000
  H   H4        1.0  0.7182770919676713  0.31094759810103056  0.38016202233773555  1.0000
  H   H5        1.0  0.03774851317497511  0.29745537540097194  0.2205347332581766  1.0000
  H   H6        1.0  0.464861217799232  0.6879297675378097  0.7204309712628643  1.0000
  H   H7        1.0  0.9622518720716331  0.7025428873862083  0.7794693806841977  1.0000
  H   H8        1.0  0.5351380545074917  0.3120697018765028  0.27957714882967366  1.0000
  H   H9        1.0  0.37595072596057827  0.5079374256997936  0.2048931746486318  1.0000
  H   H10       1.0  0.1503978825564332  0.4800626653231035  0.7107959377174139  1.0000
  H   H11       1.0  0.6240437390757094  0.49205968287175517  0.7951108916896317  1.0000
  H   H12       1.0  0.849608050501786  0.5199355569406663  0.2892001872523693  1.0000
  H   H13       1.0  0.7213880936094483  0.048423676876588204  0.2992363973215575  1.0000
  H   H14       1.0  0.7499082099857832  0.9525854102953132  0.758981187963407  1.0000
  H   H15       1.0  0.2786138214221552  0.9515757746189948  0.7007596913917736  1.0000
  H   H16       1.0  0.25009113956256357  0.0474152591297496  0.24101688569677288  1.0000
  H   H17       1.0  0.6521814919143908  0.9639841298708379  0.057770918161026  1.0000
  H   H18       1.0  0.8443716503644794  0.0526857662425613  0.5260865605779514  1.0000
  H   H19       1.0  0.3478100352399239  0.036013001891149095  0.9422270965473912  1.0000
  H   H20       1.0  0.1556236483620169  0.9473161330000651  0.4739094676025458  1.0000
  H   H21       1.0  0.6210430407774085  0.8490256826273639  0.480938647987827  1.0000
  H   H22       1.0  0.8615674913154479  0.1328797726577235  0.955063395433356  1.0000
  H   H23       1.0  0.37894954963373817  0.1509762357054854  0.5190653931254303  1.0000
  H   H24       1.0  0.13844793033938171  0.867115979840058  0.0449348232526461  1.0000
  C   C1        1.0  0.45565723099802113  0.6272364197314462  0.22213740740770763  1.0000
  C   C2        1.0  0.060750977905875914  0.3634053270473956  0.7161799511851967  1.0000
  C   C3        1.0  0.5443379248963822  0.3727642806719231  0.7778646487586869  1.0000
  C   C4        1.0  0.9392563912980949  0.6365928842068982  0.28381719037628267  1.0000
  C   C5        1.0  0.6469908293175735  0.9292031851550747  0.2737691489286291  1.0000
  C   C6        1.0  0.838248718896736  0.0684825908605475  0.7430846592419939  1.0000
  C   C7        1.0  0.3530028904310782  0.0707975262577634  0.7262318906460692  1.0000
  C   C8        1.0  0.16175461588300521  0.9315168499184382  0.2569114414514218  1.0000
  C   C9        1.0  0.4453094538744224  0.6800225615741057  0.9728565044260051  1.0000
  C   C10       1.0  0.07270598431567521  0.3272524266465667  0.4651047649406692  1.0000
  C   C11       1.0  0.5546861352626992  0.3199805338719202  0.027142537273121495  1.0000
  C   C12       1.0  0.9273016425037001  0.6727469813968768  0.5348933809162162  1.0000
  C   C13       1.0  0.6083677215312733  0.8831627172284585  0.1406343181516974  1.0000
  C   C14       1.0  0.8902803709725406  0.1234935097706042  0.6154009905491832  1.0000
  C   C15       1.0  0.39162809766268236  0.116834381797986  0.8593657417201968  1.0000
  C   C16       1.0  0.10972154405906312  0.8765059417249859  0.38459509816414783  1.0000
  C   C17       1.0  0.5046232062766053  0.7308934152673103  0.1143044309969028  1.0000
  C   C18       1.0  0.009577884808635383  0.27155776515456137  0.6010263992385987  1.0000
  C   C19       1.0  0.49537283773752705  0.26910488113402664  0.8856946239471598  1.0000
  C   C20       1.0  0.9904290183573893  0.7284380516428114  0.39897174756692516  1.0000
  C   C21       1.0  0.5940057040281418  0.819129869727803  0.37539229855024553  1.0000
  C   C22       1.0  0.8970872016285086  0.16814052892160453  0.8521320494784845  1.0000
  C   C23       1.0  0.4059823203303523  0.18087088484430314  0.6246076884925245  1.0000
  C   C24       1.0  0.10292157092598596  0.8318576719089635  0.1478640994514677  1.0000
  N   N1        1.0  0.507679923896319  0.6661964765285333  0.3509783107513512  1.0000
  N   N2        1.0  0.0008272154341000395  0.31527783913494295  0.8384157366003109  1.0000
  N   N3        1.0  0.4923102602612773  0.33380785828017423  0.6490226919344692  1.0000
  N   N4        1.0  0.9991796713343035  0.6847179779553016  0.1615814055935942  1.0000
  O   O1        1.0  0.2945708690291582  0.578073310971071  0.9540085854853827  1.0000
  O   O2        1.0  0.23487362472600642  0.41569890102719853  0.4460069216812883  1.0000
  O   O3        1.0  0.7054225878674317  0.4219333974470985  0.0459894266933318  1.0000
  O   O4        1.0  0.7651306965591402  0.5842981339925258  0.5539922054594726  1.0000
  O   O5        1.0  0.5502652522166613  0.7431972274813249  0.8772465323429799  1.0000
  O   O6        1.0  0.9546063055689801  0.2802581970123725  0.3678820923748275  1.0000
  O   O7        1.0  0.44972801265499385  0.25680828297620195  0.12275449398678967  1.0000
  O   O8        1.0  0.04539449652273222  0.719742461110343  0.6321180024886672  1.0000
  O   O9        1.0  0.07489516262462814  0.3053679348864691  0.1232104032966248  1.0000
  O   O10       1.0  0.41911213207869485  0.6728038825935556  0.6237483356171224  1.0000
  O   O11       1.0  0.925113796227926  0.6946446500185959  0.8767937547715192  1.0000
  O   O12       1.0  0.5808908842416329  0.3271931610926586  0.376257811824857  1.0000
