data_image0
_chemical_formula_structural       Al2H8C20S2N2O14
_chemical_formula_sum              "Al2 H8 C20 S2 N2 O14"
_cell_length_a       6.625784186430598
_cell_length_b       11.201994907753177
_cell_length_c       12.648903350793256
_cell_angle_alpha    81.50912209178205
_cell_angle_beta     75.895962118667
_cell_angle_gamma    71.5304188490969

_space_group_name_H-M_alt    "P 1"
_space_group_IT_number       1

loop_
  _space_group_symop_operation_xyz
  'x, y, z'

loop_
  _atom_site_type_symbol
  _atom_site_label
  _atom_site_symmetry_multiplicity
  _atom_site_fract_x
  _atom_site_fract_y
  _atom_site_fract_z
  _atom_site_occupancy
  Al  Al1       1.0  0.48854730773064853  0.4999644186197969  0.5006457560567057  1.0000
  Al  Al2       1.0  0.9877371873894416  0.5030739848276368  0.4979614407735724  1.0000
  H   H1        1.0  0.26247456509431544  0.3648476507317752  0.593071612654498  1.0000
  H   H2        1.0  0.7546243950508681  0.58248610184404  0.36988391459454567  1.0000
  H   H3        1.0  0.2980631219511238  0.44632443560838203  0.8480526743281801  1.0000
  H   H4        1.0  0.6733121457545932  0.5746190977234846  0.14831461416950026  1.0000
  H   H5        1.0  0.250508381805929  0.23570640653372976  0.3479063575776919  1.0000
  H   H6        1.0  0.48408402104053744  0.7659148491723113  0.38508292428689833  1.0000
  H   H7        1.0  0.7372853048026472  0.8838834162885049  0.5755481871507939  1.0000
  H   H8        1.0  0.6250565903620924  0.1200802613700134  0.5654876896749599  1.0000
  C   C1        1.0  0.85836040858846  0.2746716179678971  0.48567098562474353  1.0000
  C   C2        1.0  0.6549847911674506  0.5010518245792424  0.6943829163850667  1.0000
  C   C3        1.0  0.12832940468676665  0.7271328592901014  0.5030780105003174  1.0000
  C   C4        1.0  0.3206589667012878  0.5101740058796976  0.3020928507428806  1.0000
  C   C5        1.0  0.4113923863520411  0.47598999505252965  0.879930930679578  1.0000
  C   C6        1.0  0.5608859586511984  0.5438897869064333  0.11661859087780611  1.0000
  C   C7        1.0  0.5909242626569906  0.5057503693724142  0.8131700085171617  1.0000
  C   C8        1.0  0.3829502538793717  0.5121919278016306  0.18301440369429411  1.0000
  C   C9        1.0  0.5715384027611563  0.5307366086328358  0.0061171024239783135  1.0000
  C   C10       1.0  0.400645368586943  0.489424036903074  0.9902735621570148  1.0000
  C   C11       1.0  0.9364808458109052  0.13469418952580983  0.47830332894698563  1.0000
  C   C12       1.0  0.15163386787830996  0.0693119621741687  0.42492438298545215  1.0000
  C   C13       1.0  0.7905696925029628  0.0677063214280338  0.5288570433465196  1.0000
  C   C14       1.0  0.2984536862776607  0.13302209479105187  0.3582662862294584  1.0000
  C   C15       1.0  0.49753503517723613  0.06597783888094709  0.30148656724152545  1.0000
  C   C16       1.0  0.06493682294039606  0.8682419916023889  0.49108441942227193  1.0000
  C   C17       1.0  0.8534318652011451  0.9353186949575799  0.5349430118607046  1.0000
  C   C18       1.0  0.21665358925793038  0.9336897963098565  0.4324186597094696  1.0000
  C   C19       1.0  0.42700253642183095  0.8681967591139284  0.37612344411292753  1.0000
  C   C20       1.0  0.5640290457076202  0.9322568351012849  0.3119275107205013  1.0000
  S   S1        1.0  0.7461947171801382  0.5511689642400768  0.8839036145198877  1.0000
  S   S2        1.0  0.2274413965530471  0.4673755585334049  0.11223743000086021  1.0000
  N   N1        1.0  0.625805111125942  0.13660621290139827  0.2195825609944393  1.0000
  N   N2        1.0  0.7858575070775585  0.8574921987058629  0.2641377732856682  1.0000
  O   O1        1.0  0.6619599266309139  0.3285103011733241  0.47798370730382805  1.0000
  O   O2        1.0  0.8358600158409574  0.5213614319157925  0.6465382471230541  1.0000
  O   O3        1.0  0.9934179270160539  0.6758281950902968  0.4873359805819605  1.0000
  O   O4        1.0  0.44995755221732026  0.5314935077879567  0.3521610303670428  1.0000
  O   O5        1.0  0.31223292854991774  0.6702323487682236  0.5270827405488561  1.0000
  O   O6        1.0  0.1403264467683769  0.4873158958557581  0.34766238902202673  1.0000
  O   O7        1.0  0.9902959384550485  0.3270619722681261  0.5039614493483526  1.0000
  O   O8        1.0  0.5257178378934241  0.4754772190474982  0.647145308516251  1.0000
  O   O9        1.0  0.24637069568739628  0.44209723149040053  0.545982392687634  1.0000
  O   O10       1.0  0.7305967523158116  0.559130362594665  0.448132971460936  1.0000
  O   O11       1.0  0.6551626048681596  0.22932025802325737  0.24871475238116153  1.0000
  O   O12       1.0  0.6870561304176449  0.09949845523878757  0.1263678316129315  1.0000
  O   O13       1.0  0.8115673979671097  0.7496163810463302  0.2394683228949219  1.0000
  O   O14       1.0  0.9339526478298407  0.9058925795010565  0.2550142611483893  1.0000
