data_image0
_chemical_formula_structural       Ag2H16C16S4N2O6F6
_chemical_formula_sum              "Ag2 H16 C16 S4 N2 O6 F6"
_cell_length_a       5.54354263729934
_cell_length_b       9.835842815199818
_cell_length_c       11.185059985912961
_cell_angle_alpha    93.5729946325939
_cell_angle_beta     96.086651565026
_cell_angle_gamma    104.59883728115216

_space_group_name_H-M_alt    "P 1"
_space_group_IT_number       1

loop_
  _space_group_symop_operation_xyz
  'x, y, z'

loop_
  _atom_site_type_symbol
  _atom_site_label
  _atom_site_symmetry_multiplicity
  _atom_site_fract_x
  _atom_site_fract_y
  _atom_site_fract_z
  _atom_site_occupancy
  Ag  Ag1       1.0  0.8924233493872079  0.07107908503472517  0.084219291397936  1.0000
  Ag  Ag2       1.0  0.10756682506456632  0.9289106874376711  0.915770189081357  1.0000
  H   H1        1.0  0.3141886333923408  0.008298437490843497  0.6846030768424002  1.0000
  H   H2        1.0  0.685795983005157  0.9916954779819704  0.3153970514305372  1.0000
  H   H3        1.0  0.24898401150561258  0.14084952497641004  0.5060552015986488  1.0000
  H   H4        1.0  0.7510718746865164  0.859185676953174  0.4939575607408031  1.0000
  H   H5        1.0  0.9243477595334822  0.2793649226767129  0.5034000271104375  1.0000
  H   H6        1.0  0.0757094607638322  0.7206734175003147  0.4966183527286674  1.0000
  H   H7        1.0  0.6896371773869774  0.2846471478477638  0.6809528474035531  1.0000
  H   H8        1.0  0.31036740650487354  0.7153584610204928  0.3190410273822764  1.0000
  H   H9        1.0  0.592637598086128  0.33356421402709907  0.0005187849803363162  1.0000
  H   H10       1.0  0.4073508031725268  0.6664381287915971  0.9994847163277996  1.0000
  H   H11       1.0  0.6659101849485367  0.37506110974042156  0.8542782651220336  1.0000
  H   H12       1.0  0.3340847772317161  0.6249517764644209  0.1457288862424235  1.0000
  H   H13       1.0  0.042397462345306274  0.38324280291084967  0.079457971880494  1.0000
  H   H14       1.0  0.9575758350031192  0.6167626032211259  0.9205546805905201  1.0000
  H   H15       1.0  0.13289505659736983  0.4042337674423278  0.933363551622989  1.0000
  H   H16       1.0  0.8670981549108419  0.5957716846311667  0.0666538095648832  1.0000
  C   C1        1.0  0.18138021813953029  0.07331422728653787  0.6817167118950493  1.0000
  C   C2        1.0  0.8186245861733995  0.9266881814377038  0.3182850414366101  1.0000
  C   C3        1.0  0.1431209758368084  0.14630311928184633  0.5821130857145818  1.0000
  C   C4        1.0  0.8569214952020942  0.8537183655026933  0.4178936702578468  1.0000
  C   C5        1.0  0.9639119772764105  0.2236831514560435  0.5812202705083038  1.0000
  C   C6        1.0  0.0361237064864285  0.776339365167324  0.41878615869785574  1.0000
  C   C7        1.0  0.8332148912773077  0.22694382383058098  0.6804500093841881  1.0000
  C   C8        1.0  0.16679181420648342  0.7730628008237583  0.31955298404338356  1.0000
  C   C9        1.0  0.8875206725081028  0.15329736065159236  0.7785834258070068  1.0000
  C   C10       1.0  0.11247379846211915  0.8467060908468864  0.2214133297518046  1.0000
  C   C11       1.0  0.7324768154255776  0.3353922580764105  0.9375828883799073  1.0000
  C   C12       1.0  0.2675157834015209  0.664615361601548  0.062422043232125204  1.0000
  C   C13       1.0  0.9939985005484359  0.4212380693451222  0.9920121262788513  1.0000
  C   C14       1.0  0.0059907201914129495  0.5787663475813005  0.007998691402555411  1.0000
  C   C15       1.0  0.5478624922876206  0.42057089111131757  0.3152974707885861  1.0000
  C   C16       1.0  0.4521023130477317  0.5793997376838433  0.6847091590549113  1.0000
  S   S1        1.0  0.7096196682319303  0.14869568557774215  0.9028048528829088  1.0000
  S   S2        1.0  0.29036895730737927  0.8513109034674501  0.09719264237928374  1.0000
  S   S3        1.0  0.5260761083118694  0.23771599319348263  0.2507799036125675  1.0000
  S   S4        1.0  0.47395472759319535  0.7622824629297679  0.7491873396542843  1.0000
  N   N1        1.0  0.057525355328820596  0.07702452543842497  0.7790434318427728  1.0000
  N   N2        1.0  0.9424649005923841  0.922973644686479  0.2209527862555234  1.0000
  O   O1        1.0  0.3572462126482918  0.22300332680200088  0.1379671176944228  1.0000
  O   O2        1.0  0.6427502042468803  0.7770034209447515  0.8620040058458969  1.0000
  O   O3        1.0  0.4284849167357693  0.14904971805458433  0.343109721394498  1.0000
  O   O4        1.0  0.5715820435238613  0.8509120365901593  0.6568458748994389  1.0000
  O   O5        1.0  0.7874579520411372  0.24486142908705927  0.2337739292487129  1.0000
  O   O6        1.0  0.21257315940533053  0.7551687421680808  0.7661736630123457  1.0000
  F   F1        1.0  0.6502840283998381  0.5167362633323335  0.23970616507745754  1.0000
  F   F2        1.0  0.3496842477197717  0.4832794752193123  0.7603443379724268  1.0000
  F   F3        1.0  0.3181592480102751  0.4380990010338478  0.33135563774448684  1.0000
  F   F4        1.0  0.6817708601266971  0.5618272620362177  0.6686474116319516  1.0000
  F   F5        1.0  0.6953047615841825  0.451195459085575  0.4234048582946173  1.0000
  F   F6        1.0  0.30461879124497676  0.5487370152745612  0.5766160518538825  1.0000
