data_image0
_chemical_formula_structural       Zn2H32C40N4O8
_chemical_formula_sum              "Zn2 H32 C40 N4 O8"
_cell_length_a       8.299772816199628
_cell_length_b       9.688079220799427
_cell_length_c       11.583074100289483
_cell_angle_alpha    66.6545249463882
_cell_angle_beta     76.6898190242744
_cell_angle_gamma    88.63233162218336

_space_group_name_H-M_alt    "P 1"
_space_group_IT_number       1

loop_
  _space_group_symop_operation_xyz
  'x, y, z'

loop_
  _atom_site_type_symbol
  _atom_site_label
  _atom_site_symmetry_multiplicity
  _atom_site_fract_x
  _atom_site_fract_y
  _atom_site_fract_z
  _atom_site_occupancy
  Zn  Zn1       1.0  0.729200941037469  0.224058370192914  0.06797020316316346  1.0000
  Zn  Zn2       1.0  0.2707954709437956  0.7759393987744686  0.9320314163956311  1.0000
  H   H1        1.0  0.763523734064222  0.6771050943165732  0.07096413288348923  1.0000
  H   H2        1.0  0.2364852348390656  0.3228948553899044  0.9290328931502215  1.0000
  H   H3        1.0  0.9669296331021684  0.38558086378301226  0.3825390465487857  1.0000
  H   H4        1.0  0.03307562344832599  0.6144191073579747  0.6174586059569692  1.0000
  H   H5        1.0  0.05419622274576601  0.6093714016096144  0.4168359029229833  1.0000
  H   H6        1.0  0.9458064676965064  0.3906274577273123  0.5831634198732659  1.0000
  H   H7        1.0  0.986640266547447  0.8662963296989047  0.27913599528037747  1.0000
  H   H8        1.0  0.013359857786603896  0.13370141783396858  0.7208649978063661  1.0000
  H   H9        1.0  0.3795503997392018  0.2497697130951052  0.04876907479621205  1.0000
  H   H10       1.0  0.6204433949354354  0.7502269374336803  0.9512299092020627  1.0000
  H   H11       1.0  0.0939586495888989  0.15443304614127834  0.18980216219343052  1.0000
  H   H12       1.0  0.9060374478145475  0.845561339237278  0.8101997706119379  1.0000
  H   H13       1.0  0.3230243770120609  0.9028085110799112  0.5025188270571022  1.0000
  H   H14       1.0  0.676969803918155  0.0971915323260575  0.4974858718860133  1.0000
  H   H15       1.0  0.6014160480812905  0.0144563826972615  0.3473673898233187  1.0000
  H   H16       1.0  0.3985780006838412  0.9855425293073523  0.6526351170814451  1.0000
  H   H17       1.0  0.011165864549191391  0.8431826143444779  0.498365608208104  1.0000
  H   H18       1.0  0.9888270379713759  0.15681743089869826  0.5016358548782165  1.0000
  H   H19       1.0  0.9223450198037355  0.9978098335115106  0.3927692214983766  1.0000
  H   H20       1.0  0.0776503780980562  0.002190200095803599  0.6072335462803196  1.0000
  H   H21       1.0  0.7200649524267391  0.5380694611693427  0.8838665190704376  1.0000
  H   H22       1.0  0.2799388944997787  0.4619282662559241  0.11613470871446208  1.0000
  H   H23       1.0  0.6388499214900919  0.6755118088045222  0.6748081458984458  1.0000
  H   H24       1.0  0.3611556905969451  0.32449155123293133  0.3251926380415426  1.0000
  H   H25       1.0  0.5378659237600801  0.24124843726024636  0.6731640027019523  1.0000
  H   H26       1.0  0.46213140123558816  0.7587594784929053  0.32683409360650023  1.0000
  H   H27       1.0  0.624184591340203  0.12340487863403375  0.8810572010217328  1.0000
  H   H28       1.0  0.3758111611473538  0.8765996580213127  0.11893969501690557  1.0000
  H   H29       1.0  0.6347081681507234  0.6285082457215693  0.45798672314957395  1.0000
  H   H30       1.0  0.36528896419253704  0.371497416517215  0.5420130172736037  1.0000
  H   H31       1.0  0.4294325171344227  0.622870393931379  0.54632835479417  1.0000
  H   H32       1.0  0.5705657512137209  0.37713413374192567  0.453671568277251  1.0000
  C   C1        1.0  0.8266594537198486  0.6622676104364871  0.14693078646557478  1.0000
  C   C2        1.0  0.1733481660467788  0.33773121766728303  0.853065978694204  1.0000
  C   C3        1.0  0.8626051479902586  0.517666106605482  0.22313978291380468  1.0000
  C   C4        1.0  0.1373974410059731  0.482331625310806  0.7768599313547072  1.0000
  C   C5        1.0  0.9405012646345485  0.4989792659743983  0.323174985213548  1.0000
  C   C6        1.0  0.0595039007095863  0.5010195790728602  0.6768239199346694  1.0000
  C   C7        1.0  0.986959734047204  0.6236741359550494  0.3429155453605118  1.0000
  C   C8        1.0  0.013044193845999499  0.37632471623704317  0.6570835686117249  1.0000
  C   C9        1.0  0.9507606167965221  0.7674160000962617  0.266062085549855  1.0000
  C   C10       1.0  0.0492434023030484  0.2325839781895667  0.7339357757799191  1.0000
  C   C11       1.0  0.8666081115883273  0.7873798288081842  0.16951735444659025  1.0000
  C   C12       1.0  0.13339837217341707  0.21262013386106557  0.8304792280649452  1.0000
  C   C13       1.0  0.8083092990210758  0.938733967230547  0.09834441533213586  1.0000
  C   C14       1.0  0.1916959472897375  0.06126600258352968  0.9016523760034119  1.0000
  C   C15       1.0  0.8156539915692633  0.3817155604172129  0.2023692620657372  1.0000
  C   C16       1.0  0.18434622397114714  0.6182833132093961  0.7976304783785438  1.0000
  C   C17       1.0  0.3610797734603253  0.17549928010006968  0.15051888742406314  1.0000
  C   C18       1.0  0.6389192958355209  0.8245007267651091  0.8494798092017746  1.0000
  C   C19       1.0  0.2029006095857184  0.12215379820399623  0.2293070555792767  1.0000
  C   C20       1.0  0.7970986728419049  0.877848464829377  0.770691719272243  1.0000
  C   C21       1.0  0.18607621846849298  0.0237902028026866  0.3586989040455748  1.0000
  C   C22       1.0  0.8139214002446594  0.9762075550391386  0.6412999231785933  1.0000
  C   C23       1.0  0.3315984028292576  0.9824546250429197  0.40277544244491265  1.0000
  C   C24       1.0  0.6683982427631392  0.017545402746471  0.5972279776799639  1.0000
  C   C25       1.0  0.4849311789877646  0.04180603711552781  0.317958611338959  1.0000
  C   C26       1.0  0.5150665011634673  0.9581917286877443  0.6820453829064305  1.0000
  C   C27       1.0  0.017814268907933698  0.9667566511286694  0.4483947782487335  1.0000
  C   C28       1.0  0.9821860378388435  0.03324334859166811  0.5516037095530921  1.0000
  C   C29       1.0  0.6780263745517273  0.4779490942993617  0.8329475942634305  1.0000
  C   C30       1.0  0.3219753930174321  0.5220531557712392  0.16705162411025748  1.0000
  C   C31       1.0  0.6330819272945337  0.5526884061555181  0.7166214662750932  1.0000
  C   C32       1.0  0.3669199519603552  0.4473149726626318  0.2833782217965393  1.0000
  C   C33       1.0  0.5805024336036554  0.47024175636093457  0.6540799005511673  1.0000
  C   C34       1.0  0.41949717364146016  0.5297638915881677  0.3459194222239788  1.0000
  C   C35       1.0  0.5781313830414305  0.3134009314201763  0.7145207286967619  1.0000
  C   C36       1.0  0.42186707795912076  0.6866058497674955  0.2854775502599338  1.0000
  C   C37       1.0  0.625205863858497  0.24525597770257695  0.8310575930178956  1.0000
  C   C38       1.0  0.3747921913578764  0.7547462938025403  0.16894225182783637  1.0000
  C   C39       1.0  0.5289505362900115  0.5509437936521024  0.5286489017476584  1.0000
  C   C40       1.0  0.4710502274393562  0.4490607223853403  0.4713523260161309  1.0000
  N   N1        1.0  0.6739203990642652  0.32601324745728993  0.8902859523828752  1.0000
  N   N2        1.0  0.3260788936030394  0.6739890169029791  0.1097136836388444  1.0000
  N   N3        1.0  0.49971578570112746  0.13791447578847027  0.19339992779406154  1.0000
  N   N4        1.0  0.5002818842104304  0.8620832886878914  0.806603205281121  1.0000
  O   O1        1.0  0.7941417842002069  0.40752065314599406  0.08829649818277838  1.0000
  O   O2        1.0  0.2058606931102958  0.592475950022745  0.911702746387789  1.0000
  O   O3        1.0  0.7999345374313975  0.2537193571669505  0.2934601465829729  1.0000
  O   O4        1.0  0.2000607283053029  0.746279545039009  0.7065404291573713  1.0000
  O   O5        1.0  0.7042255415386337  0.9490762789547132  0.03320736059825442  1.0000
  O   O6        1.0  0.29578082029770053  0.050922553640077695  0.9667878910451364  1.0000
  O   O7        1.0  0.8654805200012703  0.051180646454383784  0.1161624964056003  1.0000
  O   O8        1.0  0.13451847856757126  0.9488182369708721  0.8838391752031073  1.0000
