data_image0
_chemical_formula_structural       Ag4H48C24S4N8O12
_chemical_formula_sum              "Ag4 H48 C24 S4 N8 O12"
_cell_length_a       6.847288271737829
_cell_length_b       10.78691661452674
_cell_length_c       13.583636630783433
_cell_angle_alpha    102.6418807639117
_cell_angle_beta     97.27886248644363
_cell_angle_gamma    88.09062217946011

_space_group_name_H-M_alt    "P 1"
_space_group_IT_number       1

loop_
  _space_group_symop_operation_xyz
  'x, y, z'

loop_
  _atom_site_type_symbol
  _atom_site_label
  _atom_site_symmetry_multiplicity
  _atom_site_fract_x
  _atom_site_fract_y
  _atom_site_fract_z
  _atom_site_occupancy
  Ag  Ag1       1.0  0.1371019946581029  0.7404426456310488  0.9882864325319571  1.0000
  Ag  Ag2       1.0  0.8734947847596501  0.24878996503564826  0.0058306579768014925  1.0000
  Ag  Ag3       1.0  0.012259679751934994  0.742467737211058  0.4030407960852499  1.0000
  Ag  Ag4       1.0  0.9968925709948946  0.2777017687638478  0.605096746621278  1.0000
  H   H1        1.0  0.474364657921761  0.6848998579025788  0.09633965523034493  1.0000
  H   H2        1.0  0.5238865684848192  0.3063212781151918  0.9043714309629393  1.0000
  H   H3        1.0  0.5551637979854293  0.570002832260343  0.17132846721199962  1.0000
  H   H4        1.0  0.43444769625577345  0.4137085847864768  0.8245826584395031  1.0000
  H   H5        1.0  0.2391511813741332  0.5421708969447465  0.20970081868021848  1.0000
  H   H6        1.0  0.7465400918853575  0.444494314862574  0.7825461001659164  1.0000
  H   H7        1.0  0.1701883187026283  0.7044875884863302  0.21414894629258185  1.0000
  H   H8        1.0  0.8192964113683844  0.2834172565368149  0.7790141365511187  1.0000
  H   H9        1.0  0.8605987095422236  0.6507431799826263  0.12838156191513408  1.0000
  H   H10       1.0  0.1324148551361759  0.3405836503160557  0.8625059780104677  1.0000
  H   H11       1.0  0.9200500794703855  0.48930455533187717  0.12942080962800157  1.0000
  H   H12       1.0  0.0701899718720966  0.5025399154717434  0.8631542793784986  1.0000
  H   H13       1.0  0.2115372125480377  0.39265345623888254  0.05118818986088771  1.0000
  H   H14       1.0  0.7838574365817976  0.595763729616131  0.939635927815736  1.0000
  H   H15       1.0  0.35064746947401904  0.4858557050580643  0.9928401817138093  1.0000
  H   H16       1.0  0.6428140806001821  0.5043063411017314  0.9987269669733504  1.0000
  H   H17       1.0  0.4452447425072847  0.9250561087821862  0.8175768438030385  1.0000
  H   H18       1.0  0.5822982660546926  0.06083638793091241  0.17189414341704176  1.0000
  H   H19       1.0  0.3524677041515575  0.8190155773955684  0.7054625714558255  1.0000
  H   H20       1.0  0.6772077927701119  0.15689897413122375  0.28870195473352567  1.0000
  H   H21       1.0  0.0928351947463213  0.9508638347252756  0.7710624052639756  1.0000
  H   H22       1.0  0.9448553355057497  0.03190501696630581  0.21851057432612456  1.0000
  H   H23       1.0  0.0430650546243214  0.7887483277389009  0.7686865337107063  1.0000
  H   H24       1.0  0.9866441092634516  0.19567719511353232  0.22567108135185515  1.0000
  H   H25       1.0  0.18688894594039598  0.09531936275607929  0.9343233985258407  1.0000
  H   H26       1.0  0.841573064779709  0.8935856602939366  0.056865101702889755  1.0000
  H   H27       1.0  0.36454439494237784  0.9899303342213629  0.9792942162590206  1.0000
  H   H28       1.0  0.663582357259834  0.9991824364176622  0.012859218819357832  1.0000
  H   H29       1.0  0.7954130709898948  0.8544614874304558  0.8681779919568269  1.0000
  H   H30       1.0  0.232092630778105  0.1371045168750769  0.12304111753942948  1.0000
  H   H31       1.0  0.8466909570168966  0.017142183797375286  0.8734288944540791  1.0000
  H   H32       1.0  0.18324522808299554  0.9749185471226268  0.12021674497331951  1.0000
  H   H33       1.0  0.165705986745543  0.45860824977352616  0.3142242022716529  1.0000
  H   H34       1.0  0.8215156749237948  0.5612303150351962  0.6414560214710219  1.0000
  H   H35       1.0  0.012571201708098594  0.3569908754683694  0.36954339971943273  1.0000
  H   H36       1.0  0.9996047946970988  0.6550490366067409  0.6065094348572443  1.0000
  H   H37       1.0  0.7720358944871678  0.43502375631261003  0.4577404278877921  1.0000
  H   H38       1.0  0.3063066208477565  0.5901508877216699  0.6084566379739937  1.0000
  H   H39       1.0  0.7055764339067706  0.5993151384879382  0.47165601370506477  1.0000
  H   H40       1.0  0.37635132243639186  0.42243863885994387  0.6208669866221113  1.0000
  H   H41       1.0  0.8366369289176417  0.9839516370539485  0.3336745001701117  1.0000
  H   H42       1.0  0.9301937223714632  0.0874804979902635  0.7350750624417515  1.0000
  H   H43       1.0  0.9736122663875761  0.11995716755911451  0.4088319735946583  1.0000
  H   H44       1.0  0.7889814527640127  0.949954777869323  0.6493424699297065  1.0000
  H   H45       1.0  0.3788554106848067  0.9164650952954787  0.4515535753451727  1.0000
  H   H46       1.0  0.6473616017800127  0.09500297300260031  0.4649505429946927  1.0000
  H   H47       1.0  0.28582565247710084  0.08127140502060827  0.4437336124094955  1.0000
  H   H48       1.0  0.7175709164471799  0.9412455095260415  0.48608959906704996  1.0000
  C   C1        1.0  0.4574291544859648  0.6517046694533589  0.165936028431318  1.0000
  C   C2        1.0  0.534575774806875  0.3336890617149493  0.8317436576221976  1.0000
  C   C3        1.0  0.243817104866686  0.6216310745776497  0.17115367542587015  1.0000
  C   C4        1.0  0.7460726548500743  0.36578386323662926  0.8224723132062619  1.0000
  C   C5        1.0  0.9199643934443175  0.5631448134600703  0.08440864636720848  1.0000
  C   C6        1.0  0.0725798762765066  0.4275125628322911  0.9071450489130297  1.0000
  C   C7        1.0  0.2015965762609611  0.4685619275846095  0.007616922880714577  1.0000
  C   C8        1.0  0.7921499805294161  0.521047245550612  0.984021955617031  1.0000
  C   C9        1.0  0.34945662180819426  0.8422343007518123  0.7882191229703251  1.0000
  C   C10       1.0  0.6809179742968893  0.14101877302619667  0.20629445783943362  1.0000
  C   C11       1.0  0.13664218425286384  0.8702963693705997  0.8067158094668868  1.0000
  C   C12       1.0  0.8938222134527153  0.1143710134689684  0.18617815811636254  1.0000
  C   C13       1.0  0.20805737208701203  0.015391258226003388  0.9737430455907939  1.0000
  C   C14       1.0  0.8202642077878364  0.974274460235307  0.018199577431850838  1.0000
  C   C15       1.0  0.8799252986639701  0.9372273037105999  0.9121018727740305  1.0000
  C   C16       1.0  0.1487081824873897  0.053402314171975704  0.07988398855542297  1.0000
  C   C17       1.0  0.05266613757368079  0.4520617778838485  0.3626878579203847  1.0000
  C   C18       1.0  0.9310818361757639  0.5603351252391348  0.5887355773849378  1.0000
  C   C19       1.0  0.8290168448963442  0.5329539798795436  0.47906276428560796  1.0000
  C   C20       1.0  0.2630381995544369  0.49427027730575185  0.6115108532876474  1.0000
  C   C21       1.0  0.9169132953042549  0.02495805090157429  0.40820151237406316  1.0000
  C   C22       1.0  0.8589794643825568  0.042573068343188  0.6602567591930111  1.0000
  C   C23       1.0  0.256056593833911  0.9811922294142974  0.4414195123853232  1.0000
  C   C24       1.0  0.773149991129209  0.03610165563677009  0.4861581588692799  1.0000
  S   S1        1.0  0.5513911193398755  0.7795786605163214  0.2679573121547988  1.0000
  S   S2        1.0  0.4399293225384966  0.19864580286245834  0.736557664491549  1.0000
  S   S3        1.0  0.4635269596720519  0.7099808468699821  0.8342448907159365  1.0000
  S   S4        1.0  0.5695274399045047  0.2823361574259735  0.1721566470220138  1.0000
  N   N1        1.0  0.12554717332934465  0.5867804487400504  0.06946063961628106  1.0000
  N   N2        1.0  0.8683919754658689  0.4023295756564593  0.9230091802755495  1.0000
  N   N3        1.0  0.09279451198234767  0.9042191034332416  0.9137401979566419  1.0000
  N   N4        1.0  0.935219796299414  0.08505502475691877  0.07881982836084227  1.0000
  N   N5        1.0  0.9701996124244018  0.5509157964808723  0.4108511349219412  1.0000
  N   N6        1.0  0.0814367938170051  0.46377826479758977  0.6025273104624418  1.0000
  N   N7        1.0  0.0801144263288549  0.9389502279567236  0.42579324496589516  1.0000
  N   N8        1.0  0.8653034136705174  0.09763838876860827  0.5866325796696399  1.0000
  O   O1        1.0  0.4323117212759798  0.8925347634756023  0.2557000912083821  1.0000
  O   O2        1.0  0.5639888542722815  0.09031897578088889  0.7561927635313948  1.0000
  O   O3        1.0  0.5342231818557366  0.7402489941569995  0.36402542000449484  1.0000
  O   O4        1.0  0.4539704550940726  0.2282920203912795  0.6367263790611941  1.0000
  O   O5        1.0  0.7593180318594436  0.7912889031775878  0.2510952641489935  1.0000
  O   O6        1.0  0.23426981875915937  0.1859704954791184  0.7552716791425736  1.0000
  O   O7        1.0  0.5128777531653982  0.7563083150890647  0.9450995011955923  1.0000
  O   O8        1.0  0.5204824430919075  0.2491952772979928  0.060016043733050056  1.0000
  O   O9        1.0  0.314194116152116  0.6083751053268287  0.8089585779935431  1.0000
  O   O10       1.0  0.720909372121831  0.381549300008352  0.2064286031346042  1.0000
  O   O11       1.0  0.6375989146381256  0.6769439068919141  0.7801243088242555  1.0000
  O   O12       1.0  0.39333728375194704  0.3076038243074279  0.22514219661507434  1.0000
