data_image0
_chemical_formula_structural       Rb2P4H22C24O12
_chemical_formula_sum              "Rb2 P4 H22 C24 O12"
_cell_length_a       5.825810319343377
_cell_length_b       7.6930665363349675
_cell_length_c       15.218195527083012
_cell_angle_alpha    101.44855083230748
_cell_angle_beta     92.8899261984402
_cell_angle_gamma    94.0619590707798

_space_group_name_H-M_alt    "P 1"
_space_group_IT_number       1

loop_
  _space_group_symop_operation_xyz
  'x, y, z'

loop_
  _atom_site_type_symbol
  _atom_site_label
  _atom_site_symmetry_multiplicity
  _atom_site_fract_x
  _atom_site_fract_y
  _atom_site_fract_z
  _atom_site_occupancy
  Rb  Rb1       1.0  0.7830293780573355  0.7792957065012871  0.5108569956703519  1.0000
  Rb  Rb2       1.0  0.21698150486164985  0.22070541979480401  0.4891445717253688  1.0000
  P   P1        1.0  0.25499414561377165  0.6903082894272075  0.3393933053899119  1.0000
  P   P2        1.0  0.7450064399965227  0.30969414110423094  0.6606036338239676  1.0000
  P   P3        1.0  0.2967074475687781  0.7852032945407076  0.6695174932552915  1.0000
  P   P4        1.0  0.7032978960845426  0.21479381316194687  0.3304842355852742  1.0000
  H   H1        1.0  0.6634745247474854  0.7794411118928152  0.2502618624753978  1.0000
  H   H2        1.0  0.33651589298249  0.2205625997989102  0.749735705350176  1.0000
  H   H3        1.0  0.9453546180853037  0.5048091320102941  0.3568017382648705  1.0000
  H   H4        1.0  0.05465239644289709  0.49518799213479525  0.6431980469503527  1.0000
  H   H5        1.0  0.7764406691196938  0.6963243008890246  0.09759524549449593  1.0000
  H   H6        1.0  0.2235467070019155  0.3036833875653143  0.9024026796242736  1.0000
  H   H7        1.0  0.5714916726197072  0.5563195646104118  0.6394303343348682  1.0000
  H   H8        1.0  0.42851775569720724  0.44368421545718933  0.36057148048039517  1.0000
  H   H9        1.0  0.1277645615311798  0.3778661637826488  0.022673427110248705  1.0000
  H   H10       1.0  0.8722348181069534  0.622141584965469  0.977323377515752  1.0000
  H   H11       1.0  0.4585899647655012  0.020118243095353705  0.6252371767168582  1.0000
  H   H12       1.0  0.5414082687943989  0.979876166120597  0.3747654805413844  1.0000
  H   H13       1.0  0.012162243753330405  0.46718656474440934  0.1757240288087303  1.0000
  H   H14       1.0  0.9878295800430761  0.532814501828959  0.8242713202997294  1.0000
  H   H15       1.0  0.9058388637691762  0.9812676246801856  0.7343899461504364  1.0000
  H   H16       1.0  0.09416381633404569  0.0187361011552056  0.2656170147694326  1.0000
  H   H17       1.0  0.7693698057898074  0.07711375049759542  0.8828161511361186  1.0000
  H   H18       1.0  0.2306473916657907  0.9228980281032406  0.11719054223853223  1.0000
  H   H19       1.0  0.3433066556765212  0.8521796896007814  0.9990115976129772  1.0000
  H   H20       1.0  0.6567022268449562  0.14781877022961248  0.0009890099195502054  1.0000
  H   H21       1.0  0.4822537214875239  0.7598109752450241  0.8490180886043318  1.0000
  H   H22       1.0  0.5177312551795268  0.24017276204655494  0.1509767035892935  1.0000
  C   C1        1.0  0.32805353657229114  0.6307614309370566  0.224477423987004  1.0000
  C   C2        1.0  0.671934816045997  0.369239625826502  0.7755165555786048  1.0000
  C   C3        1.0  0.5434895160428111  0.6930628956958033  0.20045606134156202  1.0000
  C   C4        1.0  0.456493575320934  0.3069354472952811  0.7995441311075027  1.0000
  C   C5        1.0  0.6085150769205399  0.6433548747691874  0.11302116758437114  1.0000
  C   C6        1.0  0.3914756379749703  0.35665149271456903  0.8869779895313598  1.0000
  C   C7        1.0  0.4634243590878739  0.5279248105636752  0.04627833354646071  1.0000
  C   C8        1.0  0.5365730525098442  0.4720802659499769  0.9537188254147323  1.0000
  C   C9        1.0  0.2472849641126089  0.4671500508670903  0.07128986042017262  1.0000
  C   C10       1.0  0.752720382516564  0.5328484106910096  0.9287067491727468  1.0000
  C   C11       1.0  0.1801616243789468  0.5175487343773285  0.1586531855087898  1.0000
  C   C12       1.0  0.8198254222200347  0.4824563040537484  0.8413418361214438  1.0000
  C   C13       1.0  0.20526867393898127  0.8634728259845661  0.7807673380985207  1.0000
  C   C14       1.0  0.7947139231408256  0.13652154197161076  0.21922849911773307  1.0000
  C   C15       1.0  0.003919615916643741  0.9534061423303798  0.7922155286549923  1.0000
  C   C16       1.0  0.9960786470244897  0.046586907261350084  0.20779356204928223  1.0000
  C   C17       1.0  0.9257525912491003  0.007190233938665399  0.8774124255226069  1.0000
  C   C18       1.0  0.0742599978777179  0.9928122568865448  0.12258339319851072  1.0000
  C   C19       1.0  0.04313386949780812  0.9723393421626696  0.9546427354932091  1.0000
  C   C20       1.0  0.956879308008375  0.027665752535696697  0.0453665003035084  1.0000
  C   C21       1.0  0.24520764737795983  0.8823924160198118  0.9419335802744583  1.0000
  C   C22       1.0  0.7547954664023563  0.11760071174303732  0.05806310856187481  1.0000
  C   C23       1.0  0.32545310267092725  0.8291377121803479  0.8567846323591225  1.0000
  C   C24       1.0  0.6745437248225414  0.1708593421539604  0.14322024361624128  1.0000
  O   O1        1.0  0.4006012829125112  0.5801476563446001  0.39464507513211083  1.0000
  O   O2        1.0  0.5994100163735467  0.419858813263744  0.6053524427528172  1.0000
  O   O3        1.0  0.3108977808555835  0.8874363528599075  0.3768629839831235  1.0000
  O   O4        1.0  0.6890926206958453  0.1125673617162022  0.6231339267432574  1.0000
  O   O5        1.0  0.9925377513637059  0.6376866922318882  0.3424921238713381  1.0000
  O   O6        1.0  0.007468882130368105  0.362306436687625  0.6575079058054171  1.0000
  O   O7        1.0  0.5390469281322225  0.7238426465299598  0.6761915872017993  1.0000
  O   O8        1.0  0.4609516673073982  0.2761544069404919  0.3238152877433649  1.0000
  O   O9        1.0  0.112164795063542  0.6465111473402204  0.6170942534775321  1.0000
  O   O10       1.0  0.8878416736692144  0.35348065656766176  0.3829043244549482  1.0000
  O   O11       1.0  0.29785737546254154  0.9478089239690634  0.6191908820273113  1.0000
  O   O12       1.0  0.702145967793264  0.05218551726789399  0.3808098869500539  1.0000
