data_image0
_chemical_formula_structural       Zn2H22C36N6O14
_chemical_formula_sum              "Zn2 H22 C36 N6 O14"
_cell_length_a       13.253783197811874
_cell_length_b       15.938771844776804
_cell_length_c       17.12022868420496
_cell_angle_alpha    88.66485060684866
_cell_angle_beta     87.17301622926229
_cell_angle_gamma    78.742118659166

_space_group_name_H-M_alt    "P 1"
_space_group_IT_number       1

loop_
  _space_group_symop_operation_xyz
  'x, y, z'

loop_
  _atom_site_type_symbol
  _atom_site_label
  _atom_site_symmetry_multiplicity
  _atom_site_fract_x
  _atom_site_fract_y
  _atom_site_fract_z
  _atom_site_occupancy
  Zn  Zn1       1.0  0.48529353744794435  0.5906857755107139  0.5057480107795413  1.0000
  Zn  Zn2       1.0  0.510810090223984  0.4090583179410671  0.49548606266751694  1.0000
  H   H1        1.0  0.1914691450731567  0.4090475181196567  0.4468394750506448  1.0000
  H   H2        1.0  0.5849274639422717  0.38379045017712343  0.10533012502736479  1.0000
  H   H3        1.0  0.5168546503350413  0.6585106591349115  0.1082475296904377  1.0000
  H   H4        1.0  0.5410452605968104  0.3395813539117042  0.8915332169047828  1.0000
  H   H5        1.0  0.49544623374595176  0.6546547618928854  0.2555099704536445  1.0000
  H   H6        1.0  0.5176451727413179  0.34695430650226194  0.7459430326929706  1.0000
  H   H7        1.0  0.5772218190538682  0.7171538084964552  0.4096131203370277  1.0000
  H   H8        1.0  0.4165725657079804  0.2823012101714042  0.5902001252941389  1.0000
  H   H9        1.0  0.22478185928888916  0.6525080839951583  0.5585379579967977  1.0000
  H   H10       1.0  0.7726664070980573  0.34516625520460303  0.44339082596132323  1.0000
  H   H11       1.0  0.0053207858240184955  0.2973322601389157  0.3906046387919915  1.0000
  H   H12       1.0  0.8054792811784636  0.5898062743151371  0.552265275377053  1.0000
  H   H13       1.0  0.9915521630059201  0.7011406218066794  0.6091756532257192  1.0000
  H   H14       1.0  0.5797124639940067  0.942345998344784  0.4142157148918741  1.0000
  H   H15       1.0  0.41827943852855753  0.056515569371015296  0.5864025802920096  1.0000
  H   H16       1.0  0.6149610371191441  0.11176415633038768  0.3774282438265644  1.0000
  H   H17       1.0  0.38608802907734935  0.8877586284589968  0.6252707399031506  1.0000
  H   H18       1.0  0.6050596698833458  0.27078294654057095  0.3879084364493223  1.0000
  H   H19       1.0  0.39420103738088136  0.728965425808397  0.6147750973359791  1.0000
  H   H20       1.0  0.5406921181098736  0.6119893894109649  0.7439712922941906  1.0000
  H   H21       1.0  0.5642221655130369  0.38015270619506225  0.25204054393555003  1.0000
  H   H22       1.0  0.5659672085721895  0.6043339083624063  0.8888233222512553  1.0000
  C   C1        1.0  0.5121145219334835  0.512058742971135  0.34912829079722474  1.0000
  C   C2        1.0  0.5277192371350451  0.40291185424472786  0.7777850795288188  1.0000
  C   C3        1.0  0.45959798404098956  0.24270636629034925  0.5439205645598902  1.0000
  C   C4        1.0  0.5360800989168268  0.7567986247248581  0.45659719095142043  1.0000
  C   C5        1.0  0.45938919451486987  0.1546710673266745  0.5430554760789263  1.0000
  C   C6        1.0  0.5376810356976378  0.8445852753533528  0.45773738089962984  1.0000
  C   C7        1.0  0.5174413214973157  0.1052770715453946  0.48154955757591716  1.0000
  C   C8        1.0  0.4814538109383548  0.8939788894264353  0.519956615986537  1.0000
  C   C9        1.0  0.5705703329312755  0.14809329088063808  0.4250197646371205  1.0000
  C   C10       1.0  0.4290186311112836  0.8513689390520794  0.5771170488303454  1.0000
  C   C11       1.0  0.565977334196475  0.23498808198029045  0.4305788599263707  1.0000
  C   C12       1.0  0.5066553576795698  0.4881429954118203  0.6515310382643233  1.0000
  C   C13       1.0  0.43249843844265007  0.7646366348953889  0.5714755029589469  1.0000
  C   C14       1.0  0.7034585877160849  0.47578090214079066  0.49611387708202404  1.0000
  C   C15       1.0  0.2940100913255748  0.5217884433489671  0.5045129370866377  1.0000
  C   C16       1.0  0.18065406843953002  0.5265936282828393  0.5073377811993112  1.0000
  C   C17       1.0  0.8166169416606052  0.47182417454839504  0.4924674208823063  1.0000
  C   C18       1.0  0.9886866894433692  0.4000771781816468  0.4470162357428791  1.0000
  C   C19       1.0  0.008390948550619708  0.5987289663181272  0.5521292711595862  1.0000
  C   C20       1.0  0.8828657570201911  0.4017578898003861  0.45546450435556807  1.0000
  C   C21       1.0  0.11436287807196518  0.5966267079123638  0.5443960870897582  1.0000
  C   C22       1.0  0.8574246193635346  0.5367856334574057  0.5238579354961742  1.0000
  C   C23       1.0  0.5656261144668091  0.4424020069783836  0.1388905974290822  1.0000
  C   C24       1.0  0.13961797097076104  0.4620690622694211  0.47530957562167936  1.0000
  C   C25       1.0  0.9644996436815204  0.5340719266825075  0.5193996496278147  1.0000
  C   C26       1.0  0.03252054813422234  0.4649231175375518  0.47951402840931223  1.0000
  C   C27       1.0  0.5274623248008795  0.516998221398907  0.2620663031533041  1.0000
  C   C28       1.0  0.5254409184726471  0.4805258673162385  0.7371106739735964  1.0000
  C   C29       1.0  0.5540705273167176  0.44062657031388147  0.21967353693701597  1.0000
  C   C30       1.0  0.5406429180593192  0.5528524246684511  0.7771833894785729  1.0000
  C   C31       1.0  0.5547810029456527  0.5488147337707828  0.8568983450788323  1.0000
  C   C32       1.0  0.5502556542057561  0.5216939378236702  0.0988199642689338  1.0000
  C   C33       1.0  0.552752200303189  0.47167761253174934  0.8981971260510448  1.0000
  C   C34       1.0  0.5271861628020672  0.5981531779197553  0.14097401144952926  1.0000
  C   C35       1.0  0.5412011821595327  0.3985560177121457  0.8579686248706224  1.0000
  C   C36       1.0  0.5153342118386702  0.5958551177615091  0.2221883313831583  1.0000
  N   N1        1.0  0.5522328500974252  0.5311647054764563  0.016538395612961693  1.0000
  N   N2        1.0  0.5576352520068113  0.46185837719387013  0.9801828311263988  1.0000
  N   N3        1.0  0.5115956152105595  0.2810152797601618  0.489572477287794  1.0000
  N   N4        1.0  0.48482854241814977  0.7186896216996601  0.5116036896474512  1.0000
  N   N5        1.0  0.5248220670696637  0.018265533857231696  0.4739242534178487  1.0000
  N   N6        1.0  0.4747436828396727  0.9808866596059004  0.5276052782609923  1.0000
  O   O1        1.0  0.49242129356451875  0.5820240426199275  0.3868924255017632  1.0000
  O   O2        1.0  0.8480016966771942  0.33509949763115543  0.4254301292635176  1.0000
  O   O3        1.0  0.050449490938881084  0.33442762792917335  0.4080011201447817  1.0000
  O   O4        1.0  0.9464968372797101  0.664315165693985  0.5911713294677128  1.0000
  O   O5        1.0  0.5905839051599103  0.878941321243161  0.4010451149086052  1.0000
  O   O6        1.0  0.4059357131443165  0.12014343255106037  0.5992518389355155  1.0000
  O   O7        1.0  0.5126796986075205  0.4190867585313924  0.6135876078759068  1.0000
  O   O8        1.0  0.5199430813595923  0.437409792048335  0.3792068371388524  1.0000
  O   O9        1.0  0.48602899162949587  0.5636084268685763  0.6228446406813503  1.0000
  O   O10       1.0  0.6448267532253878  0.5474292347291579  0.5073583557614824  1.0000
  O   O11       1.0  0.3521191691259062  0.45005412014822344  0.49255700616645015  1.0000
  O   O12       1.0  0.6727590746378879  0.40460955822374706  0.48656493876784174  1.0000
  O   O13       1.0  0.32560006561321586  0.5923586687048045  0.5154922128206465  1.0000
  O   O14       1.0  0.14922807317503844  0.6627917099501629  0.5753998168626353  1.0000
