data_image0
_chemical_formula_structural       Cd4H40C48Br4N4O12
_chemical_formula_sum              "Cd4 H40 C48 Br4 N4 O12"
_cell_length_a       8.419032428508261
_cell_length_b       9.586877974001517
_cell_length_c       15.404682016043601
_cell_angle_alpha    89.9999418975421
_cell_angle_beta     96.72052194749384
_cell_angle_gamma    90.00003848347033

_space_group_name_H-M_alt    "P 1"
_space_group_IT_number       1

loop_
  _space_group_symop_operation_xyz
  'x, y, z'

loop_
  _atom_site_type_symbol
  _atom_site_label
  _atom_site_symmetry_multiplicity
  _atom_site_fract_x
  _atom_site_fract_y
  _atom_site_fract_z
  _atom_site_occupancy
  Cd  Cd1       1.0  0.3754086708661576  0.5131091706055813  0.7625594348941149  1.0000
  Cd  Cd2       1.0  0.12460052529112894  0.013113181521923407  0.7374392299104073  1.0000
  Cd  Cd3       1.0  0.6245885551306003  0.48689259910032945  0.23744522580171426  1.0000
  Cd  Cd4       1.0  0.87540636473571  0.9868896312842568  0.2625595993749386  1.0000
  H   H1        1.0  0.8998084625942085  0.40581842515977945  0.11479176056868573  1.0000
  H   H2        1.0  0.600193612282176  0.9058213429776032  0.38521165616679554  1.0000
  H   H3        1.0  0.10019121311857052  0.5941760429028592  0.8852091724699421  1.0000
  H   H4        1.0  0.3998096416936079  0.09418042673251392  0.6147901705429462  1.0000
  H   H5        1.0  0.611762464308839  0.8663805615076046  0.8847842246190254  1.0000
  H   H6        1.0  0.8882519699257475  0.36638493755296514  0.6152147067073271  1.0000
  H   H7        1.0  0.3882503959054588  0.1336170358372826  0.1152156617790538  1.0000
  H   H8        1.0  0.11175972322098462  0.633617875255489  0.3847831524215906  1.0000
  H   H9        1.0  0.40644797608684513  0.20721808591412846  0.8367881024410977  1.0000
  H   H10       1.0  0.09357093560432621  0.70722658531804  0.6632091585278204  1.0000
  H   H11       1.0  0.593554110817543  0.7927763821501942  0.163211697003085  1.0000
  H   H12       1.0  0.9064395519462851  0.2927751843971223  0.3367892673986148  1.0000
  H   H13       1.0  0.7736570014997782  0.18033627014411735  0.056671838016505716  1.0000
  H   H14       1.0  0.72634727900018  0.680337082049839  0.44333511488463984  1.0000
  H   H15       1.0  0.22633903816290507  0.8196602840998041  0.9433320924456013  1.0000
  H   H16       1.0  0.2736571709394227  0.3196636445681308  0.5566667935444017  1.0000
  H   H17       1.0  0.5678543105272027  0.06378239871494883  0.949849554427189  1.0000
  H   H18       1.0  0.9321622628218619  0.5637871214494866  0.5501542546071221  1.0000
  H   H19       1.0  0.4321477571141799  0.9362131124407398  0.0501515420491359  1.0000
  H   H20       1.0  0.06784460794197142  0.4362167344480454  0.4498458717103587  1.0000
  H   H21       1.0  0.8028980128347102  0.7831188265815502  0.9665107618842087  1.0000
  H   H22       1.0  0.6971067641482733  0.2831232219486353  0.533490157812814  1.0000
  H   H23       1.0  0.19710041875593728  0.21687668457052922  0.0334933320162136  1.0000
  H   H24       1.0  0.30289769542299894  0.7168775046698743  0.4665111021000072  1.0000
  H   H25       1.0  0.9404293484581885  0.6613917519421764  0.09250588944453136  1.0000
  H   H26       1.0  0.5595749974889159  0.16139439641509065  0.4074958862609179  1.0000
  H   H27       1.0  0.05957152321840912  0.3386016730283218  0.907495125313396  1.0000
  H   H28       1.0  0.4404246782257744  0.8386063302022325  0.5925050467758978  1.0000
  H   H29       1.0  0.8209061259617273  0.8041112154393776  0.7891624586535569  1.0000
  H   H30       1.0  0.6790892888051586  0.30412364880968573  0.7108248248481672  1.0000
  H   H31       1.0  0.17908891999945814  0.19587803716854071  0.2108277712510684  1.0000
  H   H32       1.0  0.3209045804599953  0.6958812501857211  0.2891640263004973  1.0000
  H   H33       1.0  0.6982506730545242  0.9406259415082093  0.741592787923807  1.0000
  H   H34       1.0  0.8017447482969899  0.44063732751015305  0.7583996049130876  1.0000
  H   H35       1.0  0.3017455014498083  0.05936539728109122  0.2584020633127508  1.0000
  H   H36       1.0  0.1982466808822139  0.559369657666828  0.24159232537807182  1.0000
  H   H37       1.0  0.6685370913119186  0.7655721056260562  0.701098963929887  1.0000
  H   H38       1.0  0.8314450286574271  0.26558344228057246  0.7988952251021431  1.0000
  H   H39       1.0  0.33144708502401693  0.23441819006564668  0.2988976641818367  1.0000
  H   H40       1.0  0.16853918621026767  0.7344235428924507  0.20109880893988216  1.0000
  C   C1        1.0  0.40997242493886427  0.8452047610153672  0.7876330513760976  1.0000
  C   C2        1.0  0.09003091780853369  0.34520774949478306  0.7123702012813239  1.0000
  C   C3        1.0  0.5900295945464507  0.1547980517847237  0.21237128767921123  1.0000
  C   C4        1.0  0.9099675137843519  0.6547950633044125  0.28763389261698796  1.0000
  C   C5        1.0  0.833286060086273  0.461280718574841  0.060464401697466  1.0000
  C   C6        1.0  0.6667184118030678  0.9612825434126228  0.4395410920127247  1.0000
  C   C7        1.0  0.16671001810177447  0.53871166330147  0.9395369347009748  1.0000
  C   C8        1.0  0.3332872437326628  0.038719226298638915  0.5604602496187994  1.0000
  C   C9        1.0  0.6338320710939841  0.458204895832246  0.9302635192870028  1.0000
  C   C10       1.0  0.8661787737161505  0.9582095455362991  0.5697390049795175  1.0000
  C   C11       1.0  0.3661675660927912  0.5417916584131107  0.069740007815895  1.0000
  C   C12       1.0  0.13383050823865975  0.041792224178024605  0.4302599877441295  1.0000
  C   C13       1.0  0.5807343426650604  0.8050822312592064  0.8248687815716522  1.0000
  C   C14       1.0  0.9192692903366719  0.3050865263790144  0.6751294496644746  1.0000
  C   C15       1.0  0.4192665386447985  0.19491640917406275  0.17513158466855572  1.0000
  C   C16       1.0  0.0807316295007894  0.6949152433337674  0.3248683225099498  1.0000
  C   C17       1.0  0.6647140309286429  0.6031645157810034  0.9181242302310011  1.0000
  C   C18       1.0  0.8352918702934744  0.10317100120314393  0.5818742809873072  1.0000
  C   C19       1.0  0.3352856447844559  0.39683099537408856  0.0818767028073211  1.0000
  C   C20       1.0  0.1647186076261136  0.8968328546963708  0.4181247934547372  1.0000
  C   C21       1.0  0.4978059502994441  0.25547779042332064  0.8830488362242547  1.0000
  C   C22       1.0  0.002209354906902699  0.7554821386931252  0.6169513943149525  1.0000
  C   C23       1.0  0.5021961173419385  0.7445177207323682  0.11695226025207009  1.0000
  C   C24       1.0  0.9977987599790624  0.24452067411498044  0.383045571140741  1.0000
  C   C25       1.0  0.7002789217065626  0.24028802768642527  0.0067402997035017845  1.0000
  C   C26       1.0  0.7997230710185406  0.7402929736033884  0.4932619155413889  1.0000
  C   C27       1.0  0.2997171372194387  0.7597085265585904  0.9932623337261717  1.0000
  C   C28       1.0  0.2002814270796947  0.25970879610974873  0.5067367503062599  1.0000
  C   C29       1.0  0.5879894127733606  0.17576985468680562  0.9478522207391437  1.0000
  C   C30       1.0  0.9120212108391783  0.6757735186745608  0.5521537091273387  1.0000
  C   C31       1.0  0.4120102340460292  0.824229828836437  0.05215065784663149  1.0000
  C   C32       1.0  0.087985631029035  0.32422825103645186  0.44784836273939993  1.0000
  C   C33       1.0  0.7239172186984604  0.38611027765600897  0.0008574714813321062  1.0000
  C   C34       1.0  0.7760812851065283  0.8861151992994253  0.4991437659232504  1.0000
  C   C35       1.0  0.27608004582270235  0.6138841904049457  0.9991445951517335  1.0000
  C   C36       1.0  0.22392080180041063  0.11388761350447402  0.5008560335185308  1.0000
  C   C37       1.0  0.7753152090064148  0.6733698388038081  0.9756055768290964  1.0000
  C   C38       1.0  0.7246930789963457  0.17337009384419133  0.5243962998883234  1.0000
  C   C39       1.0  0.2246844570743818  0.32662358616584447  0.024396004726050104  1.0000
  C   C40       1.0  0.27531257653875235  0.8266295896821704  0.4756050417438047  1.0000
  C   C41       1.0  0.8565456269415249  0.6017498236821837  0.04775819237295308  1.0000
  C   C42       1.0  0.6434634855857128  0.10175557414505221  0.4522426475998742  1.0000
  C   C43       1.0  0.14345760776805608  0.3982425581948307  0.9522449313719363  1.0000
  C   C44       1.0  0.356543375545506  0.8982451524746013  0.5477581272347294  1.0000
  C   C45       1.0  0.6997268129645704  0.8300247486906472  0.7595648056976074  1.0000
  C   C46       1.0  0.800267325396696  0.33003303447868865  0.7404288662914809  1.0000
  C   C47       1.0  0.30026695034879936  0.16996867628186865  0.2404311791327771  1.0000
  C   C48       1.0  0.1997252804823688  0.669970821420165  0.2595644427520227  1.0000
  Br  Br1       1.0  0.48457640650850925  0.5281183854521674  0.6135502057146454  1.0000
  Br  Br2       1.0  0.015400575226116998  0.0280960037847393  0.8864417044077655  1.0000
  Br  Br3       1.0  0.515413672605085  0.4719052891949645  0.3864520191121983  1.0000
  Br  Br4       1.0  0.9845657579658749  0.9718995073701681  0.11354721275524328  1.0000
  N   N1        1.0  0.5206746906648193  0.391719238805024  0.8738454843245195  1.0000
  N   N2        1.0  0.9793385342346071  0.8917228205809452  0.6261552962064911  1.0000
  N   N3        1.0  0.4793237794527911  0.6082773154416687  0.1261560155107233  1.0000
  N   N4        1.0  0.020670766983840797  0.10827999222691186  0.3738423994844169  1.0000
  O   O1        1.0  0.3892409394250222  0.9750322250959872  0.7730427551980483  1.0000
  O   O2        1.0  0.11076126763607162  0.47503520193011184  0.7269616378377465  1.0000
  O   O3        1.0  0.610762276024438  0.024970587704402202  0.226961665576269  1.0000
  O   O4        1.0  0.8892335568020188  0.524970740144447  0.2730435079350926  1.0000
  O   O5        1.0  0.5765836678207635  0.6593079559935265  0.8469564122893941  1.0000
  O   O6        1.0  0.9234210333081663  0.15931541975925262  0.6530445788690926  1.0000
  O   O7        1.0  0.4234148022968471  0.3406885982531663  0.15304508754584842  1.0000
  O   O8        1.0  0.07658703341981268  0.8406884361385781  0.34695562916738965  1.0000
  O   O9        1.0  0.3015630781523768  0.7536233089894183  0.7735319438238761  1.0000
  O   O10       1.0  0.19843784545332  0.2536284264745846  0.7264692527061385  1.0000
  O   O11       1.0  0.6984341478447007  0.24637950380893875  0.22647271687165474  1.0000
  O   O12       1.0  0.8015593901770189  0.7463796017865506  0.2735347594716586  1.0000
