data_image0
_chemical_formula_structural       Cu6H60C36N18
_chemical_formula_sum              "Cu6 H60 C36 N18"
_cell_length_a       12.266758445194823
_cell_length_b       12.26439220012427
_cell_length_c       12.3132
_cell_angle_alpha    106.2331115075624
_cell_angle_beta     106.2298936173494
_cell_angle_gamma    106.12157922148658

_space_group_name_H-M_alt    "P 1"
_space_group_IT_number       1

loop_
  _space_group_symop_operation_xyz
  'x, y, z'

loop_
  _atom_site_type_symbol
  _atom_site_label
  _atom_site_symmetry_multiplicity
  _atom_site_fract_x
  _atom_site_fract_y
  _atom_site_fract_z
  _atom_site_occupancy
  Cu  Cu1       1.0  0.022451229628018224  0.3996313994098486  0.8874203500728016  1.0000
  Cu  Cu2       1.0  0.887729829811576  0.023328708476562095  0.40015345956342674  1.0000
  Cu  Cu3       1.0  0.3996817378042151  0.8878450587271303  0.022565758364152158  1.0000
  Cu  Cu4       1.0  0.9775484603029339  0.6003676542594576  0.11257962495247394  1.0000
  Cu  Cu5       1.0  0.11227057057119791  0.9766721863030412  0.5998464137769658  1.0000
  Cu  Cu6       1.0  0.600318801174275  0.112153994942183  0.9774344530681702  1.0000
  H   H1        1.0  0.3161803744993036  0.9089938926210762  0.27348807931326746  1.0000
  H   H2        1.0  0.2734614673345703  0.3160394689417529  0.908877591445588  1.0000
  H   H3        1.0  0.9089953115161149  0.2737933522419524  0.31591917517179263  1.0000
  H   H4        1.0  0.6838205197050938  0.0910060816033749  0.7265116752083357  1.0000
  H   H5        1.0  0.7265380840006586  0.6839614258378504  0.09112366976090407  1.0000
  H   H6        1.0  0.09100508886665884  0.7262075425376509  0.6840815103051768  1.0000
  H   H7        1.0  0.155744568158525  0.8558115808024453  0.23725610057329052  1.0000
  H   H8        1.0  0.23757710343716099  0.1556299733152784  0.8559095540376873  1.0000
  H   H9        1.0  0.8558480292252211  0.23772784278355624  0.15600926820801672  1.0000
  H   H10       1.0  0.8442563260458797  0.144188393422013  0.7627444660848752  1.0000
  H   H11       1.0  0.762423296945613  0.8443709214643248  0.14408950716614297  1.0000
  H   H12       1.0  0.14415201593163826  0.762272131440902  0.8439910620431021  1.0000
  H   H13       1.0  0.2377635109885361  0.0655232740882568  0.23023643063849872  1.0000
  H   H14       1.0  0.23042914554144997  0.2377315250041363  0.06475011117012741  1.0000
  H   H15       1.0  0.0654175868409581  0.2304287610413667  0.23786326556486873  1.0000
  H   H16       1.0  0.7622373832158685  0.9344767001362014  0.769764136019667  1.0000
  H   H17       1.0  0.7695705443895021  0.762267528665177  0.935249863855148  1.0000
  H   H18       1.0  0.9345816092683562  0.7695712131830916  0.7621360161426409  1.0000
  H   H19       1.0  0.13021408247153218  0.9550824064947888  0.08275409894702081  1.0000
  H   H20       1.0  0.08250357934235808  0.1301241519215424  0.954839204819585  1.0000
  H   H21       1.0  0.9550845991358016  0.0825332920517141  0.13043510301599065  1.0000
  H   H22       1.0  0.8697859626853273  0.0449175677296694  0.9172470434406677  1.0000
  H   H23       1.0  0.9174971762663232  0.8698776634132058  0.04515939947351909  1.0000
  H   H24       1.0  0.044915446021057896  0.9174666821727442  0.8695644150985586  1.0000
  H   H25       1.0  0.2904080354397749  0.0043560669446379  0.11506412013035568  1.0000
  H   H26       1.0  0.1147314401894448  0.2903937231660265  0.004071746402885898  1.0000
  H   H27       1.0  0.004348688386599506  0.1146956476966565  0.2900804813189666  1.0000
  H   H28       1.0  0.7095920097170846  0.9956439072798133  0.8849370222573397  1.0000
  H   H29       1.0  0.8852674006939621  0.7096053305032867  0.9959271800787733  1.0000
  H   H30       1.0  0.9956510015443526  0.8853034059726567  0.7099186815697465  1.0000
  H   H31       1.0  0.2791874836493093  0.6310156966913993  0.8048019211965425  1.0000
  H   H32       1.0  0.8042844392758751  0.2793194447754884  0.6306739709841906  1.0000
  H   H33       1.0  0.630915971922171  0.8044841876003446  0.279210514059457  1.0000
  H   H34       1.0  0.7208129167334645  0.368985198088204  0.19519795214385735  1.0000
  H   H35       1.0  0.1957156058809844  0.7206805294489698  0.3693263592669353  1.0000
  H   H36       1.0  0.3690849222822265  0.1955157866241137  0.7207900525987085  1.0000
  H   H37       1.0  0.21935166634623465  0.4853903166885373  0.8129520440372386  1.0000
  H   H38       1.0  0.8128773693346004  0.21933699210307367  0.48567372527396196  1.0000
  H   H39       1.0  0.4853735925203749  0.8128971410676015  0.2195612737402541  1.0000
  H   H40       1.0  0.7806480235847174  0.5146087369807759  0.18704711885146708  1.0000
  H   H41       1.0  0.187121826774721  0.7806629821213775  0.5143255564335476  1.0000
  H   H42       1.0  0.5146264526364845  0.1871028331568496  0.7804398686474343  1.0000
  H   H43       1.0  0.448730243680167  0.5555062403936191  0.8630426391726402  1.0000
  H   H44       1.0  0.8628237129830649  0.44889030520185  0.5556785942089987  1.0000
  H   H45       1.0  0.5555271320307043  0.8627249499390146  0.44814697799549214  1.0000
  H   H46       1.0  0.5512698014766925  0.4444937338308392  0.13695850321504818  1.0000
  H   H47       1.0  0.1371742788528039  0.5511087484674633  0.444320908002183  1.0000
  H   H48       1.0  0.4444732683520626  0.1372759448405887  0.5518537074814771  1.0000
  H   H49       1.0  0.41769447754114  0.5460898818186521  0.9938332888493163  1.0000
  H   H50       1.0  0.9941076241713274  0.4177166257822975  0.5464043296336027  1.0000
  H   H51       1.0  0.5461300401306985  0.9942050795886742  0.4176485743123948  1.0000
  H   H52       1.0  0.5823043633422741  0.4539091718506612  0.006166449768919352  1.0000
  H   H53       1.0  0.005890229068818106  0.5822842689973058  0.453595646622226  1.0000
  H   H54       1.0  0.4538712092996063  0.005795815190921899  0.5823523475716215  1.0000
  H   H55       1.0  0.4746905511025686  0.6916940890531862  0.984463455166626  1.0000
  H   H56       1.0  0.9845342146107611  0.474854563057633  0.691446493800356  1.0000
  H   H57       1.0  0.6916564957402185  0.9844923022571237  0.4744235828443947  1.0000
  H   H58       1.0  0.5253082897808453  0.3083049646161271  0.01553628345160969  1.0000
  H   H59       1.0  0.01546448767692968  0.5251463317219631  0.3085537188625196  1.0000
  H   H60       1.0  0.3083447536900934  0.0155085925224796  0.5255773390396214  1.0000
  C   C1        1.0  0.20682120944960045  0.7621404920552094  0.10072266941693193  1.0000
  C   C2        1.0  0.10060064848725148  0.20646394895982917  0.7621097118452197  1.0000
  C   C3        1.0  0.7621392542821396  0.10078421835019918  0.20672695439268554  1.0000
  C   C4        1.0  0.7931784804813516  0.2378585616141038  0.8992764934717741  1.0000
  C   C5        1.0  0.8994006009430604  0.793536945819774  0.23789039790221977  1.0000
  C   C6        1.0  0.23786128469635057  0.899214835319107  0.7932732570396368  1.0000
  C   C7        1.0  0.22580448330757716  0.8777612976722722  0.19889982657552002  1.0000
  C   C8        1.0  0.19879826502447878  0.22558479987004176  0.8776200509562456  1.0000
  C   C9        1.0  0.87774772167198  0.1990783350340379  0.2257453152735636  1.0000
  C   C10       1.0  0.7741955618492822  0.1222386765521861  0.8010996915390292  1.0000
  C   C11       1.0  0.8012024905842026  0.7744170154647065  0.1223793654734281  1.0000
  C   C12       1.0  0.12225317253241741  0.8009216391904204  0.7742544392480326  1.0000
  C   C13       1.0  0.22073255414712625  0.9818042812346519  0.1542931036372863  1.0000
  C   C14       1.0  0.1541285005722344  0.2206460215188173  0.981380973878224  1.0000
  C   C15       1.0  0.9817728587361928  0.1541966689550094  0.2207255919539364  1.0000
  C   C16       1.0  0.7792683400572783  0.0181956929898064  0.8457074630208794  1.0000
  C   C17       1.0  0.8458684255859055  0.779350270485061  0.018615026245726075  1.0000
  C   C18       1.0  0.01822718642066688  0.8458033052694489  0.7792747382971825  1.0000
  C   C19       1.0  0.23048857171730924  0.6345358995646676  0.9576262489734901  1.0000
  C   C20       1.0  0.9577051194718249  0.2306414092797837  0.6346255170594829  1.0000
  C   C21       1.0  0.6344577091595126  0.9578707680280303  0.23071156771231924  1.0000
  C   C22       1.0  0.7695102691660978  0.3654631541046456  0.04237348964474559  1.0000
  C   C23       1.0  0.04229612995847985  0.7693594854998124  0.3653745926879566  1.0000
  C   C24       1.0  0.3655426912232613  0.0421301267515659  0.769289117764643  1.0000
  C   C25       1.0  0.2809833569102267  0.5823459461919995  0.8678565855482319  1.0000
  C   C26       1.0  0.8676986975963672  0.281127415079645  0.5823463171163823  1.0000
  C   C27       1.0  0.5822975220610473  0.8679085959587239  0.28109805475411065  1.0000
  C   C28       1.0  0.7190166882466328  0.41765402803245877  0.13214374470289406  1.0000
  C   C29       1.0  0.13230085373886166  0.7188734796999583  0.41765413195354023  1.0000
  C   C30       1.0  0.4177040825951721  0.1320932193760171  0.7189040344923113  1.0000
  C   C31       1.0  0.4132673487740419  0.5943656347161266  0.9307711556575599  1.0000
  C   C32       1.0  0.9307739314842961  0.41338909604714047  0.5944329550154704  1.0000
  C   C33       1.0  0.5943716864262569  0.9308009234434778  0.41300282106838176  1.0000
  C   C34       1.0  0.5867331902044483  0.4056334189531867  0.0692290557747625  1.0000
  C   C35       1.0  0.06922561985093267  0.5866117987324627  0.405567494054452  1.0000
  C   C36       1.0  0.4056295630040551  0.0691999713361255  0.5869989129521967  1.0000
  N   N1        1.0  0.11879498202964096  0.6516416552631696  0.06737101113976249  1.0000
  N   N2        1.0  0.06756631532859808  0.1185573765285994  0.6518904918974825  1.0000
  N   N3        1.0  0.6517187755809601  0.0672318244367887  0.1186933382092406  1.0000
  N   N4        1.0  0.881203858853773  0.3483573984061437  0.9326279153418966  1.0000
  N   N5        1.0  0.9324352893276213  0.8814444388061489  0.34810834880266134  1.0000
  N   N6        1.0  0.34828042052835423  0.9327681497876696  0.8813067556348314  1.0000
  N   N7        1.0  0.13452233121306278  0.5695262952471438  0.9756532795675383  1.0000
  N   N8        1.0  0.9759814638540688  0.1346229049136127  0.5698652564202646  1.0000
  N   N9        1.0  0.5695530762659117  0.9756466878718655  0.13463426840750972  1.0000
  N   N10       1.0  0.8654756606228133  0.4304727584221695  0.0243454105070811  1.0000
  N   N11       1.0  0.02401893652869802  0.8653779898659906  0.4301338047835658  1.0000
  N   N12       1.0  0.4304478179384929  0.0243532863525928  0.865366298250656  1.0000
  N   N13       1.0  0.2778805770782569  0.7553615239697606  0.03360469092058342  1.0000
  N   N14       1.0  0.033407915091586894  0.2777904026801679  0.7551742525862012  1.0000
  N   N15       1.0  0.755276803492478  0.033940868184466  0.27801406596765327  1.0000
  N   N16       1.0  0.7221194680786026  0.2446384502546906  0.9663956393305426  1.0000
  N   N17       1.0  0.9665924852911869  0.7222104920994354  0.24482562075419878  1.0000
  N   N18       1.0  0.2447235968902959  0.9660600265951301  0.7219874316458856  1.0000
