data_image0
_chemical_formula_structural       Hf6H44C44N4O32
_chemical_formula_sum              "Hf6 H44 C44 N4 O32"
_cell_length_a       12.541814196164609
_cell_length_b       16.683523124786554
_cell_length_c       16.76970179829787
_cell_angle_alpha    82.05361240903501
_cell_angle_beta     67.34547118894034
_cell_angle_gamma    68.26750946648104

_space_group_name_H-M_alt    "P 1"
_space_group_IT_number       1

loop_
  _space_group_symop_operation_xyz
  'x, y, z'

loop_
  _atom_site_type_symbol
  _atom_site_label
  _atom_site_symmetry_multiplicity
  _atom_site_fract_x
  _atom_site_fract_y
  _atom_site_fract_z
  _atom_site_occupancy
  Hf  Hf1       1.0  0.0441167027258516  0.03333633727599759  0.8881138408218803  1.0000
  Hf  Hf2       1.0  0.05130989502635689  0.8672127209001771  0.040417606024760695  1.0000
  Hf  Hf3       1.0  0.8186290910608064  0.17921366885940426  0.054721097063818974  1.0000
  Hf  Hf4       1.0  0.8227565184906566  0.009903125458137702  0.2066038073694898  1.0000
  Hf  Hf5       1.0  0.7723696024781005  0.9944059454521081  0.016107410441826127  1.0000
  Hf  Hf6       1.0  0.09696276614903349  0.05196937494202561  0.0777040024399867  1.0000
  H   H1        1.0  0.8310964784541426  0.0034003494652524047  0.5560025554724958  1.0000
  H   H2        1.0  0.6894888138217111  0.003287317225264995  0.4703796711302245  1.0000
  H   H3        1.0  0.041842593342714465  0.013532116808527  0.5399448360147261  1.0000
  H   H4        1.0  0.18457234112894133  0.007611009692467996  0.6284632022177591  1.0000
  H   H5        1.0  0.8537608225546053  0.5282256732660644  0.991652369745978  1.0000
  H   H6        1.0  0.7017337018723354  0.4403498375022182  0.01448649229021016  1.0000
  H   H7        1.0  0.02088305604048903  0.518381454690207  0.09227095002665923  1.0000
  H   H8        1.0  0.17307184822590926  0.6045643448736228  0.07528715243403641  1.0000
  H   H9        1.0  0.24258714427516262  0.9255767101050979  0.9238048479589908  1.0000
  H   H10       1.0  0.8137796054726606  0.8653293999103512  0.14148832300693925  1.0000
  H   H11       1.0  0.868453312563858  0.1570670696054037  0.2108485976289883  1.0000
  H   H12       1.0  0.8004105448802007  0.14791302613117815  0.9072213313886907  1.0000
  H   H13       1.0  0.9988611736109901  0.7359716085171257  0.1341702739125807  1.0000
  H   H14       1.0  0.9436562580892411  0.8315313222373817  0.22175288870620602  1.0000
  H   H15       1.0  0.6211380435562007  0.11658081258295284  0.3145147266109305  1.0000
  H   H16       1.0  0.7074958255704261  0.32351810553118554  0.1546768561962962  1.0000
  H   H17       1.0  0.8487298631821573  0.30488241920424747  0.9476224665805973  1.0000
  H   H18       1.0  0.024120768318191172  0.1253933435874472  0.7450754366635479  1.0000
  H   H19       1.0  0.16780732236514223  0.9218330596992815  0.7615832962217723  1.0000
  H   H20       1.0  0.26601538705034483  0.735221881263584  0.9476543911638161  1.0000
  H   H21       1.0  0.6055172985317581  0.28922534524232896  0.15388941284536628  1.0000
  H   H22       1.0  0.11348893464200671  0.14970444185293988  0.7759691567092659  1.0000
  H   H23       1.0  0.14892658053609142  0.7360136107019527  0.9304654776043932  1.0000
  H   H24       1.0  0.9142221259869744  0.885829531724461  0.3046914412433281  1.0000
  H   H25       1.0  0.21038393109510176  0.26560254071662825  0.08503404897963657  1.0000
  H   H26       1.0  0.9682470465790515  0.39596283034307317  0.07253865955081551  1.0000
  H   H27       1.0  0.47746811802560535  0.33432875050907274  0.06895798745799907  1.0000
  H   H28       1.0  0.3897367010861927  0.2062671413112938  0.018580368568883888  1.0000
  H   H29       1.0  0.47569420859252853  0.8403639476921969  0.08164185624935538  1.0000
  H   H30       1.0  0.3858544132741882  0.7077920310044448  0.04271827835625431  1.0000
  H   H31       1.0  0.657491608114846  0.7803939924449281  0.016847123473944167  1.0000
  H   H32       1.0  0.9158128057914253  0.6484828859889974  0.9940128273296978  1.0000
  H   H33       1.0  0.35652611918966665  0.6081710924706699  0.09636436297625289  1.0000
  H   H34       1.0  0.5155364069468789  0.43311789365628073  0.005249985794407115  1.0000
  H   H35       1.0  0.2158716213550136  0.0493548549792067  0.291492646098483  1.0000
  H   H36       1.0  0.010836325383465328  0.9817016218325422  0.4115299607216373  1.0000
  H   H37       1.0  0.39436502036135573  0.9794503460452193  0.22960745067319266  1.0000
  H   H38       1.0  0.49724824617424446  0.011510360542786195  0.35651567461124506  1.0000
  H   H39       1.0  0.46811715026456097  0.0746684267265252  0.862072647110658  1.0000
  H   H40       1.0  0.36679654125259725  0.026718796443645897  0.7423132413781701  1.0000
  H   H41       1.0  0.6485976235149807  0.9956079030559196  0.808815079425969  1.0000
  H   H42       1.0  0.8795135354660533  0.026506514221068783  0.6743478217809908  1.0000
  H   H43       1.0  0.3699815413905441  0.9903487544586866  0.6458954817356571  1.0000
  H   H44       1.0  0.5001795246094218  0.03024130826555901  0.4569572199756635  1.0000
  C   C1        1.0  0.6676454364435784  0.011748398440836604  0.6738482318281527  1.0000
  C   C2        1.0  0.7353221624153861  0.007953930548637796  0.5847495666362974  1.0000
  C   C3        1.0  0.6621355648641156  0.006298419444064496  0.5401124567809106  1.0000
  C   C4        1.0  0.5472786799107041  0.008202040429566206  0.6012614219022437  1.0000
  C   C5        1.0  0.2021711335650664  0.016175634824684  0.4240960280568373  1.0000
  C   C6        1.0  0.1363797241835272  0.0119269924284282  0.5126002378251897  1.0000
  C   C7        1.0  0.20984958969064138  0.010147194514274802  0.5586576991927572  1.0000
  C   C8        1.0  0.3227807615365207  0.013626396991718095  0.4990162007427942  1.0000
  C   C9        1.0  0.6852543618097472  0.6438174134689943  0.021792224852312376  1.0000
  C   C10       1.0  0.7545355220807154  0.5555078113262581  0.009065462495172366  1.0000
  C   C11       1.0  0.6759625124490326  0.5098100803376157  0.020104775628858783  1.0000
  C   C12       1.0  0.5560299588241049  0.5695924592291279  0.04052375903984281  1.0000
  C   C13       1.0  0.18671425317564425  0.4016932639746074  0.07131640671946124  1.0000
  C   C14       1.0  0.11899109659562859  0.4903381744981985  0.07971009503296503  1.0000
  C   C15       1.0  0.19770975231777746  0.5351017818425986  0.07188435023201825  1.0000
  C   C16       1.0  0.3158150935395128  0.4744244413928911  0.057751857350019954  1.0000
  C   C17       1.0  0.8525111664169388  0.007245792672612997  0.8105232841633027  1.0000
  C   C18       1.0  0.29740640604082796  0.8620137850979858  0.07006244960380302  1.0000
  C   C19       1.0  0.8721974352233485  0.7874903422471534  0.9953989879569818  1.0000
  C   C20       1.0  0.27907455866721875  0.07758173794178451  0.8907665976354054  1.0000
  C   C21       1.0  0.0052039073870488875  0.2576949826212456  0.08446493837183061  1.0000
  C   C22       1.0  0.5795487467513851  0.9825345440990674  0.2032983754686413  1.0000
  C   C23       1.0  0.0283345236633679  0.020603067122017597  0.27954968109107636  1.0000
  C   C24       1.0  0.5621804779590605  0.17947187014532062  0.041044576965695995  1.0000
  C   C25       1.0  0.1475357199583626  0.32995066910041976  0.0790468821447163  1.0000
  C   C26       1.0  0.03687900309136437  0.33491414864018765  0.07970781889314082  1.0000
  C   C27       1.0  0.4087923245810714  0.3195096932147977  0.05523043806687158  1.0000
  C   C28       1.0  0.4401990888706138  0.2355950061789542  0.0381719681895021  1.0000
  C   C29       1.0  0.42305904522096693  0.8081047958734829  0.06852070967241987  1.0000
  C   C30       1.0  0.457419178452696  0.7239254239640475  0.0509493964808172  1.0000
  C   C31       1.0  0.7249217407281066  0.71548504153634  0.012458827528860131  1.0000
  C   C32       1.0  0.841639395801117  0.7101466324993667  0.9982911709726993  1.0000
  C   C33       1.0  0.4412785636194485  0.557253543035749  0.06069192858745956  1.0000
  C   C34       1.0  0.43117151617244076  0.4850637503290756  0.039789582345726236  1.0000
  C   C35       1.0  0.16445643809750268  0.0250756561032901  0.3521845081212689  1.0000
  C   C36       1.0  0.06610467061424428  0.007749616743090798  0.35420305240451466  1.0000
  C   C37       1.0  0.45199167080846786  0.9890526914308778  0.2592609562815511  1.0000
  C   C38       1.0  0.4218319625157817  0.006592944094840901  0.34298121790931907  1.0000
  C   C39       1.0  0.408691331308873  0.0644807773953673  0.8344093181578387  1.0000
  C   C40       1.0  0.4414719704061483  0.034580790594894495  0.7545686044611841  1.0000
  C   C41       1.0  0.7072606735362115  0.0071788053519128  0.744025960926237  1.0000
  C   C42       1.0  0.815731038320756  0.013857534202074393  0.7362924606658368  1.0000
  C   C43       1.0  0.4416752477968444  0.004756100031947602  0.5899654220955739  1.0000
  C   C44       1.0  0.42746039240642375  0.0162818614836553  0.5121050905236615  1.0000
  N   N1        1.0  0.5503966910580402  0.013513057814456898  0.6835514281660835  1.0000
  N   N2        1.0  0.3175106354515903  0.0162603836066495  0.4160337680075373  1.0000
  N   N3        1.0  0.5622516856931551  0.6518709062637742  0.041495082561894533  1.0000
  N   N4        1.0  0.30796760649798216  0.3926381827622905  0.058020091033526525  1.0000
  O   O1        1.0  0.95406535930708  0.01937890961555411  0.7962867488834674  1.0000
  O   O2        1.0  0.7817688376905774  0.9912565549573035  0.8847836488891404  1.0000
  O   O3        1.0  0.23445482416156674  0.823912723092839  0.05557428283897541  1.0000
  O   O4        1.0  0.2617218011904612  0.9423957829040931  0.0846340047989003  1.0000
  O   O5        1.0  0.9796500330357814  0.7751075370586307  0.9965712464275855  1.0000
  O   O6        1.0  0.7904538477490917  0.8614610183060166  0.9962805212661435  1.0000
  O   O7        1.0  0.201372501774749  0.08818123038487609  0.854808082597188  1.0000
  O   O8        1.0  0.25456226684725175  0.07357796444576792  0.9723653753346256  1.0000
  O   O9        1.0  0.18817982840469222  0.9590268991814455  0.7887631755016002  1.0000
  O   O10       1.0  0.02962068950820652  0.14905684661667348  0.7929715089132685  1.0000
  O   O11       1.0  0.19802506961063657  0.7708296904354627  0.929427221716125  1.0000
  O   O12       1.0  0.040138640205640286  0.7734514326806945  0.13840246254440564  1.0000
  O   O13       1.0  0.9628130982675103  0.948191895963376  0.9609878811814598  1.0000
  O   O14       1.0  0.15784334366711752  0.9534570231259071  0.9615093069373514  1.0000
  O   O15       1.0  0.9021781133010619  0.2703890458763496  0.07666788068843998  1.0000
  O   O16       1.0  0.08081856386135661  0.1840132539548662  0.09412369913943759  1.0000
  O   O17       1.0  0.6493898329072395  0.9855175266227293  0.24094575306076382  1.0000
  O   O18       1.0  0.611415085753265  0.9745025762470122  0.12173809788186665  1.0000
  O   O19       1.0  0.9354039087833  0.9998133820813069  0.2900072434108906  1.0000
  O   O20       1.0  0.08911056063450931  0.0511773533701287  0.20948179425644753  1.0000
  O   O21       1.0  0.617318251178233  0.21246805837350283  0.07015253656918218  1.0000
  O   O22       1.0  0.6055625018672045  0.10268970091694034  0.011836454315378801  1.0000
  O   O23       1.0  0.678076629136001  0.2747605675128498  0.16972856707507586  1.0000
  O   O24       1.0  0.7855619141679071  0.27868037246682315  0.9712445291785486  1.0000
  O   O25       1.0  0.7075511265688235  0.09151131075292801  0.30710263691340595  1.0000
  O   O26       1.0  0.8752561287959252  0.8760343648511935  0.26816810742657543  1.0000
  O   O27       1.0  0.8895258233366761  0.12135397349967998  0.16216021584322954  1.0000
  O   O28       1.0  0.7723880482162926  0.06864430713274321  0.10371527052889457  1.0000
  O   O29       1.0  0.9999507182952527  0.1063788766983009  0.9978002819854197  1.0000
  O   O30       1.0  0.8514554933068651  0.9080688240784982  0.11341028772417161  1.0000
  O   O31       1.0  0.8394088408459268  0.10810368706352588  0.944211677688905  1.0000
  O   O32       1.0  0.010328840110595514  0.9628857437405999  0.1196384968668198  1.0000
