data_image0
_chemical_formula_structural       Cu2Hg2H8C20S8N12
_chemical_formula_sum              "Cu2 Hg2 H8 C20 S8 N12"
_cell_length_a       8.227229206403928
_cell_length_b       8.227128919467312
_cell_length_c       12.053655412437145
_cell_angle_alpha    84.10148170258806
_cell_angle_beta     84.10259415294877
_cell_angle_gamma    87.7088349137675

_space_group_name_H-M_alt    "P 1"
_space_group_IT_number       1

loop_
  _space_group_symop_operation_xyz
  'x, y, z'

loop_
  _atom_site_type_symbol
  _atom_site_label
  _atom_site_symmetry_multiplicity
  _atom_site_fract_x
  _atom_site_fract_y
  _atom_site_fract_z
  _atom_site_occupancy
  Cu  Cu1       1.0  0.8687901936878434  0.09571613832491722  0.629481856687697  1.0000
  Cu  Cu2       1.0  0.09571192338808737  0.8687814464993127  0.12947817163011874  1.0000
  Hg  Hg1       1.0  0.3824195246946759  0.6282186845944153  0.7556680659425439  1.0000
  Hg  Hg2       1.0  0.62822898112303  0.3824249606949408  0.2556690074823251  1.0000
  H   H1        1.0  0.06162085017186309  0.1996484357410609  0.4142417871990531  1.0000
  H   H2        1.0  0.1996453918534016  0.061629751163259534  0.9142397733227626  1.0000
  H   H3        1.0  0.17352908491970007  0.4603315247375478  0.31393966138634255  1.0000
  H   H4        1.0  0.4603167013076471  0.17353340863792252  0.8139315116506508  1.0000
  H   H5        1.0  0.9791847920787334  0.7055520962622666  0.6025620713964555  1.0000
  H   H6        1.0  0.7055359788076104  0.9791833486445969  0.10255423972908763  1.0000
  H   H7        1.0  0.8737688978240499  0.4356387052458787  0.689857356548728  1.0000
  H   H8        1.0  0.4356313145251106  0.8737763064325962  0.18984883401000724  1.0000
  C   C1        1.0  0.04632721394190038  0.3149967332705544  0.45188662425346837  1.0000
  C   C2        1.0  0.3149764905864956  0.04633125844997471  0.9518854506118968  1.0000
  C   C3        1.0  0.1090005885331564  0.45932550557048313  0.3971836255382115  1.0000
  C   C4        1.0  0.4593017841856124  0.10899977828588452  0.8971744607759576  1.0000
  C   C5        1.0  0.08601806710310458  0.6029699337287441  0.4513421245158965  1.0000
  C   C6        1.0  0.6029624468785499  0.0860137773742053  0.951335439347396  1.0000
  C   C7        1.0  3.329112363559399e-05  0.5966589023034602  0.558231700347413  1.0000
  C   C8        1.0  0.5966404668891271  2.878204016100046e-05  0.05823027961697138  1.0000
  C   C9        1.0  0.9407039299557666  0.4472219013608126  0.6068166930298631  1.0000
  C   C10       1.0  0.4472155383937775  0.9406961983739281  0.10681226513519697  1.0000
  C   C11       1.0  0.15142150638533988  0.7536878194126403  0.39992516805983763  1.0000
  C   C12       1.0  0.7536732847175854  0.1514098493547635  0.8999143081131818  1.0000
  C   C13       1.0  0.5516665678275104  0.30472641221815894  0.6226321915362263  1.0000
  C   C14       1.0  0.30474360331805167  0.551665401080122  0.12263682655020598  1.0000
  C   C15       1.0  0.0569463828962142  0.7059255178765939  0.9131374649981507  1.0000
  C   C16       1.0  0.7059340980763055  0.05692960867828131  0.41313437131739755  1.0000
  C   C17       1.0  0.22375922948339871  0.9597688898851687  0.6345580189843429  1.0000
  C   C18       1.0  0.9597635569458658  0.22375133523994611  0.1345583241721329  1.0000
  C   C19       1.0  0.7217004982448358  0.7833895997265047  0.7745018762926035  1.0000
  C   C20       1.0  0.7833904211128058  0.7217135174466024  0.27450436331918837  1.0000
  S   S1        1.0  0.3939353924523203  0.4207044306354464  0.5937896877913644  1.0000
  S   S2        1.0  0.42070852691902866  0.3939291520532039  0.09379819654984087  1.0000
  S   S3        1.0  0.1097663501764288  0.5388556764717125  0.8519342736358623  1.0000
  S   S4        1.0  0.5388712594739926  0.10976271760902993  0.351920003085219  1.0000
  S   S5        1.0  0.41479305426167196  0.8970331560339774  0.6230515939117751  1.0000
  S   S6        1.0  0.8970383799839824  0.4147882547717999  0.1230584537363342  1.0000
  S   S7        1.0  0.6423904366823762  0.6298123621038132  0.8579089338326538  1.0000
  S   S8        1.0  0.629799308843026  0.642402965036631  0.3579021472450278  1.0000
  N   N1        1.0  0.9636320199570675  0.31060349296934936  0.554274336721562  1.0000
  N   N2        1.0  0.3106035486429661  0.963637933544135  0.05426490422658495  1.0000
  N   N3        1.0  0.20578606787394452  0.8765773676273768  0.3580991593339177  1.0000
  N   N4        1.0  0.8765701083663868  0.20577166427560914  0.8580966488693916  1.0000
  N   N5        1.0  0.6618776203867968  0.21665575091138584  0.6473040945897921  1.0000
  N   N6        1.0  0.21666641303360729  0.6618673796439651  0.14730960409317356  1.0000
  N   N7        1.0  0.014381203876190794  0.8209782743747527  0.9609064386549163  1.0000
  N   N8        1.0  0.8209835414751724  0.014378859816154903  0.4609058991595915  1.0000
  N   N9        1.0  0.0878441673068764  0.010853569298682001  0.6420912563893564  1.0000
  N   N10       1.0  0.010849814241268498  0.08783357880538742  0.14208765805238238  1.0000
  N   N11       1.0  0.7787276063769754  0.8936713415010971  0.715372990712012  1.0000
  N   N12       1.0  0.8936803808271989  0.7787126021220487  0.2153698751198759  1.0000
