data_image0
_chemical_formula_structural       Mn4H32C40N8F12
_chemical_formula_sum              "Mn4 H32 C40 N8 F12"
_cell_length_a       7.970389317855793
_cell_length_b       10.4975230486856
_cell_length_c       11.326812806889805
_cell_angle_alpha    89.98510687658053
_cell_angle_beta     89.99846658284135
_cell_angle_gamma    89.99922545742218

_space_group_name_H-M_alt    "P 1"
_space_group_IT_number       1

loop_
  _space_group_symop_operation_xyz
  'x, y, z'

loop_
  _atom_site_type_symbol
  _atom_site_label
  _atom_site_symmetry_multiplicity
  _atom_site_fract_x
  _atom_site_fract_y
  _atom_site_fract_z
  _atom_site_occupancy
  Mn  Mn1       1.0  0.3749764274223537  0.24686484277832213  0.9970220822264295  1.0000
  Mn  Mn2       1.0  0.87497742400366  0.2531293138332201  0.0029797733794155  1.0000
  Mn  Mn3       1.0  0.6252965288936707  0.7473676375424104  0.5041754008428824  1.0000
  Mn  Mn4       1.0  0.1252896975902402  0.7526353433335654  0.4958292981966394  1.0000
  H   H1        1.0  0.4717948391369902  0.4258016234080699  0.19341072474924198  1.0000
  H   H2        1.0  0.97187226038195  0.07420492752812888  0.8065646143608018  1.0000
  H   H3        1.0  0.5269383184213366  0.9266748551648333  0.30865478805714724  1.0000
  H   H4        1.0  0.026907204861146297  0.5733367086678384  0.6913393728345483  1.0000
  H   H5        1.0  0.2712534814932823  0.06348983352615527  0.1910991727124411  1.0000
  H   H6        1.0  0.7713039760763181  0.43651962407849954  0.8089081341615839  1.0000
  H   H7        1.0  0.72896316183094  0.5649101990349691  0.3103114309348598  1.0000
  H   H8        1.0  0.22895672632922268  0.9350889132853977  0.6896816360085154  1.0000
  H   H9        1.0  0.4734905135420532  0.4342268942972323  0.41543331327258676  1.0000
  H   H10       1.0  0.9734762995174575  0.06576249387550345  0.5845402316176233  1.0000
  H   H11       1.0  0.5238046598789481  0.9352897782002995  0.08680054367996348  1.0000
  H   H12       1.0  0.023785209492317  0.5647046707459747  0.9131830829144575  1.0000
  H   H13       1.0  0.2690248222335399  0.05148079085924449  0.4130377491425818  1.0000
  H   H14       1.0  0.7690686126116472  0.4485210680606996  0.5869669514303125  1.0000
  H   H15       1.0  0.7317089459160613  0.553747072081471  0.0886157909840719  1.0000
  H   H16       1.0  0.2317075370541133  0.9462520139004977  0.9113736935890415  1.0000
  H   H17       1.0  0.49211353358376897  0.055683965265401994  0.5806233600201836  1.0000
  H   H18       1.0  0.9921914799172667  0.4443166671023701  0.41938426911964655  1.0000
  H   H19       1.0  0.5072094604045033  0.5577521159645684  0.9198856560389146  1.0000
  H   H20       1.0  0.007178767996819599  0.9422253429746444  0.0801353604052224  1.0000
  H   H21       1.0  0.26127818955585264  0.42992315298179307  0.5788268659038278  1.0000
  H   H22       1.0  0.761263934417741  0.07009116473936669  0.4211850401430936  1.0000
  H   H23       1.0  0.7404718470757031  0.9310779175371452  0.9211617424339096  1.0000
  H   H24       1.0  0.24048079252711568  0.5689182207107422  0.0788584801420882  1.0000
  H   H25       1.0  0.4920376172102863  0.0683302820639398  0.802348813083583  1.0000
  H   H26       1.0  0.9921281310694569  0.43167130543848486  0.1976455743176899  1.0000
  H   H27       1.0  0.5083264975515364  0.5696620310577812  0.6983911809299315  1.0000
  H   H28       1.0  0.0083087980832488  0.9303192281981436  0.3016236342075445  1.0000
  H   H29       1.0  0.2632738904279392  0.4208281209974983  0.8006900075121095  1.0000
  H   H30       1.0  0.7633746833960584  0.07916331623709279  0.19930685461824274  1.0000
  H   H31       1.0  0.7377247825949879  0.9217447680086364  0.6995012464440364  1.0000
  H   H32       1.0  0.2377751749331978  0.5782628298506083  0.3005066652161759  1.0000
  C   C1        1.0  0.4273726347228147  0.3461480069250484  0.24658665500530216  1.0000
  C   C2        1.0  0.927433058786491  0.15385040285550386  0.7534001027846243  1.0000
  C   C3        1.0  0.5717936057147313  0.8472642851745459  0.2554292324290515  1.0000
  C   C4        1.0  0.0717790276806056  0.6527468404107208  0.7445658628517577  1.0000
  C   C5        1.0  0.3161152556266913  0.14212536128373188  0.24529690350938438  1.0000
  C   C6        1.0  0.8161668027790867  0.3578769894760825  0.754713987166383  1.0000
  C   C7        1.0  0.6836658068095218  0.6436327074296598  0.256403670087181  1.0000
  C   C8        1.0  0.1836474659459597  0.8563630371318849  0.7435875882158385  1.0000
  C   C9        1.0  0.4279824995232246  0.34976889321323756  0.36913613208315604  1.0000
  C   C10       1.0  0.9279937764372548  0.15023998828304735  0.6308594422026772  1.0000
  C   C11       1.0  0.5707884610781377  0.8510480198104416  0.13277203711803756  1.0000
  C   C12       1.0  0.0707729785455555  0.6489402539186456  0.8672168995360181  1.0000
  C   C13       1.0  0.3165181925027197  0.13611444116757093  0.36792788799322557  1.0000
  C   C14       1.0  0.8165668382875708  0.363910772030806  0.6320556237890642  1.0000
  C   C15       1.0  0.683390953601858  0.6381028256740889  0.1336540114109184  1.0000
  C   C16       1.0  0.18339285946333916  0.8618910162606068  0.8663372520280745  1.0000
  C   C17       1.0  0.3730564953112249  0.24227792776243  0.43169150981064064  1.0000
  C   C18       1.0  0.8730895117946886  0.2577333939697297  0.5683130275838407  1.0000
  C   C19       1.0  0.6264316244028691  0.7440656049776562  0.0696687377338705  1.0000
  C   C20       1.0  0.12642425296016313  0.7559278391319351  0.9303332928466831  1.0000
  C   C21       1.0  0.37468125281880293  0.24214351163173822  0.5619646988625532  1.0000
  C   C22       1.0  0.8747130273608048  0.25787446383995416  0.4380300961596291  1.0000
  C   C23       1.0  0.6252455025146304  0.7439470838856649  0.9389874541384059  1.0000
  C   C24       1.0  0.12525917226816569  0.7560435137609003  0.0610154814329462  1.0000
  C   C25       1.0  0.43937419175648523  0.13857655103499403  0.625569098017614  1.0000
  C   C26       1.0  0.939437857394978  0.3614112626498738  0.3744192043398797  1.0000
  C   C27       1.0  0.5604917677086831  0.6405624020175437  0.8751246918742198  1.0000
  C   C28       1.0  0.0604822203712203  0.8594278740916647  0.12488827253918798  1.0000
  C   C29       1.0  0.3120271655892992  0.34698740441604764  0.6247566720064981  1.0000
  C   C30       1.0  0.8120470128467758  0.15302641952783344  0.37524105041981665  1.0000
  C   C31       1.0  0.6884747842472833  0.8482659393315188  0.8756625285013512  1.0000
  C   C32       1.0  0.18849171799329406  0.651729755519213  0.124347180442399  1.0000
  C   C33       1.0  0.4406703213521652  0.144745642499899  0.7482021322685951  1.0000
  C   C34       1.0  0.9407526410664815  0.355253586133216  0.2518117474820158  1.0000
  C   C35       1.0  0.5596798227041403  0.6461780078058864  0.7523860499716903  1.0000
  C   C36       1.0  0.059675674639471786  0.8538056063614972  0.2476384074357014  1.0000
  C   C37       1.0  0.31334095384153926  0.3433427669499949  0.7472831842189436  1.0000
  C   C38       1.0  0.8134206716936347  0.15665389549333497  0.2527251097129977  1.0000
  C   C39       1.0  0.6873467545791954  0.8444612122888343  0.7530442153138849  1.0000
  C   C40       1.0  0.18737769882174857  0.6555373495976365  0.2469778741097528  1.0000
  N   N1        1.0  0.37175137435936983  0.24461470561025317  0.18587716327765946  1.0000
  N   N2        1.0  0.8718351597915371  0.2553871056408425  0.8141053274602753  1.0000
  N   N3        1.0  0.6278332987853615  0.7458230106789613  0.3163080630402817  1.0000
  N   N4        1.0  0.1278191801317732  0.7541866180207392  0.6836656881213159  1.0000
  N   N5        1.0  0.37749942723258556  0.24454591939713302  0.8079241301303739  1.0000
  N   N6        1.0  0.8775896814277288  0.2554472589246969  0.19208209231646828  1.0000
  N   N7        1.0  0.6230922668136359  0.745745784435833  0.6921649534130053  1.0000
  N   N8        1.0  0.12310646984454365  0.7542534053390993  0.3078547953735509  1.0000
  F   F1        1.0  0.3515619116503288  0.4211052491125996  0.9960221288084197  1.0000
  F   F2        1.0  0.8515611027951662  0.07892533511907368  0.0039801563119326  1.0000
  F   F3        1.0  0.6665275146984228  0.9190620265125489  0.5056056724687465  1.0000
  F   F4        1.0  0.16646246614709528  0.5809291230619849  0.4943823729763253  1.0000
  F   F5        1.0  0.3979066773148999  0.07278086930041638  0.9965670664541618  1.0000
  F   F6        1.0  0.8978956249991227  0.42718448619499594  0.0034281877908525996  1.0000
  F   F7        1.0  0.5847593156705598  0.5758139116681134  0.5050308326283286  1.0000
  F   F8        1.0  0.08481832140285656  0.9241999481198562  0.4949401841226758  1.0000
  F   F9        1.0  0.6244650075828773  0.2734820285941239  0.0028092403612661  1.0000
  F   F10       1.0  0.1244832039217272  0.22652695901840753  0.9971866612944212  1.0000
  F   F11       1.0  0.3759872118512675  0.7926985998771982  0.4973265238685371  1.0000
  F   F12       1.0  0.875940898454118  0.7073047863492974  0.5027106099893146  1.0000
