data_image0
_chemical_formula_structural       Co2H20C28N4O12
_chemical_formula_sum              "Co2 H20 C28 N4 O12"
_cell_length_a       7.317181276176838
_cell_length_b       9.469009637884794
_cell_length_c       10.954947262020713
_cell_angle_alpha    67.82099387818805
_cell_angle_beta     86.65322455519082
_cell_angle_gamma    83.59504169572524

_space_group_name_H-M_alt    "P 1"
_space_group_IT_number       1

loop_
  _space_group_symop_operation_xyz
  'x, y, z'

loop_
  _atom_site_type_symbol
  _atom_site_label
  _atom_site_symmetry_multiplicity
  _atom_site_fract_x
  _atom_site_fract_y
  _atom_site_fract_z
  _atom_site_occupancy
  Co  Co1       1.0  0.6148398678018555  0.7898037975740309  0.6011477966414701  1.0000
  Co  Co2       1.0  0.38491872056928134  0.21027100536681329  0.3987194116128521  1.0000
  H   H1        1.0  0.24904952508344994  0.3628367097513703  0.956575517353734  1.0000
  H   H2        1.0  0.7511219168759881  0.6371157803745575  0.04345584375691663  1.0000
  H   H3        1.0  0.3561391237910954  0.9344183251841754  0.8989015895028912  1.0000
  H   H4        1.0  0.6438228521576052  0.0655695946516062  0.10104719469376988  1.0000
  H   H5        1.0  0.558220516169918  0.34498692954629456  0.6146614739318466  1.0000
  H   H6        1.0  0.441796484683934  0.6549786863620355  0.38530791211852033  1.0000
  H   H7        1.0  0.9896005411814883  0.1307710155533783  0.2417370939998094  1.0000
  H   H8        1.0  0.01020686568855213  0.8692481085243455  0.7581193615092519  1.0000
  H   H9        1.0  0.798056168204532  0.057488868233463095  0.4419477352816444  1.0000
  H   H10       1.0  0.20179215283742744  0.9425741443825544  0.5579416135939255  1.0000
  H   H11       1.0  0.8857513375435391  0.5959409099521551  0.503570560687443  1.0000
  H   H12       1.0  0.1141806310086153  0.4040877224742728  0.4964134946921063  1.0000
  H   H13       1.0  0.0866571281215229  0.6511436852281065  0.2978856542665582  1.0000
  H   H14       1.0  0.9133630724002019  0.34881957480326525  0.7021630233267545  1.0000
  H   H15       1.0  0.1595211223483304  0.14911783279988103  0.107195548981899  1.0000
  H   H16       1.0  0.8406453327574469  0.8508076541663881  0.8928532535858338  1.0000
  H   H17       1.0  0.8878425411225733  0.5441234419646079  0.8425425393803537  1.0000
  H   H18       1.0  0.1119449581398086  0.4564272640491184  0.1569346443696702  1.0000
  H   H19       1.0  0.07663044462806569  0.6169087297555151  0.8062932141275425  1.0000
  H   H20       1.0  0.9236689372713158  0.3829954219324065  0.194173680757622  1.0000
  C   C1        1.0  0.4346000627285634  0.537175409272777  0.7379622963960202  1.0000
  C   C2        1.0  0.565529221135563  0.4627696213258331  0.26205951539485284  1.0000
  C   C3        1.0  0.4078099533486678  0.37094750142821903  0.7818350725194422  1.0000
  C   C4        1.0  0.5923192101268596  0.6290099021069723  0.21817857625360657  1.0000
  C   C5        1.0  0.30964815095964576  0.29820171836882997  0.8976208211946995  1.0000
  C   C6        1.0  0.6904620507400027  0.7017548097480812  0.10239694831999199  1.0000
  C   C7        1.0  0.2916288234161542  0.14031331490399873  0.9411645172500087  1.0000
  C   C8        1.0  0.7084112328084159  0.8596501558765012  0.05882904364240462  1.0000
  C   C9        1.0  0.3693281550750527  0.0562661986863802  0.8662205477437936  1.0000
  C   C10       1.0  0.6306586148060733  0.9437133727886856  0.13374635028809942  1.0000
  C   C11       1.0  0.46146105038081225  0.13229242510232808  0.7475895330545654  1.0000
  C   C12       1.0  0.538517707182116  0.8676834456649658  0.25237367799871174  1.0000
  C   C13       1.0  0.4823068916598531  0.2885462435744727  0.7054266373604108  1.0000
  C   C14       1.0  0.5177432099559455  0.7114223617648605  0.294555348623085  1.0000
  C   C15       1.0  0.1544684658079518  0.9271473734789382  0.12154901447322435  1.0000
  C   C16       1.0  0.8455183055177216  0.0728237310743083  0.8784328550982609  1.0000
  C   C17       1.0  0.052495076685353595  0.895115509868205  0.2508121632907887  1.0000
  C   C18       1.0  0.9474605138131977  0.1048760507061601  0.7491585015109266  1.0000
  C   C19       1.0  0.9745292367985314  0.009612899552479293  0.29460705912304513  1.0000
  C   C20       1.0  0.025356990458249084  0.9903984836955716  0.705320029687634  1.0000
  C   C21       1.0  0.8672623768568927  0.970163140816112  0.4087137474034677  1.0000
  C   C22       1.0  0.1326182122303905  0.029877293506210396  0.5912103716810648  1.0000
  C   C23       1.0  0.9161161475030682  0.711916715107968  0.4421910068902122  1.0000
  C   C24       1.0  0.0838287542069622  0.28810471543106086  0.5577903827874451  1.0000
  C   C25       1.0  0.025279419842867384  0.7428007619204992  0.32886941629417515  1.0000
  C   C26       1.0  0.9746978623825483  0.2572067670986797  0.6711353454600228  1.0000
  C   C27       1.0  0.5386817636166087  0.04677645501833181  0.6646148422986542  1.0000
  C   C28       1.0  0.4611982706242514  0.9532139533573911  0.335312931051682  1.0000
  N   N1        1.0  0.1970800400423443  0.07514123223312909  0.060405313772818714  1.0000
  N   N2        1.0  0.8029610785066766  0.9248244148668404  0.9395855657384685  1.0000
  N   N3        1.0  0.8340908410700648  0.8239597064382737  0.4807464015090873  1.0000
  N   N4        1.0  0.1658051263395777  0.17608809439312267  0.5192043360497536  1.0000
  O   O1        1.0  0.3122553070362173  0.6324101804697406  0.7540765738214644  1.0000
  O   O2        1.0  0.6878406662418259  0.367554132823436  0.24587425088504494  1.0000
  O   O3        1.0  0.5940367434034145  0.5732109608367679  0.6811946251337558  1.0000
  O   O4        1.0  0.40611834345342857  0.42678505367763364  0.31884096831564795  1.0000
  O   O5        1.0  0.5673573319596841  0.11987373402851631  0.5408609792142443  1.0000
  O   O6        1.0  0.4324206131676505  0.8800934446560336  0.459064516944764  1.0000
  O   O7        1.0  0.5765780402150255  0.9016739032522308  0.7187379218746274  1.0000
  O   O8        1.0  0.4233030469595462  0.09829622480160792  0.2812026750339811  1.0000
  O   O9        1.0  0.19120188842872204  0.8251639935106712  0.07655595727089798  1.0000
  O   O10       1.0  0.8087633801276863  0.17481508575980342  0.9234214621277842  1.0000
  O   O11       1.0  0.9443853792593231  0.6379435490074243  0.8262792151568163  1.0000
  O   O12       1.0  0.056092477518383484  0.36195891073833764  0.17466370422199157  1.0000
