data_image0
_chemical_formula_structural       Cd4H40C56N16O12
_chemical_formula_sum              "Cd4 H40 C56 N16 O12"
_cell_length_a       7.391496593229838
_cell_length_b       13.625791360761175
_cell_length_c       13.67077813130907
_cell_angle_alpha    77.07968172697247
_cell_angle_beta     90.27620807101674
_cell_angle_gamma    78.86486058230528

_space_group_name_H-M_alt    "P 1"
_space_group_IT_number       1

loop_
  _space_group_symop_operation_xyz
  'x, y, z'

loop_
  _atom_site_type_symbol
  _atom_site_label
  _atom_site_symmetry_multiplicity
  _atom_site_fract_x
  _atom_site_fract_y
  _atom_site_fract_z
  _atom_site_occupancy
  Cd  Cd1       1.0  0.4593379774305151  0.2561507436965442  0.7443576966210798  1.0000
  Cd  Cd2       1.0  0.5406558685177034  0.7438515435564099  0.2556392719220781  1.0000
  Cd  Cd3       1.0  0.9586389878196546  0.24524366366639327  0.6489555913127987  1.0000
  Cd  Cd4       1.0  0.04136182501000726  0.7547579564991764  0.35103998963605687  1.0000
  H   H1        1.0  0.1826564562255655  0.3897470515867809  0.530384818193248  1.0000
  H   H2        1.0  0.8173405190042404  0.6102506116140916  0.4696137542901368  1.0000
  H   H3        1.0  0.9784384255899566  0.42846937710563554  0.48866259140314117  1.0000
  H   H4        1.0  0.021552484705054633  0.5715718562014303  0.511356138588603  1.0000
  H   H5        1.0  0.9605517935939576  0.1832404565675958  0.4585929297149889  1.0000
  H   H6        1.0  0.039447798526453096  0.8167578347663563  0.5414098936329523  1.0000
  H   H7        1.0  0.5217051432126639  0.8223775514063973  0.02875076990822832  1.0000
  H   H8        1.0  0.47827959505835355  0.17763085735701614  0.971244349890142  1.0000
  H   H9        1.0  0.019374109775974212  0.7464770695831219  0.9047547929102038  1.0000
  H   H10       1.0  0.9806178406390631  0.2535229479223489  0.09524116545489389  1.0000
  H   H11       1.0  0.2523454564865944  0.3212849581078743  0.21020573326313746  1.0000
  H   H12       1.0  0.7476727572730228  0.67870722571174  0.7898003282700967  1.0000
  H   H13       1.0  0.7510636177111041  0.10504810481815242  0.33857380514408664  1.0000
  H   H14       1.0  0.24894125472403064  0.8949508602516686  0.6614325080423171  1.0000
  H   H15       1.0  0.2688889849654785  0.6744362321757222  0.8328699773194757  1.0000
  H   H16       1.0  0.7311099318673088  0.3255668876643867  0.16712605957287954  1.0000
  H   H17       1.0  0.38374672539277566  0.89167981216778  0.3998227984041307  1.0000
  H   H18       1.0  0.6162665794319225  0.10831785989775261  0.6001785770714745  1.0000
  H   H19       1.0  0.0033024283440355297  0.4742170623861099  0.1719866249849389  1.0000
  H   H20       1.0  0.996714784817961  0.5257769748496344  0.8280103005427718  1.0000
  H   H21       1.0  0.48379073717114807  0.24998441717362851  0.32649457667423576  1.0000
  H   H22       1.0  0.5162161010709098  0.7500129952712201  0.6735127543984304  1.0000
  H   H23       1.0  0.10055897727633581  0.10656099637960642  0.85997883441442  1.0000
  H   H24       1.0  0.8994342175881941  0.8934391101153024  0.14001490115042967  1.0000
  H   H25       1.0  0.735903236207001  0.48879453743575146  0.28174157850317266  1.0000
  H   H26       1.0  0.26410927791391714  0.5112010597725883  0.7182536163346213  1.0000
  H   H27       1.0  0.3713637107079323  0.965320581168655  0.9038616206238571  1.0000
  H   H28       1.0  0.6286352763986047  0.0346787162989983  0.09613442397670009  1.0000
  H   H29       1.0  0.7464368833135921  0.8895503280130724  0.863406357313103  1.0000
  H   H30       1.0  0.2535514500965093  0.11044878704338151  0.13659273139182196  1.0000
  H   H31       1.0  0.7914385442523868  0.5242384825234864  0.9872297838911519  1.0000
  H   H32       1.0  0.20855660432689407  0.47576439682352856  0.012772184487047922  1.0000
  H   H33       1.0  0.5316511251139533  0.5270353212896451  0.8692852559450515  1.0000
  H   H34       1.0  0.4683471988167228  0.4729661208970483  0.1307147706042855  1.0000
  H   H35       1.0  0.11741080053213443  0.034656545881134086  0.389631553214933  1.0000
  H   H36       1.0  0.8826028998763037  0.9653402789019764  0.610372179518798  1.0000
  H   H37       1.0  0.6860735696427512  0.39174225958514336  0.7951819878833601  1.0000
  H   H38       1.0  0.3139199742720111  0.6082575821576199  0.20481911683027224  1.0000
  H   H39       1.0  0.5604609498528109  0.4676387700873618  0.7023222542911823  1.0000
  H   H40       1.0  0.43953766494652774  0.5323619042425562  0.2976779187716474  1.0000
  C   C1        1.0  0.9713585784351153  0.24806079318844354  0.3969690992063235  1.0000
  C   C2        1.0  0.028646596497161413  0.7519368479695454  0.6030316116880529  1.0000
  C   C3        1.0  0.9058448728024902  0.007380682467065503  0.8574372041194493  1.0000
  C   C4        1.0  0.09414580988650562  0.9926187164691245  0.1425544913254838  1.0000
  C   C5        1.0  0.584232490920364  0.9892394366512178  0.3682056573237134  1.0000
  C   C6        1.0  0.4157751957237537  0.010762681487520393  0.6317985598121397  1.0000
  C   C7        1.0  0.5231124340293007  0.7573739789125186  0.9941390174706867  1.0000
  C   C8        1.0  0.47687229307693724  0.2426312164839217  0.005860385011651192  1.0000
  C   C9        1.0  0.6719498954106911  0.6730761630923111  0.015522132379153728  1.0000
  C   C10       1.0  0.3280354944077147  0.3269306570071181  0.9844747542759507  1.0000
  C   C11       1.0  0.8216505163159483  0.670433219953516  0.08690935090893247  1.0000
  C   C12       1.0  0.17834325935852047  0.32957288967189413  0.9130876099260234  1.0000
  C   C13       1.0  0.7440849473354945  0.9050880837333183  0.3669442302836999  1.0000
  C   C14       1.0  0.25592052916653063  0.09491577235689161  0.633053810561762  1.0000
  C   C15       1.0  0.6793522808230038  0.3472968983466131  0.44455722756342203  1.0000
  C   C16       1.0  0.3206503116599893  0.652703857625113  0.5554414355028285  1.0000
  C   C17       1.0  0.21486094289868155  0.8451517983195985  0.906677043160819  1.0000
  C   C18       1.0  0.7851265290701974  0.15485283367415553  0.0933173233196527  1.0000
  C   C19       1.0  0.03704756179451608  0.8255486002595377  0.8944021770102847  1.0000
  C   C20       1.0  0.96294198116005  0.17445063026156757  0.1055939519795217  1.0000
  C   C21       1.0  0.12653649069817877  0.24237437159206374  0.3384944175412911  1.0000
  C   C22       1.0  0.8734684980804989  0.7576239579970546  0.6615083575842249  1.0000
  C   C23       1.0  0.37513119261514305  0.7584954227571146  0.9290026157656043  1.0000
  C   C24       1.0  0.6248596054900021  0.24151087954242456  0.07098847386154719  1.0000
  C   C25       1.0  0.1353297924461003  0.3257996650710453  0.2580888084961686  1.0000
  C   C26       1.0  0.8646829660099871  0.6741957468107954  0.7419115447457686  1.0000
  C   C27       1.0  0.7421858163441045  0.09132797828431188  0.8258429318688343  1.0000
  C   C28       1.0  0.25780876259001667  0.9086721112991685  0.17415152855528498  1.0000
  C   C29       1.0  0.6119434493245849  0.09055876156429582  0.34975996304002877  1.0000
  C   C30       1.0  0.3880644118446529  0.9094432241983694  0.6502479386702191  1.0000
  C   C31       1.0  0.83265316497058  0.3377722437931467  0.37796993775817356  1.0000
  C   C32       1.0  0.16735310316261837  0.6622261483101967  0.6220313514819721  1.0000
  C   C33       1.0  0.3813916698882523  0.6742089186356567  0.8847298751237885  1.0000
  C   C34       1.0  0.6186068862658162  0.3257950220116612  0.11526454142531861  1.0000
  C   C35       1.0  0.4055317284570635  0.9703708870304837  0.38405020514596083  1.0000
  C   C36       1.0  0.5944784708262888  0.02962816924494399  0.6159545859882626  1.0000
  C   C37       1.0  0.9949108959392633  0.4125644527958698  0.23667710862202537  1.0000
  C   C38       1.0  0.00509650076357814  0.5874308943555775  0.7633240297572215  1.0000
  C   C39       1.0  0.46225812770409663  0.17121530960614706  0.34290627786572253  1.0000
  C   C40       1.0  0.537750896939805  0.8287836047294094  0.6571022098984968  1.0000
  C   C41       1.0  0.0825102083500227  0.027557137440488995  0.8697443260954643  1.0000
  C   C42       1.0  0.9174797767217843  0.9724406632679249  0.13024914826181083  1.0000
  C   C43       1.0  0.8443343063632015  0.4201037094691172  0.29725434282699575  1.0000
  C   C44       1.0  0.15567440459918214  0.5798916737213418  0.7027460465817654  1.0000
  C   C45       1.0  0.2352055489582059  0.9474903349613795  0.8956896161635584  1.0000
  C   C46       1.0  0.7647869478254421  0.0525119427277829  0.1043073644352077  1.0000
  C   C47       1.0  0.8839294799095327  0.9052848238969133  0.8719177924605503  1.0000
  C   C48       1.0  0.11606071459242172  0.09471281796021461  0.1280801033859973  1.0000
  C   C49       1.0  0.6763270814216328  0.5899436262106762  0.9702243037361384  1.0000
  C   C50       1.0  0.3236655898871349  0.4100585191024138  0.02977636143701551  1.0000
  C   C51       1.0  0.5302508199093057  0.5913534937266434  0.904657466023508  1.0000
  C   C52       1.0  0.4697467477589186  0.4086496165496811  0.09533858292445531  1.0000
  C   C53       1.0  0.25565759147003325  0.051169218488382705  0.3794517653814538  1.0000
  C   C54       1.0  0.7443528637769604  0.9488290964054824  0.6205524353513853  1.0000
  C   C55       1.0  0.28185495922401327  0.15302042402308297  0.3561728053929372  1.0000
  C   C56       1.0  0.71815618247539  0.8469762757315848  0.6438338991115202  1.0000
  N   N1        1.0  0.968782780910594  0.6877813410533307  0.2158033377151725  1.0000
  N   N2        1.0  0.031213391523259356  0.31221857276744197  0.7841962690574887  1.0000
  N   N3        1.0  0.002606315059082917  0.6355769027644058  0.07677490649629701  1.0000
  N   N4        1.0  0.997384716680152  0.36442223141963836  0.9232241580974048  1.0000
  N   N5        1.0  0.5052672115955589  0.4000148691606213  0.41818014679829923  1.0000
  N   N6        1.0  0.49473286963929314  0.5999776404083335  0.5818135439049142  1.0000
  N   N7        1.0  0.6942296774748018  0.30236702864591086  0.5437685205330709  1.0000
  N   N8        1.0  0.3057720773072177  0.697636004420929  0.4562304399075784  1.0000
  N   N9        1.0  0.08941232388832537  0.6482103425719004  0.15762476746612458  1.0000
  N   N10       1.0  0.9105820228223964  0.3517872485509629  0.8423753029582314  1.0000
  N   N11       1.0  0.5252328387198092  0.3267961374165367  0.5774061779563338  1.0000
  N   N12       1.0  0.4747661483867277  0.6732031600511164  0.4225898666442163  1.0000
  N   N13       1.0  0.41310167161118727  0.38457512717418757  0.5028198635938422  1.0000
  N   N14       1.0  0.5868937803926288  0.6154188894169363  0.4971735702492026  1.0000
  N   N15       1.0  0.7984410567847819  0.702713258792393  0.173440519986876  1.0000
  N   N16       1.0  0.20155559220763314  0.2972889681625048  0.8265586351896913  1.0000
  O   O1        1.0  0.7652832329505802  0.17846262282399286  0.7690737018341594  1.0000
  O   O2        1.0  0.23471378881272636  0.8215344578466031  0.2309198587585826  1.0000
  O   O3        1.0  0.717578176118721  0.8195766690372396  0.348872762241534  1.0000
  O   O4        1.0  0.2824246020541708  0.18042716792538727  0.6511253027151369  1.0000
  O   O5        1.0  0.05131159961929653  0.39596292866596633  0.551334969665909  1.0000
  O   O6        1.0  0.9486884927999316  0.6040344359599246  0.44867242168479743  1.0000
  O   O7        1.0  0.5822806617711368  0.0801662516130222  0.8510020204581467  1.0000
  O   O8        1.0  0.4177131841770817  0.9198360356399318  0.14899494808500444  1.0000
  O   O9        1.0  0.9077320542272606  0.9166194927810095  0.3823558197519644  1.0000
  O   O10       1.0  0.0922764705815311  0.0833765788405856  0.6176466338879364  1.0000
  O   O11       1.0  0.5583380104266739  0.41123780567473733  0.7615653368382668  1.0000
  O   O12       1.0  0.4416562660103054  0.5887636078205816  0.23843472587789452  1.0000
