data_image0
_chemical_formula_structural       Al2H18C30O10F2
_chemical_formula_sum              "Al2 H18 C30 O10 F2"
_cell_length_a       6.693465679776615
_cell_length_b       11.14760668893924
_cell_length_c       17.579643354465173
_cell_angle_alpha    84.28560046730249
_cell_angle_beta     83.49176037117358
_cell_angle_gamma    71.37674425388202

_space_group_name_H-M_alt    "P 1"
_space_group_IT_number       1

loop_
  _space_group_symop_operation_xyz
  'x, y, z'

loop_
  _atom_site_type_symbol
  _atom_site_label
  _atom_site_symmetry_multiplicity
  _atom_site_fract_x
  _atom_site_fract_y
  _atom_site_fract_z
  _atom_site_occupancy
  Al  Al1       1.0  0.49314406224066  0.5023430178615911  0.5017749132024961  1.0000
  Al  Al2       1.0  0.9926016928975941  0.5023530061628988  0.5011537946216791  1.0000
  H   H1        1.0  0.3018128089379033  0.3556330048338054  0.5555354164072951  1.0000
  H   H2        1.0  0.6755727322777076  0.6575904617320844  0.46346969973346563  1.0000
  H   H3        1.0  0.6374595858381867  0.5056336118260489  0.283551927285103  1.0000
  H   H4        1.0  0.7339663354987425  0.5009900393836518  0.1426234470317738  1.0000
  H   H5        1.0  0.10250926967207635  0.5002191591582343  0.1113595023201128  1.0000
  H   H6        1.0  0.9012242888289989  0.482987791124472  0.8912318909161173  1.0000
  H   H7        1.0  0.34261239275470257  0.5168169972898226  0.7197269281773799  1.0000
  H   H8        1.0  0.2509044649718746  0.5207193501638656  0.8609045707869427  1.0000
  H   H9        1.0  0.2217853846529962  0.23542568406817568  0.3945057374909382  1.0000
  H   H10       1.0  0.42622632204135863  0.7665048312029797  0.39853330106090823  1.0000
  H   H11       1.0  0.7612769305015094  0.8881732556087272  0.5505954740842256  1.0000
  H   H12       1.0  0.6473561052555753  0.12520851897140517  0.54227831635977  1.0000
  H   H13       1.0  0.748346395638073  0.10717778678078815  0.3276597406338837  1.0000
  H   H14       1.0  0.5190494712343963  0.23886991364160076  0.31244570416996  1.0000
  H   H15       1.0  0.6051225818541326  0.1158427824225186  0.2477585508488716  1.0000
  H   H16       1.0  0.7030031873881413  0.885429359351157  0.2499694666093292  1.0000
  H   H17       1.0  0.7320895559544667  0.7545864932256733  0.3192552919521745  1.0000
  H   H18       1.0  0.8505340014919656  0.8736191888107783  0.3290407084925917  1.0000
  C   C1        1.0  0.8617357403198443  0.27711560988954176  0.4866936922387808  1.0000
  C   C2        1.0  0.7099350288419117  0.495561338549585  0.6400345217945044  1.0000
  C   C3        1.0  0.12868936539507575  0.7297314505949257  0.5012956241418466  1.0000
  C   C4        1.0  0.2769328183360074  0.5085742360952139  0.3625346864244747  1.0000
  C   C5        1.0  0.32107019664172753  0.504749140635937  0.277480374458662  1.0000
  C   C6        1.0  0.523087804845858  0.5040885695455514  0.24466762626237681  1.0000
  C   C7        1.0  0.5763547197566653  0.501514573317209  0.16629044509333823  1.0000
  C   C8        1.0  0.4257129990537507  0.5005217849765415  0.11644686133279689  1.0000
  C   C9        1.0  0.2226113352791615  0.5007581006199116  0.1480986715581949  1.0000
  C   C10       1.0  0.17489461126161393  0.5025261774759286  0.2268757443018572  1.0000
  C   C11       1.0  0.47624163759854105  0.5005088257944904  0.0361897686944914  1.0000
  C   C12       1.0  0.5200694919581536  0.5017262620250875  0.9668561640039784  1.0000
  C   C13       1.0  0.5687301621529813  0.5023541492061694  0.8864695178970123  1.0000
  C   C14       1.0  0.7759924561680764  0.4915373841932932  0.8546081534375675  1.0000
  C   C15       1.0  0.82137976799185  0.4901039791320584  0.775696724444721  1.0000
  C   C16       1.0  0.6683020911797262  0.4991985915362135  0.725248244748734  1.0000
  C   C17       1.0  0.46221770502889115  0.510384410802544  0.7583091369667443  1.0000
  C   C18       1.0  0.4115628346830179  0.5123027336122516  0.8368629159868775  1.0000
  C   C19       1.0  0.935327863533452  0.13706997716478497  0.48025749202192713  1.0000
  C   C20       1.0  0.13452501064365663  0.07041834264658317  0.4417433307446146  1.0000
  C   C21       1.0  0.8010791418652304  0.07175513815474938  0.5157404458724103  1.0000
  C   C22       1.0  0.2679696524376071  0.13229763646322815  0.3970464605574194  1.0000
  C   C23       1.0  0.4526272176820498  0.0663852579243951  0.3558838116868515  1.0000
  C   C24       1.0  0.0614304385734102  0.870466266916132  0.4877625384347652  1.0000
  C   C25       1.0  0.8642457549613592  0.9388631281993934  0.5200970040563746  1.0000
  C   C26       1.0  0.19672432869626993  0.9341874748960065  0.44454165681015206  1.0000
  C   C27       1.0  0.3845643503966442  0.8689942254862686  0.4005255246843618  1.0000
  C   C28       1.0  0.5120571470852444  0.9309962867019973  0.35726638855330606  1.0000
  C   C29       1.0  0.5874800253490448  0.1360479326171031  0.3086752105250881  1.0000
  C   C30       1.0  0.7091691961914465  0.8568961637203923  0.3116748922265913  1.0000
  O   O1        1.0  0.6643249668144051  0.33329011094701133  0.48316828349438623  1.0000
  O   O2        1.0  0.8836766238119297  0.5072929281346531  0.6083057806267363  1.0000
  O   O3        1.0  0.9888999521254006  0.6753054423349879  0.4982623364612877  1.0000
  O   O4        1.0  0.42145983043934615  0.5262845986232775  0.3972072657699215  1.0000
  O   O5        1.0  0.3196721649953389  0.6737048941022008  0.5158909928153365  1.0000
  O   O6        1.0  0.10387889407011396  0.4951407897717317  0.393736745803686  1.0000
  O   O7        1.0  0.9971877651774008  0.3302243356126694  0.49855000074251177  1.0000
  O   O8        1.0  0.5623500693087423  0.48009428919741026  0.6059115637844812  1.0000
  O   O9        1.0  0.264940335338224  0.4418524755920927  0.5328925085870395  1.0000
  O   O10       1.0  0.7190346488799264  0.5655570901490848  0.47009461144824627  1.0000
  F   F1        1.0  0.9760116325203539  0.5036465127817705  0.25368746157023747  1.0000
  F   F2        1.0  0.025062502402853633  0.4765529876160244  0.74870245455255  1.0000
