data_image0
_chemical_formula_structural       Cd2H24C28S4N8
_chemical_formula_sum              "Cd2 H24 C28 S4 N8"
_cell_length_a       8.048585620509847
_cell_length_b       10.049345516853515
_cell_length_c       10.66250926483627
_cell_angle_alpha    84.86174095495926
_cell_angle_beta     72.30249434482313
_cell_angle_gamma    70.85693668035114

_space_group_name_H-M_alt    "P 1"
_space_group_IT_number       1

loop_
  _space_group_symop_operation_xyz
  'x, y, z'

loop_
  _atom_site_type_symbol
  _atom_site_label
  _atom_site_symmetry_multiplicity
  _atom_site_fract_x
  _atom_site_fract_y
  _atom_site_fract_z
  _atom_site_occupancy
  Cd  Cd1       1.0  0.5995115845330543  0.3827347898993522  0.23716577541190983  1.0000
  Cd  Cd2       1.0  0.40049393184824555  0.6172596360543919  0.7628398872512391  1.0000
  H   H1        1.0  0.582985093744263  0.15091735212281773  0.4719281547475517  1.0000
  H   H2        1.0  0.4170194291045987  0.8490854720551582  0.5280713359559285  1.0000
  H   H3        1.0  0.7723160639210034  0.9173777816500391  0.5362223246618425  1.0000
  H   H4        1.0  0.2276880514010386  0.0826229185160159  0.46377651907054923  1.0000
  H   H5        1.0  0.18594957205986148  0.9119273216209649  0.16763071014629102  1.0000
  H   H6        1.0  0.8140540934403049  0.08807442398563839  0.8323672037417962  1.0000
  H   H7        1.0  0.05498471872305526  0.6729053735404023  0.3743339751069569  1.0000
  H   H8        1.0  0.9450176442558416  0.327096354716261  0.6256633053837388  1.0000
  H   H9        1.0  0.1113318194661942  0.7498328123869911  0.49062333402462577  1.0000
  H   H10       1.0  0.8886705458373569  0.25016892376012834  0.5093748830972301  1.0000
  H   H11       1.0  0.253660093827385  0.7263017789715391  0.32315857110725676  1.0000
  H   H12       1.0  0.7463440191699957  0.27369891330405943  0.6768393359939748  1.0000
  H   H13       1.0  0.8263366506218403  0.47405761309063627  0.952932056693619  1.0000
  H   H14       1.0  0.17366355713640755  0.5259430350256267  0.04706488684661278  1.0000
  H   H15       1.0  0.12295308176143752  0.3874777140537303  0.7757796938674414  1.0000
  H   H16       1.0  0.877049728714688  0.6125229608719425  0.22421757983640592  1.0000
  H   H17       1.0  0.2586539414032316  0.011391222821956102  0.0002334167276601127  1.0000
  H   H18       1.0  0.7413497217722802  0.9886105148941838  0.999763560529267  1.0000
  H   H19       1.0  0.4124925602209045  0.0276095674923482  0.7384484886200863  1.0000
  H   H20       1.0  0.5875124008265686  0.9723921717928192  0.26154724877190455  1.0000
  H   H21       1.0  0.5081675740998576  0.12009571962431659  0.8154142404626722  1.0000
  H   H22       1.0  0.49183648962851817  0.8799081184323965  0.18458057387186946  1.0000
  H   H23       1.0  0.4107518498974514  0.20263562343438932  0.687991455369932  1.0000
  H   H24       1.0  0.5892492105601903  0.7973660874723479  0.3120051917233722  1.0000
  C   C1        1.0  0.514151467622085  0.6602181141679183  0.038337971548344285  1.0000
  C   C2        1.0  0.4858278413501083  0.33976143913125867  0.9616882897793811  1.0000
  C   C3        1.0  0.7001644109286218  0.5463387366563451  0.4643268531894264  1.0000
  C   C4        1.0  0.2998310175179027  0.4536640449766552  0.5356775700439298  1.0000
  C   C5        1.0  0.7189562172064325  0.09440602973669603  0.40801298464851493  1.0000
  C   C6        1.0  0.28104745061838776  0.9055957237603568  0.5919858658707253  1.0000
  C   C7        1.0  0.8239791367235652  0.9651317342752321  0.4428581451006081  1.0000
  C   C8        1.0  0.1760223735559378  0.0348689311909567  0.5571394318370082  1.0000
  C   C9        1.0  0.9963405917696234  0.8960119953429667  0.3556939729342686  1.0000
  C   C10       1.0  0.0036621787360999873  0.1039918569256315  0.6443039545275153  1.0000
  C   C11       1.0  0.05343173630187427  0.9636810257554416  0.23765183809538828  1.0000
  C   C12       1.0  0.9465702214748503  0.0363185863797497  0.7623457320553723  1.0000
  C   C13       1.0  0.9410815900150452  0.09492269878186478  0.20886277767959158  1.0000
  C   C14       1.0  0.05892252298234252  0.9050779934937341  0.79113512942164  1.0000
  C   C15       1.0  0.11172027182426092  0.7548223248778213  0.3873214551211105  1.0000
  C   C16       1.0  0.8882829461786841  0.24518047405977236  0.6126764655538252  1.0000
  C   C17       1.0  0.9259327028245677  0.3718585180662187  0.9605429298703423  1.0000
  C   C18       1.0  0.07406925262750244  0.6281410861785234  0.03945370364926502  1.0000
  C   C19       1.0  0.09064635533443516  0.322273466480226  0.8610928868723701  1.0000
  C   C20       1.0  0.9093551549450681  0.6777271989859699  0.13890469006524597  1.0000
  C   C21       1.0  0.21431049750338346  0.19046860964989076  0.8742839013911446  1.0000
  C   C22       1.0  0.7856923152973893  0.8095320731662311  0.12571430894385568  1.0000
  C   C23       1.0  0.16433805665990056  0.11465375627983579  0.9885106569211356  1.0000
  C   C24       1.0  0.8356660516881785  0.8853469202148576  0.01148537691778278  1.0000
  C   C25       1.0  0.9974240703275968  0.17104274058269203  0.08506898424351313  1.0000
  C   C26       1.0  0.002577435302605007  0.8289579091025915  0.9149267194317826  1.0000
  C   C27       1.0  0.3960203636984545  0.13237558703472982  0.7724484445465762  1.0000
  C   C28       1.0  0.6039815517832278  0.867627194552938  0.22754884273096815  1.0000
  S   S1        1.0  0.7145326616550988  0.6264380092676377  0.5858086205507931  1.0000
  S   S2        1.0  0.28546448846277167  0.3735669531794841  0.4142017662068297  1.0000
  S   S3        1.0  0.5301472635848513  0.7651366694263898  0.9131784854269254  1.0000
  S   S4        1.0  0.46984574294724263  0.23485344703956912  0.08683142229146057  1.0000
  N   N1        1.0  0.7751354484577673  0.15780138278567077  0.29423263980288533  1.0000
  N   N2        1.0  0.224866509318957  0.8421982293495206  0.7057649303478825  1.0000
  N   N3        1.0  0.8804163053409296  0.2991666140799652  0.06995530233697875  1.0000
  N   N4        1.0  0.11958520493858041  0.7008340513862309  0.9300422746006373  1.0000
  N   N5        1.0  0.5018129756518731  0.5863749093627818  0.13153759205690818  1.0000
  N   N6        1.0  0.4981626292333843  0.4136192753516426  0.8684722350895125  1.0000
  N   N7        1.0  0.6935796679856664  0.4884095782223668  0.3751314247859055  1.0000
  N   N8        1.0  0.3064179156815143  0.511594283551041  0.6248733353979146  1.0000
