data_image0
_chemical_formula_structural       Ni2H16C28N16
_chemical_formula_sum              "Ni2 H16 C28 N16"
_cell_length_a       8.87553731273559
_cell_length_b       8.875551906324109
_cell_length_c       8.934658658379798
_cell_angle_alpha    84.99127899112936
_cell_angle_beta     84.99109794704249
_cell_angle_gamma    76.92005239144423

_space_group_name_H-M_alt    "P 1"
_space_group_IT_number       1

loop_
  _space_group_symop_operation_xyz
  'x, y, z'

loop_
  _atom_site_type_symbol
  _atom_site_label
  _atom_site_symmetry_multiplicity
  _atom_site_fract_x
  _atom_site_fract_y
  _atom_site_fract_z
  _atom_site_occupancy
  Ni  Ni1       1.0  0.6626237879412643  0.33737493481375935  0.7499999116434213  1.0000
  Ni  Ni2       1.0  0.33737647860949255  0.6626234958774686  0.2500007775754938  1.0000
  H   H1        1.0  0.2647370670112608  0.304234153881012  0.4347268851278587  1.0000
  H   H2        1.0  0.6957671305238479  0.7352618709141723  0.0652731033818554  1.0000
  H   H3        1.0  0.7352575467109261  0.6957642669257565  0.5652742735113279  1.0000
  H   H4        1.0  0.3042336021256987  0.264744687457778  0.9347246349516641  1.0000
  H   H5        1.0  0.13149160389097858  0.1173081472127109  0.5903061838566188  1.0000
  H   H6        1.0  0.8826918661582184  0.8685074007270827  0.9096950906847283  1.0000
  H   H7        1.0  0.8685021439111793  0.8826891192921379  0.40969290374918194  1.0000
  H   H8        1.0  0.11731050119777818  0.1314968298365642  0.09030606285332962  1.0000
  H   H9        1.0  0.16527136640848286  0.8473649623426452  0.508188794101308  1.0000
  H   H10       1.0  0.15263409877989897  0.8347301292576289  0.991810030051973  1.0000
  H   H11       1.0  0.8347251574446802  0.15262998910299067  0.4918102552863459  1.0000
  H   H12       1.0  0.8473682793549387  0.16527411207822235  0.008187763947454083  1.0000
  H   H13       1.0  0.4653791421052988  0.9365840651301409  0.14577410292788073  1.0000
  H   H14       1.0  0.06341761378908477  0.5346214170818441  0.35422524090771657  1.0000
  H   H15       1.0  0.5346233855768789  0.0634143695148666  0.8542263985229328  1.0000
  H   H16       1.0  0.9365826563546167  0.46537701720011865  0.6457743284649882  1.0000
  C   C1        1.0  0.49830310307841336  0.4241248310096423  0.0327967626553658  1.0000
  C   C2        1.0  0.5758751088239508  0.5016958511454135  0.4672042862514729  1.0000
  C   C3        1.0  0.5016985479048942  0.5758724385612551  0.9672050273006935  1.0000
  C   C4        1.0  0.42412741885822675  0.4983025834996011  0.5327962151993406  1.0000
  C   C5        1.0  0.4528361601312483  0.23371149685171838  0.17260583322266854  1.0000
  C   C6        1.0  0.7662902804931376  0.5471604288877145  0.3273928054800451  1.0000
  C   C7        1.0  0.5471629794467392  0.766286935453351  0.8273938300340902  1.0000
  C   C8        1.0  0.23371086634942637  0.4528391704683655  0.6726054753874139  1.0000
  C   C9        1.0  0.3796085742306373  0.13342220751957973  0.27975763856960617  1.0000
  C   C10       1.0  0.8665768806404729  0.6203934745490968  0.220244087998168  1.0000
  C   C11       1.0  0.6203928192928814  0.8665762215578069  0.7202440766114722  1.0000
  C   C12       1.0  0.13342236325701856  0.37960960134957833  0.7797540624283957  1.0000
  C   C13       1.0  0.2826937513282672  0.18470542806606716  0.405811849547213  1.0000
  C   C14       1.0  0.815294496525404  0.7173070185585428  0.09418901472292875  1.0000
  C   C15       1.0  0.7173065224083786  0.8152930098066306  0.5941865999792811  1.0000
  C   C16       1.0  0.18470309110796285  0.28269836360404094  0.905812439576366  1.0000
  C   C17       1.0  0.20686209785537105  0.08104076658630527  0.49099820243262127  1.0000
  C   C18       1.0  0.918959648960801  0.7931373104808654  0.009002692634943786  1.0000
  C   C19       1.0  0.7931333961586378  0.9189588228853152  0.5090005478551094  1.0000
  C   C20       1.0  0.08103933029100568  0.2068669177428433  0.9909976227090672  1.0000
  C   C21       1.0  0.22503155626605323  0.9309714548823249  0.4469845092436132  1.0000
  C   C22       1.0  0.06902867352688706  0.7749688262217234  0.053016445924249915  1.0000
  C   C23       1.0  0.7749641808359584  0.06902696071987438  0.5530187952039469  1.0000
  C   C24       1.0  0.9309700590439718  0.22503657228067903  0.9469804351061416  1.0000
  C   C25       1.0  0.3947633349145435  0.9789466024429455  0.2454597421404757  1.0000
  C   C26       1.0  0.02105341619741102  0.6052382983917254  0.2545398182144893  1.0000
  C   C27       1.0  0.6052369280432616  0.021051824657547492  0.754542066924657  1.0000
  C   C28       1.0  0.9789458277000805  0.3947647775069498  0.7454583322120814  1.0000
  N   N1        1.0  0.5732007751829827  0.29688585792136724  0.9646428924581019  1.0000
  N   N2        1.0  0.7031137118251324  0.42679937750958163  0.5353568148146266  1.0000
  N   N3        1.0  0.4268022638258273  0.7031102541199205  0.03535887838888391  1.0000
  N   N4        1.0  0.29688969255591513  0.57320022220955  0.46464239813093405  1.0000
  N   N5        1.0  0.5463315753106031  0.1731120602376421  0.0546216939453146  1.0000
  N   N6        1.0  0.8268883782374844  0.4536680752385748  0.4453765729178799  1.0000
  N   N7        1.0  0.4536703367254376  0.8268840534174868  0.945379050939515  1.0000
  N   N8        1.0  0.17311313038437956  0.546335008204622  0.5546202698943645  1.0000
  N   N9        1.0  0.42044523190746474  0.39249757019343423  0.1637635527357872  1.0000
  N   N10       1.0  0.6075036544921701  0.5795558666221224  0.336237280623891  1.0000
  N   N11       1.0  0.5795564190758425  0.6074996993774562  0.836238237220272  1.0000
  N   N12       1.0  0.39249835467748545  0.4204448834451496  0.663764191123164  1.0000
  N   N13       1.0  0.3172548672499006  0.8816859811618228  0.3242931037542363  1.0000
  N   N14       1.0  0.118314629270543  0.6827469178928921  0.17570636559768363  1.0000
  N   N15       1.0  0.6827440076824016  0.11831360346828027  0.6757087244199695  1.0000
  N   N16       1.0  0.8816832337873424  0.3172573227168484  0.8242895642455327  1.0000
