data_image0
_chemical_formula_structural       Tl4H4C4O8
_chemical_formula_sum              "Tl4 H4 C4 O8"
_cell_length_a       5.741725035589718
_cell_length_b       6.106556126659002
_cell_length_c       9.028902715977004
_cell_angle_alpha    89.95930776787367
_cell_angle_beta     90.0007614875004
_cell_angle_gamma    90.00636855308157

_space_group_name_H-M_alt    "P 1"
_space_group_IT_number       1

loop_
  _space_group_symop_operation_xyz
  'x, y, z'

loop_
  _atom_site_type_symbol
  _atom_site_label
  _atom_site_symmetry_multiplicity
  _atom_site_fract_x
  _atom_site_fract_y
  _atom_site_fract_z
  _atom_site_occupancy
  Tl  Tl1       1.0  0.9991111989225557  0.004193853058914999  0.0062484025763752  1.0000
  Tl  Tl2       1.0  0.4989240938956811  0.495905192431337  0.5061735910679204  1.0000
  Tl  Tl3       1.0  0.5008278322712413  0.5042016493409134  0.0062890887783809  1.0000
  Tl  Tl4       1.0  0.0010622017365946998  0.9958950260055413  0.5061600131604038  1.0000
  H   H1        1.0  0.5594660739547804  0.05396254113893657  0.8233094656443071  1.0000
  H   H2        1.0  0.05941368673961729  0.44645338855307387  0.3234031615629505  1.0000
  H   H3        1.0  0.9405786991057566  0.5538917606547569  0.8233447697294025  1.0000
  H   H4        1.0  0.4405663799490539  0.9465578129561573  0.32347497221739735  1.0000
  C   C1        1.0  0.4786222387857179  0.945799356765249  0.7381336935082032  1.0000
  C   C2        1.0  0.9780591809344725  0.5540822384391714  0.23804004591244174  1.0000
  C   C3        1.0  0.021441876254549196  0.4457759642464365  0.7380903603810012  1.0000
  C   C4        1.0  0.521880265711104  0.05415220641004479  0.23806646979890192  1.0000
  O   O1        1.0  0.31890556225263816  0.8178260365168268  0.7805859346338125  1.0000
  O   O2        1.0  0.8178154367054515  0.6814803253497244  0.28052392365562173  1.0000
  O   O3        1.0  0.18122674698785346  0.31788374697124766  0.7805925708010051  1.0000
  O   O4        1.0  0.682064617870516  0.18161018000133572  0.2805571310536337  1.0000
  O   O5        1.0  0.5558579874112866  0.9606326021470508  0.6063203219202862  1.0000
  O   O6        1.0  0.05500501745590469  0.5395765423718754  0.106176757948127  1.0000
  O   O7        1.0  0.9442249057741208  0.4605500675586922  0.6063202011682591  1.0000
  O   O8        1.0  0.4449428971025142  0.039575965042814694  0.1061899139683646  1.0000
