data_image0
_chemical_formula_structural       Zn2H36C56N8O8
_chemical_formula_sum              "Zn2 H36 C56 N8 O8"
_cell_length_a       9.235932168237436
_cell_length_b       11.934005112783245
_cell_length_c       13.756857061342563
_cell_angle_alpha    69.39406728701914
_cell_angle_beta     73.843783722549
_cell_angle_gamma    76.35589737448534

_space_group_name_H-M_alt    "P 1"
_space_group_IT_number       1

loop_
  _space_group_symop_operation_xyz
  'x, y, z'

loop_
  _atom_site_type_symbol
  _atom_site_label
  _atom_site_symmetry_multiplicity
  _atom_site_fract_x
  _atom_site_fract_y
  _atom_site_fract_z
  _atom_site_occupancy
  Zn  Zn1       1.0  0.4495313606114237  0.8300359666108365  0.1960062235068563  1.0000
  Zn  Zn2       1.0  0.550471006785429  0.1699620973039728  0.8039934428524519  1.0000
  H   H1        1.0  0.9031729833744677  0.9631037454731979  0.8639330077789182  1.0000
  H   H2        1.0  0.0968295080171799  0.0368979970498273  0.1360531556208855  1.0000
  H   H3        1.0  0.8549202574729479  0.9494748186389403  0.18740686875565146  1.0000
  H   H4        1.0  0.1450878076395128  0.050521451384547306  0.8125820382874523  1.0000
  H   H5        1.0  0.5099692721393867  0.8449225755546835  0.9464087580992384  1.0000
  H   H6        1.0  0.4900245465101705  0.15509005909343898  0.05357944194044249  1.0000
  H   H7        1.0  0.14141998541291664  0.7235960840106159  0.29213698216813094  1.0000
  H   H8        1.0  0.8586089046897313  0.2763936465959702  0.707867244499468  1.0000
  H   H9        1.0  0.9267633461697073  0.6179396736920636  0.3079845845638048  1.0000
  H   H10       1.0  0.07324524611093615  0.3820637032560583  0.6920289559605097  1.0000
  H   H11       1.0  0.8838010368407793  0.5879121656125719  0.14993744203840711  1.0000
  H   H12       1.0  0.11618313428817827  0.4121076384507063  0.8500766575535934  1.0000
  H   H13       1.0  0.05682793496170292  0.6534246540769358  0.9728335687116355  1.0000
  H   H14       1.0  0.9431512699700095  0.346584354445632  0.027177526932256127  1.0000
  H   H15       1.0  0.5195026960668017  0.4320905399275504  0.8202681343429106  1.0000
  H   H16       1.0  0.4805040572608519  0.5679020688812884  0.1797323241985396  1.0000
  H   H17       1.0  0.38827388065198676  0.2363024196650514  0.5977147682747842  1.0000
  H   H18       1.0  0.6117281925730752  0.7636911212232318  0.4022863322309433  1.0000
  H   H19       1.0  0.23754566142311967  0.36286420608335124  0.4575435424528111  1.0000
  H   H20       1.0  0.7624614059002257  0.63713292213464  0.5424562061430436  1.0000
  H   H21       1.0  0.1515574277579219  0.5809611082655195  0.43234858277811833  1.0000
  H   H22       1.0  0.8484633149658477  0.4190404934204325  0.5676412843687615  1.0000
  H   H23       1.0  0.21426254316209997  0.6855374740417658  0.5401836981849898  1.0000
  H   H24       1.0  0.7857555413956305  0.31446051276206793  0.4598099753924387  1.0000
  H   H25       1.0  0.43743225742063174  0.759504033450021  0.5544008580238966  1.0000
  H   H26       1.0  0.5625790881539386  0.24047587948551546  0.4456025546491702  1.0000
  H   H27       1.0  0.45362969196868624  0.9429636858248004  0.5942635456247914  1.0000
  H   H28       1.0  0.546362341987205  0.05702814190050279  0.40573206414579494  1.0000
  H   H29       1.0  0.397848847478933  0.9462454270504068  0.7801021236719097  1.0000
  H   H30       1.0  0.6021444817855653  0.05375181583882241  0.2198930366115661  1.0000
  H   H31       1.0  0.31647523222100205  0.5754732631843353  0.8916288525232687  1.0000
  H   H32       1.0  0.6835091019066297  0.42452490177647934  0.10837507629809541  1.0000
  H   H33       1.0  0.9917252622070408  0.902688812331064  0.3691678974772687  1.0000
  H   H34       1.0  0.008263251535261399  0.09731113829110431  0.6308346615767491  1.0000
  H   H35       1.0  0.24945878895164952  0.0325239092854233  0.5117642466046064  1.0000
  H   H36       1.0  0.7505273609573849  0.9674832771001433  0.48824021378673166  1.0000
  C   C1        1.0  0.7213825159079692  0.8980009818026387  0.05779225720138472  1.0000
  C   C2        1.0  0.27862094888044453  0.10201518868776561  0.9421987757689153  1.0000
  C   C3        1.0  0.8649498243384954  0.9510527876522871  0.028662335257983892  1.0000
  C   C4        1.0  0.13504199187645582  0.04895173510205099  0.9713243664098741  1.0000
  C   C5        1.0  0.9474575267113965  0.9784397755390871  0.9230928735871087  1.0000
  C   C6        1.0  0.0525401886448762  0.021558339863155092  0.0769026079317001  1.0000
  C   C7        1.0  0.9185456903980124  0.9727735023447154  0.1052704291199406  1.0000
  C   C8        1.0  0.0814625813525396  0.027228182149414696  0.894719697979042  1.0000
  C   C9        1.0  0.40708727550117657  0.8069071062330406  0.9927163196815343  1.0000
  C   C10       1.0  0.592905446078774  0.19310007707746024  0.007279571853544587  1.0000
  C   C11       1.0  0.20289791567888937  0.7155486818615984  0.03706967296467672  1.0000
  C   C12       1.0  0.7971012055303036  0.28444937635600814  0.9629357262244227  1.0000
  C   C13       1.0  0.22559182538875433  0.7364115593406948  0.12642065261886168  1.0000
  C   C14       1.0  0.7744173713897168  0.26358645447324147  0.8735798594949743  1.0000
  C   C15       1.0  0.12614367035548213  0.7022480859020562  0.22523956068008025  1.0000
  C   C16       1.0  0.873870345292879  0.2977489705108383  0.7747653788752799  1.0000
  C   C17       1.0  0.006211256791665761  0.6459361801294462  0.23211266862555388  1.0000
  C   C18       1.0  0.9937974907324902  0.3540654175478081  0.7678948392933336  1.0000
  C   C19       1.0  0.9826036605691397  0.6278758775042165  0.14221170334457875  1.0000
  C   C20       1.0  0.017390693164742267  0.3721303318559352  0.8577965210643014  1.0000
  C   C21       1.0  0.07944886776697763  0.6632196597251365  0.042730076729427025  1.0000
  C   C22       1.0  0.9205385294037784  0.3367874984147435  0.9572785077255616  1.0000
  C   C23       1.0  0.35141191839989716  0.7617368004353506  0.8462625508770502  1.0000
  C   C24       1.0  0.6485746921882767  0.23826134782517272  0.15374165986249005  1.0000
  C   C25       1.0  0.46453859641857054  0.4369909904625474  0.7584431295403676  1.0000
  C   C26       1.0  0.5354644184716122  0.5630034534152342  0.24155678302219039  1.0000
  C   C27       1.0  0.3859207540145705  0.39167896293845667  0.6441053884773993  1.0000
  C   C28       1.0  0.6140866073195852  0.6083163606870841  0.3558933969188303  1.0000
  C   C29       1.0  0.35045372359594057  0.33333456017743407  0.5835852755667404  1.0000
  C   C30       1.0  0.649547181663003  0.6666589944870438  0.4164145976786671  1.0000
  C   C31       1.0  0.26711185794410147  0.40458135722306565  0.5069217676598754  1.0000
  C   C32       1.0  0.7328946492586397  0.5954121719688458  0.49307555147723997  1.0000
  C   C33       1.0  0.2184858588806975  0.5295870785074257  0.49212268701924705  1.0000
  C   C34       1.0  0.7815226986425615  0.4704136783688923  0.5078720278857318  1.0000
  C   C35       1.0  0.25263825968479386  0.5889758732940321  0.5520834114576018  1.0000
  C   C36       1.0  0.7473720934740057  0.41102125338642986  0.4479120527101302  1.0000
  C   C37       1.0  0.3382281294613706  0.5177482532397021  0.6278094260502841  1.0000
  C   C38       1.0  0.6617786833379782  0.48224434471702426  0.37219320509365167  1.0000
  C   C39       1.0  0.37896694373907275  0.65571070768695  0.7209724808530924  1.0000
  C   C40       1.0  0.6210307153322105  0.34428284128032527  0.27903312522209234  1.0000
  C   C41       1.0  0.4135105204393669  0.759302220796343  0.6364468537434861  1.0000
  C   C42       1.0  0.5864881678307373  0.24069133971632076  0.363554910186231  1.0000
  C   C43       1.0  0.4210352609074022  0.8627407202637941  0.6587811770424423  1.0000
  C   C44       1.0  0.5789665660317739  0.13724741338857172  0.341217255005752  1.0000
  C   C45       1.0  0.3915669120621176  0.865011680151234  0.7631547159884847  1.0000
  C   C46       1.0  0.6084252408371782  0.13498012586985197  0.23684523898707965  1.0000
  C   C47       1.0  0.3448706345526703  0.6563836952893496  0.8262718807073456  1.0000
  C   C48       1.0  0.6551251494264891  0.34360717072427593  0.17373055024857814  1.0000
  C   C49       1.0  0.28265342377527963  0.9212361740309518  0.3655185916786793  1.0000
  C   C50       1.0  0.7173319514589309  0.078775531070491  0.6344868283100524  1.0000
  C   C51       1.0  0.13577388965415343  0.9629982135827503  0.4337709436528101  1.0000
  C   C52       1.0  0.8642245842227041  0.03700979229085989  0.5662337383862308  1.0000
  C   C53       1.0  0.9945546778738789  0.9449748527165552  0.4269748950659036  1.0000
  C   C54       1.0  0.005436505620259902  0.05502958614500389  0.5730301327640107  1.0000
  C   C55       1.0  0.13946361708323707  0.018676378237415702  0.5072472454092392  1.0000
  C   C56       1.0  0.8605288417346202  0.9813271517864451  0.4927570796795422  1.0000
  N   N1        1.0  0.35427123977660097  0.7929879696919145  0.0956984051978154  1.0000
  N   N2        1.0  0.6457353072349223  0.20701187988424155  0.9042998913941532  1.0000
  N   N3        1.0  0.32080622983654916  0.7619504051693226  0.9533167943870212  1.0000
  N   N4        1.0  0.6791826770360672  0.238047722773544  0.046688422471525784  1.0000
  N   N5        1.0  0.4644952201397317  0.34481988578038164  0.726350205314894  1.0000
  N   N6        1.0  0.5355135040518489  0.6551736375633509  0.27364522313790474  1.0000
  N   N7        1.0  0.39004696274422906  0.5433390190740609  0.7028086095435739  1.0000
  N   N8        1.0  0.6099559646122402  0.4566563162478444  0.2971939572212818  1.0000
  O   O1        1.0  0.6242541462940424  0.9159774241948284  0.1426498547570391  1.0000
  O   O2        1.0  0.3757511171556517  0.08402421119366468  0.8573546955816836  1.0000
  O   O3        1.0  0.7008328142125181  0.8418947241978217  0.002694869133449567  1.0000
  O   O4        1.0  0.2991383589360197  0.1581243833679906  0.9972943859826344  1.0000
  O   O5        1.0  0.2664513744295789  0.8913730257209805  0.28721122931766263  1.0000
  O   O6        1.0  0.7335493162751306  0.10862864668546017  0.7127920329838772  1.0000
  O   O7        1.0  0.4077804345259537  0.9154325236429841  0.3869888901362587  1.0000
  O   O8        1.0  0.5922092757274129  0.08458551546793559  0.613008656532891  1.0000
