data_image0
_chemical_formula_structural       Ni2H32C30N12O8
_chemical_formula_sum              "Ni2 H32 C30 N12 O8"
_cell_length_a       7.141045661228633
_cell_length_b       11.154982269583671
_cell_length_c       11.154972119130326
_cell_angle_alpha    65.21062219972634
_cell_angle_beta     80.34575602179177
_cell_angle_gamma    80.3457196258179

_space_group_name_H-M_alt    "P 1"
_space_group_IT_number       1

loop_
  _space_group_symop_operation_xyz
  'x, y, z'

loop_
  _atom_site_type_symbol
  _atom_site_label
  _atom_site_symmetry_multiplicity
  _atom_site_fract_x
  _atom_site_fract_y
  _atom_site_fract_z
  _atom_site_occupancy
  Ni  Ni1       1.0  0.18310211615909824  0.5975510354911577  0.9121763280501014  1.0000
  Ni  Ni2       1.0  0.6831045179936839  0.9121764901562771  0.5975517588098992  1.0000
  H   H1        1.0  0.43531524312378184  0.6500664084510461  0.05485750957148389  1.0000
  H   H2        1.0  0.935318376450262  0.05485860529484648  0.6500677531190602  1.0000
  H   H3        1.0  0.5136850024727339  0.6832684006766738  0.9027581555367589  1.0000
  H   H4        1.0  0.013688803460489394  0.9027571648458589  0.6832702074802767  1.0000
  H   H5        1.0  0.0802339991540606  0.27129058168000597  0.5196983686790588  1.0000
  H   H6        1.0  0.5802347184520472  0.5196992614018112  0.271288145780943  1.0000
  H   H7        1.0  0.17465687923882464  0.5269687118691451  0.19738609904653268  1.0000
  H   H8        1.0  0.67465562913727  0.19738631484511152  0.5269667698533809  1.0000
  H   H9        1.0  0.0894289687299548  0.11409853260994397  0.41269684707465615  1.0000
  H   H10       1.0  0.5894271464545328  0.412691894092049  0.11410143682213905  1.0000
  H   H11       1.0  0.1044143319030155  0.10018546730151456  0.19196622944093628  1.0000
  H   H12       1.0  0.6044162696909225  0.19196047302636285  0.10018532189332062  1.0000
  H   H13       1.0  0.13762450839035273  0.3084126861215991  0.9824661627791825  1.0000
  H   H14       1.0  0.6376262189093682  0.9824590434044322  0.3084154258863806  1.0000
  H   H15       1.0  0.8805492327222453  0.24269547340382042  0.7663081780341656  1.0000
  H   H16       1.0  0.3805546387964186  0.7663121770688548  0.24269565528654635  1.0000
  H   H17       1.0  0.5576200889528453  0.416774332578079  0.9429664595291242  1.0000
  H   H18       1.0  0.05762746618912473  0.942965567236143  0.4167812595833739  1.0000
  H   H19       1.0  0.6912963287250949  0.33162797364828817  0.5936594418873469  1.0000
  H   H20       1.0  0.19130027882991385  0.5936614842521876  0.331624825216302  1.0000
  H   H21       1.0  0.38773938946093284  0.46783861884233585  0.5148637892711747  1.0000
  H   H22       1.0  0.8877379758113124  0.5148679517868756  0.4678332192729329  1.0000
  H   H23       1.0  0.17886935203333112  0.5735146654477035  0.6570689778566389  1.0000
  H   H24       1.0  0.678869333651079  0.6570708421479025  0.5735104117367625  1.0000
  H   H25       1.0  0.8087864894531763  0.561245066690951  0.0724910943898466  1.0000
  H   H26       1.0  0.3087891129522192  0.07249414196424199  0.5612435211023834  1.0000
  H   H27       1.0  0.6180601503463095  0.9008513968660946  0.16916885101668577  1.0000
  H   H28       1.0  0.11806089698255562  0.16916777887754358  0.9008484777822615  1.0000
  H   H29       1.0  0.932973737411004  0.9862122516705936  0.057560195023406  1.0000
  H   H30       1.0  0.43297026485583257  0.05756008108366468  0.9862102194185736  1.0000
  H   H31       1.0  0.17009186181072528  0.8542194001241651  0.9539734979136584  1.0000
  H   H32       1.0  0.6700891792913669  0.953975069483583  0.8542175918811166  1.0000
  C   C1        1.0  0.1581030131415559  0.43081674571264006  0.1999508914861536  1.0000
  C   C2        1.0  0.6581071874754659  0.19994975395216835  0.43081841708929136  1.0000
  C   C3        1.0  0.1309238041062102  0.32238135187951394  0.3222971644815686  1.0000
  C   C4        1.0  0.630925924099806  0.32229475494274595  0.32237848837920063  1.0000
  C   C5        1.0  0.11149506618905038  0.20052368078552252  0.3196563103581909  1.0000
  C   C6        1.0  0.6114939412253619  0.31964823323635017  0.2005267506776178  1.0000
  C   C7        1.0  0.11757051543486341  0.19386557755972686  0.19701844027492393  1.0000
  C   C8        1.0  0.6175710877191849  0.19701405764672586  0.1938726215309785  1.0000
  C   C9        1.0  0.13922775322821931  0.3074579868532438  0.08023120111102601  1.0000
  C   C10       1.0  0.6392316298484391  0.08023062790988429  0.3074590037251212  1.0000
  C   C11       1.0  0.522530353686527  0.4236859763065722  0.8491006580644861  1.0000
  C   C12       1.0  0.022537510420782735  0.8491023648354388  0.42368756944885877  1.0000
  C   C13       1.0  0.6448501830887496  0.35737623248766676  0.7782919531143192  1.0000
  C   C14       1.0  0.14484806339347503  0.778288201014362  0.35737922686594464  1.0000
  C   C15       1.0  0.5964525063269904  0.3762455242962304  0.6543856128312342  1.0000
  C   C16       1.0  0.09644970289923553  0.6543928167177454  0.37624519971338805  1.0000
  C   C17       1.0  0.4283284414215063  0.4537674542196226  0.6099467319747235  1.0000
  C   C18       1.0  0.9283320362204465  0.60994986894692  0.45376299147584825  1.0000
  C   C19       1.0  0.3125744616933801  0.5133150690958529  0.687582852140629  1.0000
  C   C20       1.0  0.8125732632134447  0.6875860271727985  0.5133153167729887  1.0000
  C   C21       1.0  0.8305533318514051  0.6563129544455393  0.07090510647105942  1.0000
  C   C22       1.0  0.33055701228305884  0.07090408304406279  0.6563086158223326  1.0000
  C   C23       1.0  0.6846559019124641  0.724099065542816  0.1285722594509694  1.0000
  C   C24       1.0  0.1846497230052933  0.12857332659079646  0.7241001038140026  1.0000
  C   C25       1.0  0.7251551079265184  0.8452738731704269  0.12461884829981087  1.0000
  C   C26       1.0  0.22514908112124496  0.12462270218595958  0.8452736848268501  1.0000
  C   C27       1.0  0.8999759160309895  0.8920743328769588  0.06283548342827325  1.0000
  C   C28       1.0  0.3999815779733069  0.0628350052162929  0.8920740526125711  1.0000
  C   C29       1.0  0.03349163171174749  0.819628031913773  0.0052772617743669864  1.0000
  C   C30       1.0  0.5334905275790406  0.0052791472571982  0.8196243521569286  1.0000
  N   N1        1.0  0.9498952778546441  0.568764163086456  0.839218666334574  1.0000
  N   N2        1.0  0.44989705450999645  0.8392217282027086  0.5687614196755036  1.0000
  N   N3        1.0  0.8274837795955251  0.6574712052052122  0.805696822246112  1.0000
  N   N4        1.0  0.327486111266822  0.8056977111334331  0.6574714102562282  1.0000
  N   N5        1.0  0.7002936881331794  0.7451547462682057  0.7771170908845447  1.0000
  N   N6        1.0  0.20029861351477518  0.7771182734915028  0.7451547334407991  1.0000
  N   N7        1.0  0.15968370611066968  0.42418661011114983  0.08272531792807307  1.0000
  N   N8        1.0  0.6596915478632186  0.08272185665572349  0.4241857930946366  1.0000
  N   N9        1.0  0.36080549513511084  0.49928582685057404  0.8048824948797134  1.0000
  N   N10       1.0  0.8608020957720016  0.8048834290317826  0.4992893960752199  1.0000
  N   N11       1.0  0.9977937574404407  0.7028228995839851  0.010090391210575096  1.0000
  N   N12       1.0  0.4977923925964448  0.0100892024774595  0.702824147319383  1.0000
  O   O1        1.0  0.4265441032378165  0.6276075710925821  0.9782984829260001  1.0000
  O   O2        1.0  0.9265423460896686  0.9782995535594523  0.6276089604951665  1.0000
  O   O3        1.0  0.12695820916241735  0.34438805426461977  0.4323403510581869  1.0000
  O   O4        1.0  0.6269553857383485  0.432341087201351  0.3443846586373168  1.0000
  O   O5        1.0  0.8006531869058408  0.27949984499633  0.8315280984488282  1.0000
  O   O6        1.0  0.3006606636680331  0.8315291945870841  0.2795017225382352  1.0000
  O   O7        1.0  0.5184243113624804  0.6735032129774509  0.1819391293570691  1.0000
  O   O8        1.0  0.018428523362132406  0.18193863314153444  0.6735028394926273  1.0000
