data_image0
_chemical_formula_structural       Y4H32C24O28
_chemical_formula_sum              "Y4 H32 C24 O28"
_cell_length_a       7.660491720285442
_cell_length_b       10.696766328370943
_cell_length_c       12.660922272251522
_cell_angle_alpha    71.99571037983897
_cell_angle_beta     72.390899119367
_cell_angle_gamma    69.01761160170274

_space_group_name_H-M_alt    "P 1"
_space_group_IT_number       1

loop_
  _space_group_symop_operation_xyz
  'x, y, z'

loop_
  _atom_site_type_symbol
  _atom_site_label
  _atom_site_symmetry_multiplicity
  _atom_site_fract_x
  _atom_site_fract_y
  _atom_site_fract_z
  _atom_site_occupancy
  Y   Y1        1.0  0.05458345319338799  0.6895907226425492  0.7704439929561532  1.0000
  Y   Y2        1.0  0.4854123668720689  0.18955729020383671  0.2704671944680399  1.0000
  Y   Y3        1.0  0.945414330630847  0.31040990680060077  0.22955692994568014  1.0000
  Y   Y4        1.0  0.5145882073155337  0.8104423123189548  0.7295315511466214  1.0000
  H   H1        1.0  0.8075224937761761  0.5032537351241047  0.8525906581711878  1.0000
  H   H2        1.0  0.836738764450196  0.003313995774320199  0.3526223533689006  1.0000
  H   H3        1.0  0.19247719899583154  0.4967468945028272  0.14740972653819995  1.0000
  H   H4        1.0  0.16326101896753206  0.9966856064728018  0.6473771818911731  1.0000
  H   H5        1.0  0.9925270250426337  0.42131704356643235  0.9119483767586088  1.0000
  H   H6        1.0  0.674296792116891  0.9213733822826456  0.41194886811383924  1.0000
  H   H7        1.0  0.007471967605219672  0.5786825584050207  0.0880519481468838  1.0000
  H   H8        1.0  0.32570290065511665  0.07862724734427928  0.5880515165955558  1.0000
  H   H9        1.0  0.9151942186185521  0.16469030449715655  0.5155869361618599  1.0000
  H   H10       1.0  0.4045229576021611  0.6646362288553149  0.015594436523102224  1.0000
  H   H11       1.0  0.08480789180070737  0.8353082701863742  0.48441225255484005  1.0000
  H   H12       1.0  0.5954778533477525  0.33536440067972245  0.9844061996392596  1.0000
  H   H13       1.0  0.8376483385512188  0.20219024154425816  0.6506644866435991  1.0000
  H   H14       1.0  0.3095380199616498  0.7021506080838479  0.15066529516919763  1.0000
  H   H15       1.0  0.16235368122232074  0.7978093605190747  0.3493355515224153  1.0000
  H   H16       1.0  0.6904639998118822  0.29784899397948544  0.8493347429968168  1.0000
  H   H17       1.0  0.4892530114537194  0.24152178776965633  0.6383879067194869  1.0000
  H   H18       1.0  0.6308979168093032  0.741447268264359  0.1383625530729446  1.0000
  H   H19       1.0  0.5107475174257912  0.758476786362536  0.3616128612880516  1.0000
  H   H20       1.0  0.3691009851928301  0.25855336108689647  0.8616386212818554  1.0000
  H   H21       1.0  0.6071118775085579  0.3634659314362949  0.5416445588079739  1.0000
  H   H22       1.0  0.48776694286702593  0.8634353361370941  0.041679905289790056  1.0000
  H   H23       1.0  0.392889860194586  0.6365316152241932  0.45835561120321705  1.0000
  H   H24       1.0  0.5122350769065139  0.13656426592623916  0.9583201328762244  1.0000
  H   H25       1.0  0.9504489672308056  0.8629843319682139  0.031483240911491475  1.0000
  H   H26       1.0  0.15496686080364697  0.3629271903855411  0.5315785894885751  1.0000
  H   H27       1.0  0.04954960736329633  0.13701629775060548  0.9685168923449226  1.0000
  H   H28       1.0  0.8450332500221123  0.6370724114940173  0.4684219868698919  1.0000
  H   H29       1.0  0.8875037283550288  0.9983877235075764  0.9176771597252725  1.0000
  H   H30       1.0  0.19649349034178004  0.4982415218395886  0.4177217236430337  1.0000
  H   H31       1.0  0.11249521895519617  0.0016139342342854001  0.0823219922366576  1.0000
  H   H32       1.0  0.803506993200095  0.5017591080630125  0.5822778714209422  1.0000
  C   C1        1.0  0.8049159587269232  0.014043283619557199  0.6467582829263068  1.0000
  C   C2        1.0  0.5342947293857494  0.5139967033667432  0.1467822309552744  1.0000
  C   C3        1.0  0.1950849428687107  0.9859563185356705  0.35324150378673386  1.0000
  C   C4        1.0  0.46570608156416415  0.4860039261682942  0.8532184052070875  1.0000
  C   C5        1.0  0.7994142878220531  0.1633461621290735  0.592283930109943  1.0000
  C   C6        1.0  0.4449820157169667  0.6633080659119769  0.09227624273593452  1.0000
  C   C7        1.0  0.20058512287955227  0.8366524120950128  0.4077165864446145  1.0000
  C   C8        1.0  0.5550180497711567  0.3366935917379904  0.9077231606789625  1.0000
  C   C9        1.0  0.6057860211744528  0.25593701989209444  0.5644746473009263  1.0000
  C   C10       1.0  0.57381559860994  0.7558835731258924  0.0644542659551348  1.0000
  C   C11       1.0  0.39421748949310836  0.7440636101023798  0.43552466102357107  1.0000
  C   C12       1.0  0.42618409416206754  0.24411705650103244  0.9355461187542532  1.0000
  C   C13       1.0  0.5647446134763568  0.23150960156595354  0.4641630502000283  1.0000
  C   C14       1.0  0.7396042470877328  0.7315155275500304  0.9641318243640243  1.0000
  C   C15       1.0  0.43525591540315356  0.7684889725662386  0.5358377178075031  1.0000
  C   C16       1.0  0.26039544568428147  0.2684851020769017  0.03586856034536371  1.0000
  C   C17       1.0  0.1834258527591574  0.8933671410994816  0.8946258916038091  1.0000
  C   C18       1.0  0.02857730906809756  0.3933426639581015  0.3946369545522402  1.0000
  C   C19       1.0  0.816574258066602  0.10663246078008369  0.10537468475465063  1.0000
  C   C20       1.0  0.9714223837039101  0.6066579656688234  0.6053634301571478  1.0000
  C   C21       1.0  0.9957291913827859  0.9498377524466336  0.9703614415101356  1.0000
  C   C22       1.0  0.08407696888351528  0.4497795727055092  0.470385481580209  1.0000
  C   C23       1.0  0.004271710212847805  0.050161849708594296  0.029638345202911906  1.0000
  C   C24       1.0  0.9159228145342126  0.550220029541613  0.5296140536798717  1.0000
  O   O1        1.0  0.9613272521389506  0.9309229578880005  0.6740030100718429  1.0000
  O   O2        1.0  0.433666102505555  0.4308944328072285  0.17409398310908847  1.0000
  O   O3        1.0  0.038674394918473395  0.069075616152297  0.3259980093886626  1.0000
  O   O4        1.0  0.5663335902664527  0.5691061968197033  0.8259064016002996  1.0000
  O   O5        1.0  0.6548807321617363  0.9816473347165625  0.6614107410428645  1.0000
  O   O6        1.0  0.7020691212052128  0.48158834362771324  0.1614057830784432  1.0000
  O   O7        1.0  0.34512128761179645  0.018352267346777796  0.33858929712315  1.0000
  O   O8        1.0  0.2979305715667947  0.5184122859992113  0.8385946016309449  1.0000
  O   O9        1.0  0.6630402722016198  0.2642507473804798  0.3631482254184347  1.0000
  O   O10       1.0  0.7096281750957089  0.7642550083440652  0.8631014676855174  1.0000
  O   O11       1.0  0.3369591384999847  0.7357478268436068  0.6368522911361297  1.0000
  O   O12       1.0  0.2903703994983999  0.23574562137475402  0.1368986655709037  1.0000
  O   O13       1.0  0.43037256118500283  0.18182078029655463  0.4756527674081426  1.0000
  O   O14       1.0  0.9121468680328917  0.6818720247604944  0.975639117166452  1.0000
  O   O15       1.0  0.5696287584643827  0.8181777941113068  0.5243472109539696  1.0000
  O   O16       1.0  0.08785324279287471  0.3181275771190641  0.024361459192007825  1.0000
  O   O17       1.0  0.1971222697815733  0.8039523476929061  0.840720517487739  1.0000
  O   O18       1.0  0.1582157609661652  0.30390696284342056  0.3407493640279142  1.0000
  O   O19       1.0  0.8028767228662872  0.19604725427854666  0.1592798074177537  1.0000
  O   O20       1.0  0.8417847225757172  0.6960936670591733  0.6592502310360615  1.0000
  O   O21       1.0  0.32820803548828775  0.9308916066776194  0.8822628516290791  1.0000
  O   O22       1.0  0.8586918365294383  0.43091545284499205  0.3822076449116453  1.0000
  O   O23       1.0  0.6717913298756886  0.06910902331686937  0.11773649198192973  1.0000
  O   O24       1.0  0.14130906506619584  0.5690841493102352  0.6177921418013952  1.0000
  O   O25       1.0  0.9457046265032365  0.4879406400897964  0.844598217818117  1.0000
  O   O26       1.0  0.721849328127689  0.9880059391511792  0.34461461039857266  1.0000
  O   O27       1.0  0.0542951569144918  0.5120589621573259  0.15540131744196373  1.0000
  O   O28       1.0  0.27815045529003873  0.011993663095942998  0.6553849248615009  1.0000
