data_image0
_chemical_formula_structural       Cu6H24C34I6N12
_chemical_formula_sum              "Cu6 H24 C34 I6 N12"
_cell_length_a       7.572646138467822
_cell_length_b       9.632516083253352
_cell_length_c       15.605557925235441
_cell_angle_alpha    87.41067777255628
_cell_angle_beta     78.60965380208901
_cell_angle_gamma    84.39211150730763

_space_group_name_H-M_alt    "P 1"
_space_group_IT_number       1

loop_
  _space_group_symop_operation_xyz
  'x, y, z'

loop_
  _atom_site_type_symbol
  _atom_site_label
  _atom_site_symmetry_multiplicity
  _atom_site_fract_x
  _atom_site_fract_y
  _atom_site_fract_z
  _atom_site_occupancy
  Cu  Cu1       1.0  0.4629510580067657  0.4236333261291633  0.4445209423884863  1.0000
  Cu  Cu2       1.0  0.5370418915331002  0.5763482898774724  0.5554781246495821  1.0000
  Cu  Cu3       1.0  0.30334422697716684  0.5270269476206407  0.03408934892372171  1.0000
  Cu  Cu4       1.0  0.6966534054390364  0.47298008264540664  0.9659143076601567  1.0000
  Cu  Cu5       1.0  0.04234960405576514  0.6240680933233946  0.9632981884466788  1.0000
  Cu  Cu6       1.0  0.9576634558658481  0.37595690333214543  0.03669938359026051  1.0000
  H   H1        1.0  0.8149120638926844  0.884879598290958  0.9319342432211997  1.0000
  H   H2        1.0  0.18516108594540978  0.1151732165237505  0.0680689366690856  1.0000
  H   H3        1.0  0.7200702592587261  0.012992804893151808  0.8065147333476688  1.0000
  H   H4        1.0  0.27995399036547036  0.9870400039067985  0.19348894308361514  1.0000
  H   H5        1.0  0.05227768975182558  0.6970010205913796  0.6411777758814167  1.0000
  H   H6        1.0  0.9476812852875155  0.3029893648136904  0.358825629821915  1.0000
  H   H7        1.0  0.12751484990065612  0.582100249038575  0.7735576987724926  1.0000
  H   H8        1.0  0.8724800284638331  0.41789835077744886  0.2264464274088454  1.0000
  H   H9        1.0  0.7087070604275281  0.1319833015315552  0.6889288377130072  1.0000
  H   H10       1.0  0.291266951556878  0.8680301843703829  0.3110657537000705  1.0000
  H   H11       1.0  0.613820202498779  0.2356565221246996  0.5559189977058736  1.0000
  H   H12       1.0  0.38616529376996295  0.7643496656357343  0.4440687246031843  1.0000
  H   H13       1.0  0.8270372105263275  0.8551909263921615  0.4201716085696674  1.0000
  H   H14       1.0  0.17294373087649  0.1447843516875693  0.5798342037365742  1.0000
  H   H15       1.0  0.9147237647004758  0.7533698488795437  0.5500664239385102  1.0000
  H   H16       1.0  0.08524353655763406  0.2466148846759282  0.4499495255750858  1.0000
  H   H17       1.0  0.4892662112010341  0.2986088843438637  0.1341702020169606  1.0000
  H   H18       1.0  0.5107602641666488  0.7013701191706475  0.8658211210608613  1.0000
  H   H19       1.0  0.15559269967763353  0.665028879079898  0.19523860196339632  1.0000
  H   H20       1.0  0.8444613154826539  0.3349551966979334  0.8047592069313083  1.0000
  H   H21       1.0  0.19136816105236676  0.6348665407648895  0.3532478735381162  1.0000
  H   H22       1.0  0.8086382340489562  0.3651207099392337  0.6467533817759303  1.0000
  H   H23       1.0  0.7370818772015609  0.9457906441125417  0.30755361826678757  1.0000
  H   H24       1.0  0.2629072119312567  0.05420126245481072  0.6924427475476876  1.0000
  C   C1        1.0  0.8646021895253214  0.8470689116991963  0.8659321743794877  1.0000
  C   C2        1.0  0.13543802864147383  0.15295992435427053  0.13406680999217  1.0000
  C   C3        1.0  0.8133989067490855  0.919437623016286  0.7942382380014692  1.0000
  C   C4        1.0  0.18662430502398308  0.08058438793295149  0.2057568908901146  1.0000
  C   C5        1.0  0.8767555954285055  0.8682997879893861  0.7096123812342938  1.0000
  C   C6        1.0  0.12322701253792448  0.1317127488644303  0.2903791470465862  1.0000
  C   C7        1.0  0.9937587064055291  0.7448002994896611  0.7034745587319193  1.0000
  C   C8        1.0  0.006215787124787679  0.25521439916498423  0.2965244581482906  1.0000
  C   C9        1.0  0.03847884950374686  0.6788797231285956  0.7779013601555818  1.0000
  C   C10       1.0  0.9615126175471003  0.32113443097126276  0.22210049203255983  1.0000
  C   C11       1.0  0.822806955516533  0.9350046480650535  0.6305601319871883  1.0000
  C   C12       1.0  0.17718238770574857  0.06499619176921811  0.3694519646056023  1.0000
  C   C13       1.0  0.7363902891210684  0.07136215735809509  0.629672713626924  1.0000
  C   C14       1.0  0.2635922995574375  0.9286288515529578  0.3703324363254055  1.0000
  C   C15       1.0  0.6831703328321409  0.1307140263535516  0.5547780841076316  1.0000
  C   C16       1.0  0.31682486355366274  0.8692717791789232  0.4452194105509193  1.0000
  C   C17       1.0  0.715268181099553  0.054541555412654895  0.4774864790042841  1.0000
  C   C18       1.0  0.28470829533292624  0.9454519252148188  0.5225035345861145  1.0000
  C   C19       1.0  0.8030192370112558  0.9194306647635669  0.4777271503587031  1.0000
  C   C20       1.0  0.1969664796323656  0.08055424534590828  0.522281238685693  1.0000
  C   C21       1.0  0.8542845585099386  0.8607236917284457  0.5525629899198349  1.0000
  C   C22       1.0  0.1456872598796224  0.1392717368810636  0.4474561568103113  1.0000
  C   C23       1.0  0.6552193226974621  0.11119056499322258  0.3992554994385529  1.0000
  C   C24       1.0  0.34476524071166625  0.8888084341222678  0.6007370348336353  1.0000
  C   C25       1.0  0.5399759396288886  0.23696451451436218  0.3037264005965952  1.0000
  C   C26       1.0  0.4600297051214853  0.7629832709163935  0.6962853057259082  1.0000
  C   C27       1.0  0.4384728912071195  0.35626413497573856  0.2704040810359132  1.0000
  C   C28       1.0  0.5615499116758971  0.643707932418927  0.7296012093169253  1.0000
  C   C29       1.0  0.42048761946114144  0.37331474713359813  0.1832096839003512  1.0000
  C   C30       1.0  0.5795073007894657  0.6266848553686941  0.8167931187142798  1.0000
  C   C31       1.0  0.23710256503185417  0.5763978520223888  0.2178490203885275  1.0000
  C   C32       1.0  0.7629187319225605  0.4236044374631475  0.7821527131387995  1.0000
  C   C33       1.0  0.2585659469014273  0.5602493906627969  0.3041073530838503  1.0000
  C   C34       1.0  0.7414397111856202  0.43974984311144266  0.6958774545162284  1.0000
  I   I1        1.0  0.7478196295621797  0.5734128630368999  0.40645048953616225  1.0000
  I   I2        1.0  0.25216880146733434  0.42658018700544176  0.5935490888168289  1.0000
  I   I3        1.0  0.26283536465270885  0.7965617894485391  0.013076436909756186  1.0000
  I   I4        1.0  0.7371619050833047  0.2034541152654512  0.9869115025851016  1.0000
  I   I5        1.0  0.755476117724818  0.617558595698263  0.0896858224825152  1.0000
  I   I6        1.0  0.244542942237963  0.3824559785475259  0.9103091835563077  1.0000
  N   N1        1.0  0.9743049684297418  0.7272726434962633  0.8588877916958424  1.0000
  N   N2        1.0  0.025725969571155388  0.2727438362794246  0.14112376909619684  1.0000
  N   N3        1.0  0.6790600000062951  0.04363894474212061  0.322047004313049  1.0000
  N   N4        1.0  0.3209429945939063  0.9563467848127516  0.6779429466728927  1.0000
  N   N5        1.0  0.6074987377250095  0.1207439778591706  0.26101239425180717  1.0000
  N   N6        1.0  0.3925079375314055  0.8792194795839308  0.7389672018494409  1.0000
  N   N7        1.0  0.5660968831694219  0.2356395095141437  0.388187170094497  1.0000
  N   N8        1.0  0.4338884645538316  0.7643635591653818  0.611831517778235  1.0000
  N   N9        1.0  0.36121808132316596  0.4516991117016289  0.33122558138912683  1.0000
  N   N10       1.0  0.6387703240464759  0.54829091016925  0.6687773196489316  1.0000
  N   N11       1.0  0.3209901141193754  0.4842867915951743  0.1565398474805235  1.0000
  N   N12       1.0  0.6790211502699959  0.5157399914267414  0.8434500595056775  1.0000
