data_image0
_chemical_formula_structural       NiH24Ru4C20N4O16
_chemical_formula_sum              "Ni1 H24 Ru4 C20 N4 O16"
_cell_length_a       8.978340212336702
_cell_length_b       9.925768086414365
_cell_length_c       11.210986594203773
_cell_angle_alpha    104.85190999821614
_cell_angle_beta     112.00602215611467
_cell_angle_gamma    101.02788247274479

_space_group_name_H-M_alt    "P 1"
_space_group_IT_number       1

loop_
  _space_group_symop_operation_xyz
  'x, y, z'

loop_
  _atom_site_type_symbol
  _atom_site_label
  _atom_site_symmetry_multiplicity
  _atom_site_fract_x
  _atom_site_fract_y
  _atom_site_fract_z
  _atom_site_occupancy
  Ni  Ni1       1.0  7.5211706444999535e-06  1.050686120149992e-05  0.5000042511778915  1.0000
  H   H1        1.0  0.4258468268306856  0.49693456020506244  0.8626025975693992  1.0000
  H   H2        1.0  0.5741497440068741  0.5030426309089863  0.13740272626638017  1.0000
  H   H3        1.0  0.2759611609316792  0.5163166925454519  0.9286798523043275  1.0000
  H   H4        1.0  0.7240387201936045  0.483672605955256  0.07132920073030388  1.0000
  H   H5        1.0  0.22098087991096801  0.49737985793186823  0.7533252228999247  1.0000
  H   H6        1.0  0.7790185531376607  0.5026050301349231  0.24667913044315526  1.0000
  H   H7        1.0  0.562145825105496  0.9493039081920073  0.5983817026860904  1.0000
  H   H8        1.0  0.4378449106375585  0.05069311417341991  0.40162011774861384  1.0000
  H   H9        1.0  0.6508903628484858  0.1410618626116857  0.691263397719446  1.0000
  H   H10       1.0  0.3491044214334521  0.858939560817994  0.30874419741731873  1.0000
  H   H11       1.0  0.7791542583790658  0.023418469989827904  0.7259626620652  1.0000
  H   H12       1.0  0.2208424400978686  0.9765752267131377  0.27403662195631273  1.0000
  H   H13       1.0  0.023773623422684385  0.18544908367522336  0.1024881463000256  1.0000
  H   H14       1.0  0.9762337219758735  0.8145732130243317  0.8975145487788723  1.0000
  H   H15       1.0  0.08313617451268838  0.3398714550806474  0.05445814664845021  1.0000
  H   H16       1.0  0.916867952514913  0.6601486485302814  0.9455439814814072  1.0000
  H   H17       1.0  0.1747857070060803  0.1978762824000171  0.035137085541080616  1.0000
  H   H18       1.0  0.8252139395461312  0.8021350212334468  0.9648617114987059  1.0000
  H   H19       1.0  0.05125850500232327  0.6476661069349419  0.5383531160239841  1.0000
  H   H20       1.0  0.948748224329819  0.3523352449399795  0.4616330609187786  1.0000
  H   H21       1.0  0.20773258926702454  0.8195010789650682  0.5886879074506483  1.0000
  H   H22       1.0  0.792263824791597  0.1805080214991364  0.4113040722495001  1.0000
  H   H23       1.0  0.07913620387149219  0.7150802933525354  0.4114121125724637  1.0000
  H   H24       1.0  0.9208621644361374  0.28492439187138535  0.5885767770227588  1.0000
  Ru  Ru1       1.0  0.6325378823537662  0.9996950059292331  0.06793387149567558  1.0000
  Ru  Ru2       1.0  0.3674615045882915  0.00028656633085690023  0.93206258209824  1.0000
  Ru  Ru3       1.0  0.555594803752129  0.5849226187084967  0.4618442421350082  1.0000
  Ru  Ru4       1.0  0.44439100575277013  0.41505791200100356  0.5381630776795562  1.0000
  C   C1        1.0  0.9386837280954977  0.9929885646989333  0.32291552593976997  1.0000
  C   C2        1.0  0.0613327606677743  0.007026006695824101  0.6770935088261041  1.0000
  C   C3        1.0  0.8020518141051768  0.8530372977404  0.4392094443603868  1.0000
  C   C4        1.0  0.1979443040227622  0.14698063247523413  0.5607951480377836  1.0000
  C   C5        1.0  0.3895993826089139  0.7080205194199537  0.9030819651057698  1.0000
  C   C6        1.0  0.6103863427529248  0.29195338543649996  0.09691312686223344  1.0000
  C   C7        1.0  0.32427313130038027  0.5441930453331524  0.8582257855849564  1.0000
  C   C8        1.0  0.6757294881352677  0.45579073009619714  0.14177748534860501  1.0000
  C   C9        1.0  0.5965035965256933  0.014707009679924004  0.8055794004894637  1.0000
  C   C10       1.0  0.4034967603287782  0.9852932847852431  0.19442157852085984  1.0000
  C   C11       1.0  0.6524352798582386  0.033113177904894514  0.699312962802658  1.0000
  C   C12       1.0  0.3475627766749271  0.9668970428651066  0.30069403343556905  1.0000
  C   C13       1.0  0.2684215596161152  0.3429041835095675  0.24254931186085574  1.0000
  C   C14       1.0  0.7315764289141455  0.6570994229281127  0.7574525998343591  1.0000
  C   C15       1.0  0.12768201626083453  0.2612327660370894  0.10025866111553941  1.0000
  C   C16       1.0  0.8723215788434117  0.7387730186022381  0.8997391767247365  1.0000
  C   C17       1.0  0.2746178085246811  0.6342103580843884  0.5126581674638545  1.0000
  C   C18       1.0  0.7253854085233443  0.36579763189342174  0.48734094814083323  1.0000
  C   C19       1.0  0.14371281673337682  0.7067431404443738  0.5126942768213993  1.0000
  C   C20       1.0  0.8562903521905553  0.29326153228664953  0.4872960461211804  1.0000
  N   N1        1.0  0.8841782848111707  0.9937116591373044  0.21005255549618343  1.0000
  N   N2        1.0  0.11582091769942342  0.0062952369424139  0.7899433276779392  1.0000
  N   N3        1.0  0.6789999932620888  0.75553612499359  0.4033857323959964  1.0000
  N   N4        1.0  0.32099396862562907  0.24446637890546438  0.5966075893909988  1.0000
  O   O1        1.0  0.5462314022273276  0.7756612249278946  0.9893104578309746  1.0000
  O   O2        1.0  0.4537772539976713  0.2243258434915844  0.010698039971231307  1.0000
  O   O3        1.0  0.28585831259108824  0.7760213918939343  0.8563159031690546  1.0000
  O   O4        1.0  0.7141366558259393  0.22395799040074849  0.14367962513897933  1.0000
  O   O5        1.0  0.7035050068081858  0.0091059354931886  0.9176535351130967  1.0000
  O   O6        1.0  0.2964872751612332  0.9908855726844549  0.08234571653547104  1.0000
  O   O7        1.0  0.443163337191379  0.006629623407953001  0.7825736833612427  1.0000
  O   O8        1.0  0.5568309111321667  0.9933574781699407  0.21742783566006807  1.0000
  O   O9        1.0  0.38084003287838186  0.4606506757524683  0.2644135364795375  1.0000
  O   O10       1.0  0.6191426593708158  0.5393474314207793  0.7355629314549292  1.0000
  O   O11       1.0  0.27248097550968003  0.2939097275224256  0.3387221253238338  1.0000
  O   O12       1.0  0.7275327648556313  0.7061103597432421  0.6612882269783924  1.0000
  O   O13       1.0  0.38450746680837267  0.6880586000658864  0.47541478844092205  1.0000
  O   O14       1.0  0.6154946059833647  0.31195599872692986  0.5245836958922823  1.0000
  O   O15       1.0  0.2745115598833294  0.5220691197907499  0.5496641431046285  1.0000
  O   O16       1.0  0.7255140379468301  0.47793770181767314  0.4503360518281952  1.0000
