data_image0
_chemical_formula_structural       Mn4H24C16O28
_chemical_formula_sum              "Mn4 H24 C16 O28"
_cell_length_a       6.975148396259374
_cell_length_b       10.37510867890369
_cell_length_c       11.287185651041623
_cell_angle_alpha    114.44977396170914
_cell_angle_beta     89.99908106881718
_cell_angle_gamma    90.00075744999182

_space_group_name_H-M_alt    "P 1"
_space_group_IT_number       1

loop_
  _space_group_symop_operation_xyz
  'x, y, z'

loop_
  _atom_site_type_symbol
  _atom_site_label
  _atom_site_symmetry_multiplicity
  _atom_site_fract_x
  _atom_site_fract_y
  _atom_site_fract_z
  _atom_site_occupancy
  Mn  Mn1       1.0  0.16083295659960578  0.41604158887321324  0.2624485626180117  1.0000
  Mn  Mn2       1.0  0.16082333945080762  0.08395703783454422  0.7375401928469714  1.0000
  Mn  Mn3       1.0  0.8391636064030904  0.5839566273343736  0.737545507951033  1.0000
  Mn  Mn4       1.0  0.839177524454584  0.9160391858756401  0.26245846916771853  1.0000
  H   H1        1.0  0.6351730513245286  0.232425356895412  0.10174891610435567  1.0000
  H   H2        1.0  0.6351684373104332  0.267566610223362  0.898241780562408  1.0000
  H   H3        1.0  0.36482924626938035  0.7675740218084857  0.8982500082716598  1.0000
  H   H4        1.0  0.3648352939056706  0.7324296342730535  0.10175777513650519  1.0000
  H   H5        1.0  0.36229565777170336  0.1603028708088559  0.3730957993197918  1.0000
  H   H6        1.0  0.3622882663718627  0.339701514774042  0.6269099795295076  1.0000
  H   H7        1.0  0.6377123744561287  0.8397040011489166  0.626909397291399  1.0000
  H   H8        1.0  0.6377068629179589  0.6603031984125921  0.37309265903218136  1.0000
  H   H9        1.0  0.3374894414817646  0.1425005948685367  0.11493115909762958  1.0000
  H   H10       1.0  0.33747976764355764  0.357498275544927  0.8850693026887341  1.0000
  H   H11       1.0  0.6625128560951907  0.8574977460242508  0.8850682736194242  1.0000
  H   H12       1.0  0.6625210963008853  0.6425010823767607  0.11492872799772152  1.0000
  H   H13       1.0  0.45785650827016156  0.3689656110300419  0.4060624381919452  1.0000
  H   H14       1.0  0.45786026706343097  0.1310456412105765  0.5939440483829159  1.0000
  H   H15       1.0  0.5421400546764659  0.6310455160309301  0.5939451935721748  1.0000
  H   H16       1.0  0.54214489788243  0.8689622269938866  0.4060588525081171  1.0000
  H   H17       1.0  0.8990506932167364  0.44809928394914783  0.09070791062323737  1.0000
  H   H18       1.0  0.8990444417829907  0.051900659873503216  0.9092893916475617  1.0000
  H   H19       1.0  0.1009387014222014  0.5518968981725009  0.9092889640443217  1.0000
  H   H20       1.0  0.1009564221599675  0.9481008360049615  0.09071030344148313  1.0000
  H   H21       1.0  0.06905742290707909  0.5521955360240014  0.12608098135807913  1.0000
  H   H22       1.0  0.06905411148449761  0.9478030363493275  0.873917121262771  1.0000
  H   H23       1.0  0.9309348390816297  0.44780380109537526  0.8739161556654692  1.0000
  H   H24       1.0  0.9309481861130778  0.052199538900630706  0.1260838528696837  1.0000
  C   C1        1.0  0.5337086252765602  0.4388978806017931  0.13890899747164545  1.0000
  C   C2        1.0  0.5336995464837598  0.061100886099239894  0.8610833638634218  1.0000
  C   C3        1.0  0.46628793766420534  0.5611047154102735  0.8610928703770212  1.0000
  C   C4        1.0  0.46630275107843744  0.9389017514852823  0.13892029135369188  1.0000
  C   C5        1.0  0.5076109763766112  0.2783751747116199  0.07536173305502557  1.0000
  C   C6        1.0  0.5076090585003001  0.2216285931629614  0.9246264932398559  1.0000
  C   C7        1.0  0.49238702019447794  0.7216210697687088  0.924637822665211  1.0000
  C   C8        1.0  0.4923918054205529  0.7783708063151025  0.07537332483637729  1.0000
  C   C9        1.0  0.26013301693181745  0.24449780579470837  0.4298083024667037  1.0000
  C   C10       1.0  0.260129806315625  0.25550150243709174  0.5701850766750809  1.0000
  C   C11       1.0  0.7398778827209896  0.7555056826213472  0.570186801123384  1.0000
  C   C12       1.0  0.7398767922030771  0.744497980169804  0.429818316159391  1.0000
  C   C13       1.0  0.06575624344864649  0.1978691978557947  0.36216534383143534  1.0000
  C   C14       1.0  0.0657449581220959  0.30211449100691107  0.6378365976444228  1.0000
  C   C15       1.0  0.9342517887512256  0.8021270466526714  0.6378342118514836  1.0000
  C   C16       1.0  0.9342530384268882  0.6978796570730239  0.36216308106300926  1.0000
  O   O1        1.0  0.42354989436245916  0.5139739821493521  0.23080621577280164  1.0000
  O   O2        1.0  0.4235444056184363  0.9860234230870617  0.7691889882212164  1.0000
  O   O3        1.0  0.5764438012668833  0.48602112061687547  0.7691893798300241  1.0000
  O   O4        1.0  0.5764564582972653  0.013974917801704104  0.2308104445011736  1.0000
  O   O5        1.0  0.6705340253210536  0.4875369811398542  0.09448138437451796  1.0000
  O   O6        1.0  0.6705342739511622  0.012459522531543104  0.9055150591936395  1.0000
  O   O7        1.0  0.32946397126183047  0.5124592425622865  0.9055172776508298  1.0000
  O   O8        1.0  0.3294665899461008  0.9875399185028897  0.09448654627237121  1.0000
  O   O9        1.0  0.3390716272100605  0.245103013150576  0.1256324620409472  1.0000
  O   O10       1.0  0.33907027426883457  0.25490014207206  0.8743713167533471  1.0000
  O   O11       1.0  0.6609263693934436  0.7548974449087423  0.8743677413998013  1.0000
  O   O12       1.0  0.6609348906357866  0.7450992574180617  0.12562850130689174  1.0000
  O   O13       1.0  0.32090009042968143  0.37589823297867764  0.42539398912723664  1.0000
  O   O14       1.0  0.32090423290434705  0.12410799612818119  0.5746110808451589  1.0000
  O   O15       1.0  0.6790979061553913  0.6241033252263081  0.5746083870571325  1.0000
  O   O16       1.0  0.6791023656858215  0.8758988342691935  0.42539232838158364  1.0000
  O   O17       1.0  0.005845088056929598  0.24983563517900356  0.2845804190956399  1.0000
  O   O18       1.0  0.005839308043263701  0.25016226787383283  0.7154157448237513  1.0000
  O   O19       1.0  0.9941629441701991  0.7501637643191543  0.7154193989539408  1.0000
  O   O20       1.0  0.994155821203833  0.7498361145552294  0.28458547530973277  1.0000
  O   O21       1.0  0.9836465821743089  0.10122365766251563  0.38458690293938946  1.0000
  O   O22       1.0  0.9836277492163675  0.3987841706314653  0.6154124677375206  1.0000
  O   O23       1.0  0.0163671847111146  0.8987735831167641  0.615410356991397  1.0000
  O   O24       1.0  0.0163673800815687  0.6012173252309196  0.3845872273728474  1.0000
  O   O25       1.0  0.0416265387184254  0.4514368404860392  0.10078026651639498  1.0000
  O   O26       1.0  0.04162192618954211  0.048560266964102504  0.8992179270321328  1.0000
  O   O27       1.0  0.9583642895766148  0.5485582830503335  0.8992162227919849  1.0000
  O   O28       1.0  0.9583803714124811  0.951435894415539  0.1007780538925545  1.0000
