data_image0
_chemical_formula_structural       Ni2H32C44S4N12
_chemical_formula_sum              "Ni2 H32 C44 S4 N12"
_cell_length_a       8.222966459013572
_cell_length_b       8.223020643589813
_cell_length_c       16.474779482490575
_cell_angle_alpha    82.45741593119413
_cell_angle_beta     82.45724734299284
_cell_angle_gamma    86.98437023933877

_space_group_name_H-M_alt    "P 1"
_space_group_IT_number       1

loop_
  _space_group_symop_operation_xyz
  'x, y, z'

loop_
  _atom_site_type_symbol
  _atom_site_label
  _atom_site_symmetry_multiplicity
  _atom_site_fract_x
  _atom_site_fract_y
  _atom_site_fract_z
  _atom_site_occupancy
  Ni  Ni1       1.0  0.8682812821729728  0.13172619664354815  0.749998288298279  1.0000
  Ni  Ni2       1.0  0.1317218568189773  0.8682764399268023  0.2500003030680772  1.0000
  H   H1        1.0  0.744253180159184  0.3984338893301286  0.6254710440529292  1.0000
  H   H2        1.0  0.6015706201039849  0.2557463166564916  0.8745282700345383  1.0000
  H   H3        1.0  0.2557476648861864  0.6015650506349817  0.3745297624557508  1.0000
  H   H4        1.0  0.3984301203852994  0.7442550782703989  0.12547238181864628  1.0000
  H   H5        1.0  0.5226219630275749  0.6163195711079011  0.6190528749031471  1.0000
  H   H6        1.0  0.3836769915143421  0.4773720861421396  0.8809481479141393  1.0000
  H   H7        1.0  0.47737668992846943  0.3836732145860325  0.38094787380453704  1.0000
  H   H8        1.0  0.6163202259271044  0.5226256013799783  0.1190523727125026  1.0000
  H   H9        1.0  0.19012012486540192  0.6177733312740232  0.6503455353943648  1.0000
  H   H10       1.0  0.38222862499212357  0.8098742907000512  0.8496577038231974  1.0000
  H   H11       1.0  0.8098793892214643  0.382228055557512  0.3496551976887828  1.0000
  H   H12       1.0  0.6177723755379603  0.19012096547032092  0.1503421208693254  1.0000
  H   H13       1.0  0.9642744819973004  0.8325210985349615  0.6606256076982928  1.0000
  H   H14       1.0  0.1674906654695931  0.03572590444129279  0.8393750988070818  1.0000
  H   H15       1.0  0.03572855446269331  0.16748399502529304  0.33937464971167924  1.0000
  H   H16       1.0  0.8325163115878808  0.9642730760005949  0.1606253015517396  1.0000
  H   H17       1.0  0.45734779408692106  0.9837501961644435  0.2606366274777798  1.0000
  H   H18       1.0  0.016247409263812105  0.5426526477914848  0.23936438460967924  1.0000
  H   H19       1.0  0.5426469196210563  0.016248703999941907  0.7393651920804768  1.0000
  H   H20       1.0  0.9837582354857374  0.4573487781647287  0.760634728524195  1.0000
  H   H21       1.0  0.6421954643272444  0.012393085688053406  0.3642198384127439  1.0000
  H   H22       1.0  0.9876110288716262  0.3578039718817508  0.13578083877534644  1.0000
  H   H23       1.0  0.3578003182743146  0.9876095043383021  0.6357810610325669  1.0000
  H   H24       1.0  0.012394722458140002  0.6421950011408273  0.8642202497131561  1.0000
  H   H25       1.0  0.21952047831859997  0.9515497178382474  0.5502576380999356  1.0000
  H   H26       1.0  0.0484350182182212  0.7804790960894723  0.9497429054511312  1.0000
  H   H27       1.0  0.7804770494175558  0.048440601418342104  0.4497403119946809  1.0000
  H   H28       1.0  0.9515584174839944  0.21952102413649044  0.0502595249090518  1.0000
  H   H29       1.0  0.05841847350064459  0.9065274723776184  0.43934908707299747  1.0000
  H   H30       1.0  0.09346139734233823  0.9415773543901766  0.06065235774818227  1.0000
  H   H31       1.0  0.9415766564075555  0.09346160591154978  0.560651530408151  1.0000
  H   H32       1.0  0.9065394477030325  0.0584215855749406  0.9393484487605048  1.0000
  C   C1        1.0  0.5819180444790818  0.3405557666598469  0.8197632110526383  1.0000
  C   C2        1.0  0.6594450325615285  0.4180846930174553  0.6802361863098836  1.0000
  C   C3        1.0  0.4180826960102024  0.6594456282670437  0.1802374408005392  1.0000
  C   C4        1.0  0.34055463835946403  0.5819130113714195  0.3197647787565288  1.0000
  C   C5        1.0  0.45965863455933953  0.4636151919740498  0.8227504305813224  1.0000
  C   C6        1.0  0.5363809813862446  0.5403425909127719  0.6772519216187972  1.0000
  C   C7        1.0  0.5403410886396999  0.5363812849339383  0.17725061181283752  1.0000
  C   C8        1.0  0.46361751608508683  0.4596538785759137  0.3227498089050441  1.0000
  C   C9        1.0  0.43465396654357846  0.5653486344601575  0.7500006476569323  1.0000
  C   C10       1.0  0.5653492783538852  0.43465154850050414  0.2499993121643484  1.0000
  C   C11       1.0  0.30434664010640233  0.695652227535092  0.7500021726279725  1.0000
  C   C12       1.0  0.6956542049389683  0.30434671243001793  0.24999863388071464  1.0000
  C   C13       1.0  0.2942631136875491  0.8130984469247623  0.8050927888213264  1.0000
  C   C14       1.0  0.1869017831640463  0.7057358644541621  0.6949090955080023  1.0000
  C   C15       1.0  0.7057365049554035  0.1869004849449993  0.1949080989173311  1.0000
  C   C16       1.0  0.8130990618813314  0.2942630755109548  0.30509171100068494  1.0000
  C   C17       1.0  0.17276676486883252  0.9371446658097327  0.8008509621210037  1.0000
  C   C18       1.0  0.06285875068234499  0.8272375985902655  0.6991492673376881  1.0000
  C   C19       1.0  0.827237707105766  0.06285552592233051  0.19914952337001068  1.0000
  C   C20       1.0  0.9371432162093569  0.17276380443198036  0.30085130328552606  1.0000
  C   C21       1.0  0.5891703939663768  0.023144762801273103  0.6741109520183244  1.0000
  C   C22       1.0  0.9768644145679843  0.4108283846901558  0.8258892057318475  1.0000
  C   C23       1.0  0.41082528475379837  0.9768602828629015  0.32589039967119493  1.0000
  C   C24       1.0  0.023138830329472202  0.5891717982705131  0.17411075408943322  1.0000
  C   C25       1.0  0.48734911997982533  0.0054046276893160005  0.6153817260634326  1.0000
  C   C26       1.0  0.9945944945818466  0.5126499428636464  0.884619723762675  1.0000
  C   C27       1.0  0.5126467155744834  0.9945967355321983  0.3846198576093443  1.0000
  C   C28       1.0  0.005407473659275299  0.4873514615106843  0.11538206065994665  1.0000
  C   C29       1.0  0.5518821260217024  0.0112981390162901  0.531981788737852  1.0000
  C   C30       1.0  0.9887012191577969  0.44811208941763436  0.9680199351188957  1.0000
  C   C31       1.0  0.44811258701156476  0.9887007604720566  0.46801942392069407  1.0000
  C   C32       1.0  0.011299678840330799  0.551885623742642  0.031981555617249996  1.0000
  C   C33       1.0  0.27996370093033107  0.9592839797150816  0.4871825957646789  1.0000
  C   C34       1.0  0.04070413590557822  0.7200345812325537  0.012819259538638108  1.0000
  C   C35       1.0  0.7200326024275369  0.040706333474283006  0.5128172562590334  1.0000
  C   C36       1.0  0.9592943099624165  0.2799631164130574  0.9871830005571595  1.0000
  C   C37       1.0  0.187322231495493  0.9367377280683654  0.42518951360050733  1.0000
  C   C38       1.0  0.06324982372048278  0.8126763843116649  0.07481178500881205  1.0000
  C   C39       1.0  0.8126753512175496  0.06325136641151372  0.5748109414207007  1.0000
  C   C40       1.0  0.936750969046848  0.18732378313433173  0.92518894417212  1.0000
  C   C41       1.0  0.67857229641524  0.8792432349291559  0.8890769573316035  1.0000
  C   C42       1.0  0.1207647964177383  0.32143867462748693  0.610919823077964  1.0000
  C   C43       1.0  0.32142940706211215  0.12076430346938591  0.11092140595371087  1.0000
  C   C44       1.0  0.8792344013020212  0.6785700743851778  0.3890780184398322  1.0000
  S   S1        1.0  0.6015526947968439  0.7399320158858984  0.9603131507446745  1.0000
  S   S2        1.0  0.26009050289415825  0.3984560922382202  0.539677932954383  1.0000
  S   S3        1.0  0.3984532326514908  0.2600915101174408  0.03968206166084091  1.0000
  S   S4        1.0  0.739897754338081  0.6015501215179883  0.46031411839187797  1.0000
  N   N1        1.0  0.6810297363457138  0.31897127935128106  0.7500006284283457  1.0000
  N   N2        1.0  0.31897105709632717  0.6810288887707685  0.25000070765229754  1.0000
  N   N3        1.0  0.7499047669059421  0.052491157907319085  0.6549249533042029  1.0000
  N   N4        1.0  0.9475163702042124  0.2500964379281783  0.845074480454947  1.0000
  N   N5        1.0  0.2500911189022829  0.9475089758051711  0.3450748869971959  1.0000
  N   N6        1.0  0.0524868230899145  0.7499049731894234  0.15492600893828976  1.0000
  N   N7        1.0  0.0564047651696384  0.9436031377590197  0.7499992744823911  1.0000
  N   N8        1.0  0.9436007756985276  0.0564007438350131  0.25000029089568426  1.0000
  N   N9        1.0  0.7329001044479427  0.9823891629680193  0.8364239114568401  1.0000
  N   N10       1.0  0.0176202659704714  0.26710441819206926  0.6635677628746988  1.0000
  N   N11       1.0  0.2671017022360829  0.017615919116657604  0.16357339268456875  1.0000
  N   N12       1.0  0.9823791877418272  0.7328981880078163  0.3364256100841913  1.0000
