data_image0
_chemical_formula_structural       Zn8H48C48N32
_chemical_formula_sum              "Zn8 H48 C48 N32"
_cell_length_a       9.906709846384206
_cell_length_b       14.973601715909897
_cell_length_c       15.148221564035724
_cell_angle_alpha    90.00023769784836
_cell_angle_beta     89.99989158685459
_cell_angle_gamma    98.58176612881026

_space_group_name_H-M_alt    "P 1"
_space_group_IT_number       1

loop_
  _space_group_symop_operation_xyz
  'x, y, z'

loop_
  _atom_site_type_symbol
  _atom_site_label
  _atom_site_symmetry_multiplicity
  _atom_site_fract_x
  _atom_site_fract_y
  _atom_site_fract_z
  _atom_site_occupancy
  Zn  Zn1       1.0  0.45122886040691407  0.7351444241547044  0.9231894682498946  1.0000
  Zn  Zn2       1.0  0.0487718908081263  0.764855835197885  0.423193130382721  1.0000
  Zn  Zn3       1.0  0.5487716258420506  0.26485708363149735  0.0768092203118158  1.0000
  Zn  Zn4       1.0  0.9512291439925206  0.23514364556064754  0.5768075386049958  1.0000
  Zn  Zn5       1.0  0.9145708886104841  0.5796197188244606  0.7763313593886776  1.0000
  Zn  Zn6       1.0  0.5854300561838954  0.9203806351799599  0.2763296727748568  1.0000
  Zn  Zn7       1.0  0.0854279741674659  0.420379088177704  0.2236712900295004  1.0000
  Zn  Zn8       1.0  0.4145737648756764  0.0796222209484156  0.7236690157875642  1.0000
  H   H1        1.0  0.20989156213040863  0.6966922701192714  0.7856413788516434  1.0000
  H   H2        1.0  0.2901051191740152  0.8033060915748464  0.2856402792240758  1.0000
  H   H3        1.0  0.7901051286301026  0.3033058631159662  0.2143579698490043  1.0000
  H   H4        1.0  0.7098958277540889  0.19669744241750212  0.7143564289110103  1.0000
  H   H5        1.0  0.2081422643061046  0.6516952996458231  0.0603092773224958  1.0000
  H   H6        1.0  0.2918608335810902  0.8483062091389332  0.5603089169848872  1.0000
  H   H7        1.0  0.7918606353991251  0.34830350406234345  0.9396894112321803  1.0000
  H   H8        1.0  0.7081394991107856  0.15169462323994054  0.4396877911450402  1.0000
  H   H9        1.0  0.9549439542519021  0.5800446154899175  0.9903676818260435  1.0000
  H   H10       1.0  0.5450568710987581  0.9199579453643024  0.4903647231170041  1.0000
  H   H11       1.0  0.045058089778919536  0.4199548644484212  0.0096336473045469  1.0000
  H   H12       1.0  0.45494190380665606  0.08004491487167802  0.5096339654485433  1.0000
  H   H13       1.0  0.3478967445956798  0.9247790037983421  0.8777568649451339  1.0000
  H   H14       1.0  0.15210440428184313  0.575222424652566  0.3777609417941221  1.0000
  H   H15       1.0  0.6521034345331955  0.07522115318507622  0.1222438040445013  1.0000
  H   H16       1.0  0.8478969376369179  0.42477840691270796  0.6222397271961738  1.0000
  H   H17       1.0  0.6309536879645209  0.78683106733984  0.7473807063708122  1.0000
  H   H18       1.0  0.869048170194695  0.7131684946587242  0.2473831002783129  1.0000
  H   H19       1.0  0.36904664472735504  0.2131697650390336  0.2526160017591081  1.0000
  H   H20       1.0  0.1309473577746161  0.2868289639973014  0.752617568708665  1.0000
  H   H21       1.0  0.6074291920220246  0.9448500393284434  0.656190802331551  1.0000
  H   H22       1.0  0.8925745592167686  0.5551478055044826  0.15619383931798578  1.0000
  H   H23       1.0  0.3925701314357255  0.0551507938785463  0.34380920651650365  1.0000
  H   H24       1.0  0.10742586134632859  0.44484897364321807  0.8438081499515703  1.0000
  H   H25       1.0  0.5037230661644827  0.9061734842384653  0.065218443480731  1.0000
  H   H26       1.0  0.9962715418651202  0.593827381977974  0.5652207474651689  1.0000
  H   H27       1.0  0.4962762572945891  0.09382734896588832  0.9347802450803185  1.0000
  H   H28       1.0  0.003720256299637011  0.4061714307695469  0.4347792613833903  1.0000
  H   H29       1.0  0.5499356853197525  0.6316525132662462  0.0824291132633803  1.0000
  H   H30       1.0  0.9500659530252021  0.8683484160352607  0.5824319401917961  1.0000
  H   H31       1.0  0.4500648009278975  0.36834899452259146  0.9175708955853353  1.0000
  H   H32       1.0  0.04994012792960229  0.13165106061567403  0.41756872879278717  1.0000
  H   H33       1.0  0.605663238196023  0.7132234640201177  0.24604977338707099  1.0000
  H   H34       1.0  0.8943373719484738  0.7867794713168691  0.7460529948217811  1.0000
  H   H35       1.0  0.3943414385353278  0.2867787158833722  0.7539489151734315  1.0000
  H   H36       1.0  0.10566482564140503  0.21322068402483302  0.2539483343101026  1.0000
  H   H37       1.0  0.758560059094343  0.7079101997541032  0.8858798921775699  1.0000
  H   H38       1.0  0.7414380346770955  0.7920878924241916  0.3858788067275114  1.0000
  H   H39       1.0  0.24144198493582542  0.29208928018555014  0.11412209709651928  1.0000
  H   H40       1.0  0.25855997243171197  0.20791159079757898  0.6141212021185821  1.0000
  H   H41       1.0  0.39463083192752885  0.5265378792722474  0.8517641893392778  1.0000
  H   H42       1.0  0.10536773605507219  0.9734607452477276  0.35176731678140527  1.0000
  H   H43       1.0  0.6053677894155314  0.47346430556695657  0.1482377999424784  1.0000
  H   H44       1.0  0.8946335401797968  0.026535357675086906  0.6482346724862396  1.0000
  H   H45       1.0  0.6124605343347084  0.44997573451176015  0.7838773806819646  1.0000
  H   H46       1.0  0.8875389014668754  0.05002177044181621  0.2838784224393081  1.0000
  H   H47       1.0  0.3875381748822164  0.5500223970909986  0.2161272491654245  1.0000
  H   H48       1.0  0.1124641517960896  0.949977708672364  0.7161215864036591  1.0000
  C   C1        1.0  0.1748001292357415  0.6745514756877001  0.8511229693279105  1.0000
  C   C2        1.0  0.32519804503369437  0.8254498486956551  0.35112257726080986  1.0000
  C   C3        1.0  0.8251993477823873  0.32545003292002406  0.1488757192344252  1.0000
  C   C4        1.0  0.6748029018950703  0.17455368529537202  0.6488734707307771  1.0000
  C   C5        1.0  0.1710247591126475  0.650412799438577  0.9928709148820544  1.0000
  C   C6        1.0  0.32897686246572266  0.8495877377779165  0.49287061714625213  1.0000
  C   C7        1.0  0.8289765828074279  0.3495880321240605  0.0071284338212507  1.0000
  C   C8        1.0  0.6710253351281068  0.15041241755587015  0.5071267511246305  1.0000
  C   C9        1.0  0.04566289888083465  0.6149333455281506  0.9583553167508967  1.0000
  C   C10       1.0  0.4543367730256164  0.885067055281077  0.4583530290668704  1.0000
  C   C11       1.0  0.9543389915915838  0.38506545900549594  0.0416453522349016  1.0000
  C   C12       1.0  0.5456630111119409  0.11493580413073803  0.5416443392110466  1.0000
  C   C13       1.0  0.423091192773107  0.9091325851946266  0.830242297815161  1.0000
  C   C14       1.0  0.07690888800839701  0.5908679786386132  0.3302465318303192  1.0000
  C   C15       1.0  0.5769088327980184  0.0908668963827921  0.16975705088618304  1.0000
  C   C16       1.0  0.9230923003506531  0.40913217752461156  0.6697547973021898  1.0000
  C   C17       1.0  0.5696722961681432  0.8393283262018728  0.761701344865152  1.0000
  C   C18       1.0  0.9303328682616936  0.6606726414141734  0.2617034476699871  1.0000
  C   C19       1.0  0.4303293528700464  0.1606738561674987  0.2382980038407325  1.0000
  C   C20       1.0  0.06966483172702453  0.3393254910048214  0.7382985416040313  1.0000
  C   C21       1.0  0.5574733996120784  0.9172941384836408  0.7160783348764781  1.0000
  C   C22       1.0  0.9425302322726523  0.5827039458742718  0.21608274338925781  1.0000
  C   C23       1.0  0.4425259238476471  0.08270669471939131  0.2839196935410726  1.0000
  C   C24       1.0  0.05746948617773028  0.4172941849016851  0.78391924588351  1.0000
  C   C25       1.0  0.524564008083729  0.8424299295378148  0.09219968499892418  1.0000
  C   C26       1.0  0.9754300854962209  0.6575690183814872  0.5922022761963817  1.0000
  C   C27       1.0  0.4754321341237854  0.15757023072772822  0.907799003562715  1.0000
  C   C28       1.0  0.024566605263636597  0.34242911485506516  0.407797732647758  1.0000
  C   C29       1.0  0.5496381305630678  0.7009403905210406  0.10320529176627959  1.0000
  C   C30       1.0  0.9503644756051983  0.799060621057379  0.6032098145745195  1.0000
  C   C31       1.0  0.45036538337772913  0.29906111480192266  0.896794056937061  1.0000
  C   C32       1.0  0.0496374148659058  0.20093818347890394  0.3967921746982839  1.0000
  C   C33       1.0  0.5770169556820618  0.7415485948958108  0.18411782660464127  1.0000
  C   C34       1.0  0.9229869591399263  0.7584547656833821  0.6841222167232389  1.0000
  C   C35       1.0  0.4229895859525498  0.25845290795995624  0.8158802018098185  1.0000
  C   C36       1.0  0.07701609412040969  0.2415447134360775  0.31588043269372423  1.0000
  C   C37       1.0  0.6886065124576674  0.6481781147240541  0.866651813218482  1.0000
  C   C38       1.0  0.8113924753052757  0.8518192243276346  0.3666515463868265  1.0000
  C   C39       1.0  0.31139235032159723  0.35182069227547447  0.1333495159126983  1.0000
  C   C40       1.0  0.1886073967061392  0.14817958184773522  0.6333484624567234  1.0000
  C   C41       1.0  0.5026616496277967  0.5528563391582254  0.8486060500065804  1.0000
  C   C42       1.0  0.9973346535228913  0.9471422809943919  0.34860792460886353  1.0000
  C   C43       1.0  0.49733681815555303  0.4471451702789365  0.15139659941738867  1.0000
  C   C44       1.0  0.0026639021389200986  0.0528551751970809  0.6513927443762384  1.0000
  C   C45       1.0  0.6104596124604384  0.5153057460959118  0.8144269766371224  1.0000
  C   C46       1.0  0.8895366052473365  0.9846920619548529  0.3144297987091136  1.0000
  C   C47       1.0  0.3895382410860223  0.48469306172909654  0.1855763329251801  1.0000
  C   C48       1.0  0.11046124830109959  0.015306745866190906  0.6855715304226919  1.0000
  N   N1        1.0  0.25222780572730846  0.6881788533460808  0.9243190005177696  1.0000
  N   N2        1.0  0.24776890631532908  0.8118214138061217  0.424320628743402  1.0000
  N   N3        1.0  0.7477694992720741  0.31182198149734575  0.0756777076140338  1.0000
  N   N4        1.0  0.7522304171463715  0.18817941939294508  0.5756754192436446  1.0000
  N   N5        1.0  0.04900800775335769  0.6304581378502903  0.8684193765284716  1.0000
  N   N6        1.0  0.4509930061799776  0.8695425778401146  0.3684176894502045  1.0000
  N   N7        1.0  0.9509933341660641  0.3695426937136618  0.1315806323183253  1.0000
  N   N8        1.0  0.5490067779582403  0.13046028157038594  0.6315790186842136  1.0000
  N   N9        1.0  0.4842902684488877  0.8347050770745952  0.834247197954852  1.0000
  N   N10       1.0  0.015711822813003103  0.6652955011327748  0.3342511527732839  1.0000
  N   N11       1.0  0.5157087478914092  0.16529440532433887  0.1657521507471174  1.0000
  N   N12       1.0  0.9842871935253183  0.33470398127011697  0.6657501763591894  1.0000
  N   N13       1.0  0.46417385296155084  0.9612031815609968  0.7599146515797771  1.0000
  N   N14       1.0  0.03582707009277896  0.5387957493645031  0.2599180626889463  1.0000
  N   N15       1.0  0.5358266332860921  0.0387983262278482  0.24008535726893845  1.0000
  N   N16       1.0  0.9641751274964391  0.4612044059785205  0.7400839265864363  1.0000
  N   N17       1.0  0.5163957029109197  0.7654661070393018  0.045217779475443406  1.0000
  N   N18       1.0  0.9836005027615399  0.734532651334476  0.5452219965212847  1.0000
  N   N19       1.0  0.4836008999724512  0.234536079438989  0.9547822293770665  1.0000
  N   N20       1.0  0.016397745781496588  0.2654634540515701  0.4547793326047298  1.0000
  N   N21       1.0  0.5611815077256849  0.8313527005629452  0.1766293526986118  1.0000
  N   N22       1.0  0.9388170687505166  0.6686492833619582  0.6766313744742973  1.0000
  N   N23       1.0  0.4388218526573695  0.16864812935400414  0.8233686757164378  1.0000
  N   N24       1.0  0.06118194758780502  0.3313501990409336  0.323369954658169  1.0000
  N   N25       1.0  0.5532227578083493  0.6372312991258228  0.8814687953393587  1.0000
  N   N26       1.0  0.9467733262898435  0.8627667770585318  0.3814703864087363  1.0000
  N   N27       1.0  0.4467735379555933  0.3627695365483704  0.11853253379756978  1.0000
  N   N28       1.0  0.05322422014047848  0.1372306799557776  0.6185309427204899  1.0000
  N   N29       1.0  0.7280833341801697  0.5763493933807241  0.8260627184167646  1.0000
  N   N30       1.0  0.7719168972635942  0.923648457917338  0.3260634551538431  1.0000
  N   N31       1.0  0.27191840273187745  0.4236487357521953  0.1739392708547456  1.0000
  N   N32       1.0  0.2280832818659349  0.07635169906476591  0.6739365536922931  1.0000
