data_image0
_chemical_formula_structural       Co16H80C96N64O32
_chemical_formula_sum              "Co16 H80 C96 N64 O32"
_cell_length_a       12.577375107619769
_cell_length_b       12.577202713619764
_cell_length_c       25.341557069005102
_cell_angle_alpha    89.99994803980705
_cell_angle_beta     89.9999493134934
_cell_angle_gamma    90.00113644115892

_space_group_name_H-M_alt    "P 1"
_space_group_IT_number       1

loop_
  _space_group_symop_operation_xyz
  'x, y, z'

loop_
  _atom_site_type_symbol
  _atom_site_label
  _atom_site_symmetry_multiplicity
  _atom_site_fract_x
  _atom_site_fract_y
  _atom_site_fract_z
  _atom_site_occupancy
  Co  Co1       1.0  0.0710540794200227  0.9630267303438915  0.5613752967330188  1.0000
  Co  Co2       1.0  0.4289440859151911  0.5369729026250097  0.56137491952412  1.0000
  Co  Co3       1.0  0.5369826770542475  0.07105717737845653  0.5613757898221652  1.0000
  Co  Co4       1.0  0.9630170914733897  0.4289422528567428  0.561376405279127  1.0000
  Co  Co5       1.0  0.42894638394455614  0.9630323200528823  0.9386255180842799  1.0000
  Co  Co6       1.0  0.07105349258596048  0.5369666228733152  0.9386252976401228  1.0000
  Co  Co7       1.0  0.963012410217992  0.07105310669499691  0.9386236286005033  1.0000
  Co  Co8       1.0  0.5369882744389544  0.42894642858366444  0.9386240360543855  1.0000
  Co  Co9       1.0  0.9289457922543108  0.0369733110785759  0.43862516432786  1.0000
  Co  Co10      1.0  0.5710557857519661  0.463026343708819  0.4386247523194486  1.0000
  Co  Co11      1.0  0.4630179896988978  0.9289428640522462  0.4386242766297884  1.0000
  Co  Co12      1.0  0.03698198512213221  0.5710577885574752  0.43862445039066256  1.0000
  Co  Co13      1.0  0.5710534877297775  0.036967721369585115  0.061374942976598824  1.0000
  Co  Co14      1.0  0.9289471741596531  0.4630326234684005  0.06137437420326822  1.0000
  Co  Co15      1.0  0.03698746144846151  0.9289461396381072  0.06137683246054592  1.0000
  Co  Co16      1.0  0.4630123923059487  0.5710528177573266  0.06137642500649322  1.0000
  H   H1        1.0  0.04829371538318841  0.12397737370359613  0.6487975060452559  1.0000
  H   H2        1.0  0.4517063030057358  0.37602311016938483  0.648797361032685  1.0000
  H   H3        1.0  0.3760251000884197  0.0482912977557959  0.648795478240672  1.0000
  H   H4        1.0  0.12397491829614893  0.4517083910314313  0.6487954427500073  1.0000
  H   H5        1.0  0.4517068029618869  0.12397562389197254  0.8512032914159564  1.0000
  H   H6        1.0  0.04829444392622409  0.37602289957754226  0.8512029284952903  1.0000
  H   H7        1.0  0.12397789250776013  0.04829020308207532  0.8512053532496114  1.0000
  H   H8        1.0  0.37602255930590905  0.45170911546494363  0.8512052073578149  1.0000
  H   H9        1.0  0.9517061562911453  0.876022667718864  0.3512029550156158  1.0000
  H   H10       1.0  0.5482935686685978  0.6239769312530753  0.3512031000281938  1.0000
  H   H11       1.0  0.6239755666568386  0.9517079485855505  0.3512045882114594  1.0000
  H   H12       1.0  0.8760257484569963  0.5482916503992714  0.35120462370194633  1.0000
  H   H13       1.0  0.5482938637833712  0.8760236224493742  0.14879677503618186  1.0000
  H   H14       1.0  0.9517054277409258  0.6239763467562868  0.14879674334827095  1.0000
  H   H15       1.0  0.8760227742375052  0.9517090432592783  0.14879471320251986  1.0000
  H   H16       1.0  0.6239781074393562  0.5482901308764099  0.14879485909432336  1.0000
  H   H17       1.0  0.022168825978013704  0.26411797315881813  0.6499789388408319  1.0000
  H   H18       1.0  0.4778311902920934  0.23588171346368375  0.6499788453949481  1.0000
  H   H19       1.0  0.23588272088895224  0.0221688361794818  0.6499836817329767  1.0000
  H   H20       1.0  0.2641165003035368  0.477831645517263  0.6499819946776672  1.0000
  H   H21       1.0  0.4778320866215396  0.2641119731758437  0.8500198225679159  1.0000
  H   H22       1.0  0.0221683673104636  0.23588734753987953  0.8500195340982375  1.0000
  H   H23       1.0  0.26412452407961956  0.022168933323790403  0.8500179507187017  1.0000
  H   H24       1.0  0.2358751347695716  0.4778295922982991  0.850017459860361  1.0000
  H   H25       1.0  0.9778310456887881  0.7358812731746481  0.35002112761148413  1.0000
  H   H26       1.0  0.522167886304139  0.7641183279512519  0.3500212210573609  1.0000
  H   H27       1.0  0.764117945864193  0.9778312052512207  0.3500163847189769  1.0000
  H   H28       1.0  0.7358833713711519  0.5221683959055528  0.3500180717744642  1.0000
  H   H29       1.0  0.5221685801312574  0.7358880682545036  0.14998063849278515  1.0000
  H   H30       1.0  0.9778322994351498  0.7641118988018366  0.14998013774515334  1.0000
  H   H31       1.0  0.735875347578599  0.9778295179196022  0.14998290495127264  1.0000
  H   H32       1.0  0.7641255319753384  0.5221696540426919  0.14998300120051775  1.0000
  H   H33       1.0  0.0697432791322043  0.6796941517271619  0.658128689381492  1.0000
  H   H34       1.0  0.43025391826112985  0.8203060993416287  0.6581285788160546  1.0000
  H   H35       1.0  0.8203159416892876  0.0697480014695557  0.6581274782950929  1.0000
  H   H36       1.0  0.6796828589010461  0.4302520468702299  0.6581266388329469  1.0000
  H   H37       1.0  0.4302547449033087  0.679693583676162  0.8418730420464161  1.0000
  H   H38       1.0  0.069746099582396  0.8203063313263287  0.841873483998427  1.0000
  H   H39       1.0  0.6796902507265514  0.0697448485576544  0.8418695730611037  1.0000
  H   H40       1.0  0.8203066314334322  0.4302572489315822  0.8418706450449566  1.0000
  H   H41       1.0  0.9302565925349527  0.3203050946066669  0.34187098246207637  1.0000
  H   H42       1.0  0.5697427730918463  0.1796931469602967  0.3418714876369507  1.0000
  H   H43       1.0  0.1796839300015236  0.9302536301323343  0.34187219354793547  1.0000
  H   H44       1.0  0.3203154226020147  0.5697464043591937  0.3418722437936594  1.0000
  H   H45       1.0  0.5697451267950343  0.320308843014729  0.15812702440518228  1.0000
  H   H46       1.0  0.9302545671635729  0.1796929150157496  0.15812579323622344  1.0000
  H   H47       1.0  0.3203104160269491  0.9302551928734105  0.15813009878210957  1.0000
  H   H48       1.0  0.17969005993496273  0.5697435875486933  0.15812981601643375  1.0000
  H   H49       1.0  0.0741149015808702  0.5546098723286903  0.7349353624301502  1.0000
  H   H50       1.0  0.42588374873751894  0.9453902382611261  0.7349351975392227  1.0000
  H   H51       1.0  0.9453960692208769  0.0741205730084999  0.734933306587138  1.0000
  H   H52       1.0  0.5546033892404268  0.4258817201132176  0.7349333130948782  1.0000
  H   H53       1.0  0.4258798464238893  0.554604587489152  0.765066819848322  1.0000
  H   H54       1.0  0.0741187500496991  0.9453946728943452  0.7650672036425308  1.0000
  H   H55       1.0  0.5546118000522641  0.0741150795877843  0.7650653212382114  1.0000
  H   H56       1.0  0.9453860143661289  0.42588238786325416  0.7650667350102441  1.0000
  H   H57       1.0  0.9258849700783999  0.4453885789157824  0.26506430941359593  1.0000
  H   H58       1.0  0.574115327867297  0.054610598243883104  0.2650640796954137  1.0000
  H   H59       1.0  0.0546045975326237  0.9258794684225652  0.2650663652560753  1.0000
  H   H60       1.0  0.445395687356161  0.5741183213020806  0.2650663587486833  1.0000
  H   H61       1.0  0.5741176400226068  0.44539624899864816  0.23493403582164527  1.0000
  H   H62       1.0  0.9258827117743709  0.05460457345525779  0.23493246820068245  1.0000
  H   H63       1.0  0.44538807161453786  0.925884166745682  0.23493474521409757  1.0000
  H   H64       1.0  0.05461147206459321  0.5741168584458337  0.23493412066007124  1.0000
  H   H65       1.0  0.9364513241011783  0.27899856108383864  0.46516057324907945  1.0000
  H   H66       1.0  0.5635478212583251  0.22100104514121457  0.4651602733474719  1.0000
  H   H67       1.0  0.22100569889346391  0.9364484683628124  0.4651578198756925  1.0000
  H   H68       1.0  0.2789950235830858  0.5635505455417302  0.4651571017887478  1.0000
  H   H69       1.0  0.5635495758565058  0.2789920759637213  0.03484021445399321  1.0000
  H   H70       1.0  0.9364503383565792  0.22100752231425252  0.034839751212480514  1.0000
  H   H71       1.0  0.2790086469993511  0.9364534126284242  0.03484249662018611  1.0000
  H   H72       1.0  0.2209920492428026  0.5635455933114103  0.03484219855042171  1.0000
  H   H73       1.0  0.0635477524950545  0.7210014803310968  0.5348394932032223  1.0000
  H   H74       1.0  0.43645205041636365  0.778998996281608  0.5348397931046593  1.0000
  H   H75       1.0  0.7789949678518013  0.06355077797854142  0.5348422465764459  1.0000
  H   H76       1.0  0.7210048480916028  0.43644949588109233  0.5348429646633833  1.0000
  H   H77       1.0  0.4364510908884042  0.7210071703772698  0.9651602466068926  1.0000
  H   H78       1.0  0.06355112346749078  0.7789917240353503  0.9651599206307397  1.0000
  H   H79       1.0  0.7209928148243636  0.0635458337208092  0.9651575698317746  1.0000
  H   H80       1.0  0.7790078224239992  0.43645365302205624  0.9651578679018943  1.0000
  C   C1        1.0  0.0703894284053064  0.8954066672716368  0.6620289535693049  1.0000
  C   C2        1.0  0.4296085571138448  0.6045951668496627  0.6620285456656776  1.0000
  C   C3        1.0  0.6046016180364404  0.070383520176037  0.6620258651749895  1.0000
  C   C4        1.0  0.8953979706495829  0.42961493086027513  0.6620269045562284  1.0000
  C   C5        1.0  0.42961207898585496  0.8954084788377442  0.8379762323479345  1.0000
  C   C6        1.0  0.0703879773841578  0.6045914432851731  0.8379763763990059  1.0000
  C   C7        1.0  0.8953974313237509  0.07038465310992591  0.8379676344173748  1.0000
  C   C8        1.0  0.6046018430521231  0.429618246630753  0.8379676173450934  1.0000
  C   C9        1.0  0.9296120334266507  0.10459337416732242  0.3379707182737378  1.0000
  C   C10       1.0  0.5703905194899193  0.39540566965427365  0.337971915395194  1.0000
  C   C11       1.0  0.39539825363106473  0.9296157261581542  0.33797341205983156  1.0000
  C   C12       1.0  0.10460031087536951  0.5703859056354048  0.3379739511135612  1.0000
  C   C13       1.0  0.5703869976264998  0.1045931527562658  0.16202343949526476  1.0000
  C   C14       1.0  0.9296126893618111  0.39540780305689793  0.16202290083563756  1.0000
  C   C15       1.0  0.10460323544551643  0.9296169784998584  0.16203203742547603  1.0000
  C   C16       1.0  0.39539723355234463  0.5703825898739012  0.16203205449829036  1.0000
  C   C17       1.0  0.07083706471840401  0.8200250036564397  0.7072317966245267  1.0000
  C   C18       1.0  0.4291584547841722  0.6799751575767417  0.7072321442424826  1.0000
  C   C19       1.0  0.6799805854700481  0.07083663226153902  0.7072310424238142  1.0000
  C   C20       1.0  0.820018922495038  0.4291665066222734  0.7072313258074276  1.0000
  C   C21       1.0  0.42916374263511164  0.8200260939325048  0.7927722393596927  1.0000
  C   C22       1.0  0.070834804353062  0.6799747059515512  0.7927719547125567  1.0000
  C   C23       1.0  0.8200200630659114  0.0708411232616086  0.7927640353986977  1.0000
  C   C24       1.0  0.679978497012705  0.42916344933563294  0.7927647747324474  1.0000
  C   C25       1.0  0.9291643971210846  0.1799758328715129  0.29276826982707865  1.0000
  C   C26       1.0  0.5708374415143497  0.3200264739857274  0.29276752760142  1.0000
  C   C27       1.0  0.3200192862053442  0.9291634091620083  0.2927682348108292  1.0000
  C   C28       1.0  0.17998015411696144  0.5708351249713743  0.2927687406445259  1.0000
  C   C29       1.0  0.570832948748695  0.17997633272612026  0.2072286163100899  1.0000
  C   C30       1.0  0.9291666574792504  0.3200253354877632  0.20722732252173875  1.0000
  C   C31       1.0  0.17997980863313498  0.92916130343  0.20723524183541298  1.0000
  C   C32       1.0  0.3200197845211933  0.5708381822504907  0.20723489711093634  1.0000
  C   C33       1.0  0.07056088248403819  0.7098144930330931  0.698430862649133  1.0000
  C   C34       1.0  0.4294362429009909  0.79018568431529  0.6984303713757359  1.0000
  C   C35       1.0  0.7901911861208718  0.07056581279118751  0.6984261134481218  1.0000
  C   C36       1.0  0.7098083375843417  0.4294381372882727  0.6984260503750125  1.0000
  C   C37       1.0  0.4294361488044915  0.7098147775627056  0.8015724336711474  1.0000
  C   C38       1.0  0.07056238244413751  0.7901844160450012  0.8015724941995332  1.0000
  C   C39       1.0  0.7098110471307563  0.07056333109161271  0.8015697537148586  1.0000
  C   C40       1.0  0.7901859070415258  0.42943963520341555  0.8015708392598885  1.0000
  C   C41       1.0  0.9294397842615753  0.29018475330861554  0.301568809194258  1.0000
  C   C42       1.0  0.5705612435462087  0.20981515217322766  0.30156969507674364  1.0000
  C   C43       1.0  0.20980868556993934  0.9294358188107028  0.30157355839490674  1.0000
  C   C44       1.0  0.2901907390362481  0.570564289395449  0.3015732268592687  1.0000
  C   C45       1.0  0.5705605425796705  0.2901876490962749  0.19842802738988755  1.0000
  C   C46       1.0  0.9294390793720525  0.20981403521524572  0.19842717764386467  1.0000
  C   C47       1.0  0.29018882456005474  0.9294383005102845  0.19842991812816996  1.0000
  C   C48       1.0  0.20981078433474923  0.5705619963662161  0.19842962180133136  1.0000
  C   C49       1.0  0.0725462610005607  0.640295835955506  0.7410328378193827  1.0000
  C   C50       1.0  0.4274531735017889  0.8597042634886594  0.7410327107670799  1.0000
  C   C51       1.0  0.8597088527333485  0.0725557768526954  0.7410264793175403  1.0000
  C   C52       1.0  0.6402890046918233  0.427447300196647  0.741026842198288  1.0000
  C   C53       1.0  0.42744700621259574  0.6402945688143191  0.758971278976347  1.0000
  C   C54       1.0  0.0725516011602139  0.8597054978088181  0.7589713073757596  1.0000
  C   C55       1.0  0.6402958051707159  0.0725480187433831  0.7589685977338905  1.0000
  C   C56       1.0  0.8597028152597161  0.42745343531549196  0.7589688645049864  1.0000
  C   C57       1.0  0.9274544057454079  0.3597034103865652  0.2589664394152679  1.0000
  C   C58       1.0  0.5725443129529425  0.14029736808885931  0.2589677502939623  1.0000
  C   C59       1.0  0.1402910189656978  0.9274466498389131  0.2589727979165702  1.0000
  C   C60       1.0  0.3597084817478447  0.5725527412028768  0.2589728296456216  1.0000
  C   C61       1.0  0.5725504802421355  0.35970706276319925  0.2410291820846951  1.0000
  C   C62       1.0  0.927449860663863  0.1402937485407776  0.24102836446745368  1.0000
  C   C63       1.0  0.3597040665122081  0.927452817769151  0.2410310741093228  1.0000
  C   C64       1.0  0.14029546626629502  0.5725474011812751  0.24103080733857507  1.0000
  C   C65       1.0  0.9586549942980298  0.23311493807664624  0.4997069957828233  1.0000
  C   C66       1.0  0.5413440893446335  0.26688540004544603  0.49970668497655896  1.0000
  C   C67       1.0  0.2668858906271936  0.9586533522252554  0.4997054057434413  1.0000
  C   C68       1.0  0.2331147701146321  0.541344803395454  0.4997047177366414  1.0000
  C   C69       1.0  0.5413465856745747  0.23309932975131187  0.00029578559593800013  1.0000
  C   C70       1.0  0.9586533902514702  0.2668995366256581  0.00029568660389150004  1.0000
  C   C71       1.0  0.23313128091922414  0.9586590398411089  0.0002925331154913001  1.0000
  C   C72       1.0  0.2668686819755379  0.5413400292896497  0.0002922249348956001  1.0000
  C   C73       1.0  0.04134408229784731  0.7668851033379271  0.500293465278226  1.0000
  C   C74       1.0  0.45865657741605054  0.7331154364742574  0.5002937760839645  1.0000
  C   C75       1.0  0.7331147761101776  0.04134509902673501  0.5002946607088747  1.0000
  C   C76       1.0  0.7668851015604121  0.4586552380277312  0.5002949541067425  1.0000
  C   C77       1.0  0.4586540810628037  0.7668991215006857  0.9997042808563781  1.0000
  C   C78       1.0  0.041348071572251406  0.7330997097235823  0.9997043798480694  1.0000
  C   C79       1.0  0.766869385817799  0.04133941141052589  0.999707927945565  1.0000
  C   C80       1.0  0.7331319847693649  0.4586592170513414  0.9997082361259831  1.0000
  C   C81       1.0  0.0022832361069476  0.1893977284246375  0.5790685579569371  1.0000
  C   C82       1.0  0.4977161117816209  0.31060208789930505  0.5790684222054595  1.0000
  C   C83       1.0  0.3106032653941497  0.0022828671322870004  0.5790689271061994  1.0000
  C   C84       1.0  0.18939528741596942  0.49771694918376863  0.5790680530563679  1.0000
  C   C85       1.0  0.4977161945005407  0.1893919931545227  0.9209337885262773  1.0000
  C   C86       1.0  0.0022841327281924  0.3106071978453713  0.9209334751708201  1.0000
  C   C87       1.0  0.18940438023260955  0.0022821475446904  0.9209287681992183  1.0000
  C   C88       1.0  0.31059515192648496  0.4977170434563405  0.9209286302794627  1.0000
  C   C89       1.0  0.9977166355598541  0.8106015179088291  0.42093150849537875  1.0000
  C   C90       1.0  0.5022853500499807  0.6893979535392916  0.42093164424632346  1.0000
  C   C91       1.0  0.6893966062726593  0.9977163792011795  0.42093113934610943  1.0000
  C   C92       1.0  0.8106045842511878  0.5022822971500603  0.4209316187872006  1.0000
  C   C93       1.0  0.5022844722443693  0.8106072531864613  0.07906667253460851  1.0000
  C   C94       1.0  0.997716534017066  0.6893920484959823  0.07906659128131822  1.0000
  C   C95       1.0  0.8105954914263125  0.9977163036994201  0.07907129825327533  1.0000
  C   C96       1.0  0.6894055148187803  0.502282202885013  0.07907143617267563  1.0000
  N   N1        1.0  0.9718896328184459  0.12892020021208586  0.49888978159987135  1.0000
  N   N2        1.0  0.5281102473707336  0.3710809345021319  0.4988894297424836  1.0000
  N   N3        1.0  0.37108264461146934  0.9718870585088695  0.4988897236751203  1.0000
  N   N4        1.0  0.12891801760347482  0.5281126887825496  0.4988890872578865  1.0000
  N   N5        1.0  0.5281090854979951  0.1289051229401394  0.0011110735834166004  1.0000
  N   N6        1.0  0.9718908889714019  0.3710937419455504  0.0011109219456387003  1.0000
  N   N7        1.0  0.1289331992148846  0.9718890876527267  0.0011109714960256005  1.0000
  N   N8        1.0  0.3710667622254818  0.5281107750703383  0.0011106236233118004  1.0000
  N   N9        1.0  0.028110238864130107  0.8710806363000927  0.5011102848520752  1.0000
  N   N10       1.0  0.4718904193824116  0.6289191069285708  0.50111063670947  1.0000
  N   N11       1.0  0.6289180221341442  0.028112187832839215  0.5011099481682707  1.0000
  N   N12       1.0  0.8710818540712069  0.4718873526402732  0.5011109791942446  1.0000
  N   N13       1.0  0.47189158124726305  0.8710941234012142  0.9988889928687147  1.0000
  N   N14       1.0  0.028109777773856603  0.6289055043958031  0.9988891445064996  1.0000
  N   N15       1.0  0.8710674675221386  0.028109363598908015  0.9988894895650307  1.0000
  N   N16       1.0  0.6289339045276635  0.47188926636036416  0.9988894428286419  1.0000
  N   N17       1.0  0.9996526324364938  0.09873486139167649  0.5500397568895468  1.0000
  N   N18       1.0  0.5003471563624302  0.4012661797593537  0.5500390090122381  1.0000
  N   N19       1.0  0.4012664377399632  0.999651831376383  0.5500416584506598  1.0000
  N   N20       1.0  0.09873174785371222  0.5003486174139413  0.550040653129557  1.0000
  N   N21       1.0  0.5003469791468548  0.09872715839291861  0.9499604383060717  1.0000
  N   N22       1.0  0.9996536852549343  0.4012723561489793  0.9499602609392216  1.0000
  N   N23       1.0  0.09874349783957832  0.9996508505494365  0.9499595345075067  1.0000
  N   N24       1.0  0.4012563584407118  0.5003480716450497  0.9499587912848856  1.0000
  N   N25       1.0  0.0003480343241833  0.9012659751280269  0.4499607041709768  1.0000
  N   N26       1.0  0.49965430547705847  0.598734656768592  0.4499610574393672  1.0000
  N   N27       1.0  0.598734229005295  0.0003474149649705  0.4499584080014787  1.0000
  N   N28       1.0  0.9012681238209695  0.4996514240088816  0.4499594133225744  1.0000
  N   N29       1.0  0.49965448267686713  0.9012720879563147  0.05003962814588901  1.0000
  N   N30       1.0  0.0003461864201100001  0.5987276852742058  0.050039410904162224  1.0000
  N   N31       1.0  0.9012563738107532  0.0003468056045932  0.05004132116264512  1.0000
  N   N32       1.0  0.5987451033908968  0.49965196979354687  0.05004127516689752  1.0000
  N   N33       1.0  0.026882160559694102  0.19321355933178813  0.6303211245691929  1.0000
  N   N34       1.0  0.4731170957628451  0.30678695833028513  0.6303210013079552  1.0000
  N   N35       1.0  0.30678629187255524  0.026881256883172003  0.6303226790958905  1.0000
  N   N36       1.0  0.1932129644478735  0.4731192607767343  0.6303218144337139  1.0000
  N   N37       1.0  0.47312211620590733  0.19320822502031385  0.8696804309797134  1.0000
  N   N38       1.0  0.026878302589914  0.3067902646425297  0.8696805031763976  1.0000
  N   N39       1.0  0.19321945642398225  0.026883092007103912  0.869676583584479  1.0000
  N   N40       1.0  0.30677937222233004  0.4731153976475468  0.8696760637883617  1.0000
  N   N41       1.0  0.9731177111149949  0.8067864820910344  0.36967894188294553  1.0000
  N   N42       1.0  0.5268843660762884  0.6932138781972986  0.3696794597523907  1.0000
  N   N43       1.0  0.6932143748730653  0.9731179894585366  0.36967699274750043  1.0000
  N   N44       1.0  0.8067877022977399  0.5268799855649748  0.3696778574096769  1.0000
  N   N45       1.0  0.5268793456099203  0.8067902262395706  0.13031963547242506  1.0000
  N   N46       1.0  0.9731215690772431  0.6932089816912993  0.13031916866717103  1.0000
  N   N47       1.0  0.8067796201478856  0.9731145641390455  0.13032427208585065  1.0000
  N   N48       1.0  0.6932204994441236  0.5268838486855572  0.13032439727269465  1.0000
  N   N49       1.0  0.9760174983582106  0.2753971225511833  0.5484301132848233  1.0000
  N   N50       1.0  0.523982293308748  0.2246031264547952  0.5484294344855203  1.0000
  N   N51       1.0  0.22460295186574805  0.9760192300178262  0.5484289365184056  1.0000
  N   N52       1.0  0.2753960316714696  0.5239796315510219  0.548428632407962  1.0000
  N   N53       1.0  0.523982436808474  0.2753898854203882  0.9515739485676707  1.0000
  N   N54       1.0  0.9760182247021022  0.22460883108027474  0.9515742555930448  1.0000
  N   N55       1.0  0.2754081051909267  0.9760225455380581  0.9515683209767406  1.0000
  N   N56       1.0  0.224591748206258  0.5239755786234995  0.9515684337299678  1.0000
  N   N57       1.0  0.023981578237666706  0.7246029188633969  0.4515703477762259  1.0000
  N   N58       1.0  0.47601996360884175  0.775397710080675  0.4515710265746551  1.0000
  N   N59       1.0  0.7753977148716232  0.023979221234171205  0.45157112993391035  1.0000
  N   N60       1.0  0.724603839995332  0.47601961478244453  0.45157143404434674  1.0000
  N   N61       1.0  0.4760182299367842  0.7246093609209653  0.04842611788446763  1.0000
  N   N62       1.0  0.0239832371216195  0.7753904152689588  0.04842581085891602  1.0000
  N   N63       1.0  0.7245917664679883  0.023975905706052507  0.04843174547574591  1.0000
  N   N64       1.0  0.7754089185386519  0.47602366771749177  0.048432027330910905  1.0000
  O   O1        1.0  0.044894111319095514  0.8578790337875337  0.6162547479217368  1.0000
  O   O2        1.0  0.4551015707513812  0.6421228840413991  0.6162531281519394  1.0000
  O   O3        1.0  0.6421243387839084  0.04488462345816661  0.6162508538043243  1.0000
  O   O4        1.0  0.857876126767977  0.45511391131804413  0.6162515035474032  1.0000
  O   O5        1.0  0.45510108625444456  0.8578860378061253  0.8837524279125123  1.0000
  O   O6        1.0  0.044898888326393716  0.6421138005829692  0.8837525662574708  1.0000
  O   O7        1.0  0.8578686392609782  0.04488333814327921  0.8837430518634054  1.0000
  O   O8        1.0  0.6421297582723398  0.4551218631251999  0.883743006886768  1.0000
  O   O9        1.0  0.9551057603555934  0.14212100763528923  0.38374531853039445  1.0000
  O   O10       1.0  0.5448998910726887  0.35787636230819697  0.3837465436912738  1.0000
  O   O11       1.0  0.3578771230480413  0.955115417980785  0.38374881803871846  1.0000
  O   O12       1.0  0.1421237449221238  0.5448877202831284  0.38374895751311316  1.0000
  O   O13       1.0  0.5448995805230582  0.14211638889337053  0.11624684932142063  1.0000
  O   O14       1.0  0.955101778419568  0.35788544575910225  0.11624671097717965  1.0000
  O   O15       1.0  0.14213123244560683  0.9551198836373302  0.11625661997926783  1.0000
  O   O16       1.0  0.35786931833212793  0.5448789733794542  0.11625666495661592  1.0000
  O   O17       1.0  0.0956993200225895  0.9922209675835773  0.668682818898887  1.0000
  O   O18       1.0  0.4043010388433004  0.5077808543900703  0.6686824656102461  1.0000
  O   O19       1.0  0.5077891347292224  0.09569581374535122  0.6686805625420862  1.0000
  O   O20       1.0  0.9922096470123166  0.4043050103787564  0.668681176289674  1.0000
  O   O21       1.0  0.4043056977090914  0.9922206991469978  0.8313199558362145  1.0000
  O   O22       1.0  0.09569516562471142  0.507778440070446  0.831319737722389  1.0000
  O   O23       1.0  0.9922112117274084  0.09569490373097983  0.8313156879308256  1.0000
  O   O24       1.0  0.5077880745167462  0.4043064179975958  0.8313169084710028  1.0000
  O   O25       1.0  0.9043013467230241  0.007778278758138402  0.33131685294450364  1.0000
  O   O26       1.0  0.5956980377686991  0.49222077720357754  0.33131760084170037  1.0000
  O   O27       1.0  0.49221153202427814  0.9043042276857136  0.3313191093011272  1.0000
  O   O28       1.0  0.0077886345058076  0.5956950310286546  0.331318495554065  1.0000
  O   O29       1.0  0.595695764137929  0.007780932469948701  0.16868050522395353  1.0000
  O   O30       1.0  0.9043047060349142  0.4922200111743892  0.16867953951260972  1.0000
  O   O31       1.0  0.0077894550264475  0.9043051377004476  0.16868358930364746  1.0000
  O   O32       1.0  0.4922110020945426  0.5956952135953345  0.16868394719843147  1.0000
