data_image0
_chemical_formula_structural       Zn2H26C28N4O10
_chemical_formula_sum              "Zn2 H26 C28 N4 O10"
_cell_length_a       8.010267056266159
_cell_length_b       9.308899038067421
_cell_length_c       9.738666010641031
_cell_angle_alpha    98.73882017359794
_cell_angle_beta     93.95101704587184
_cell_angle_gamma    110.66019735745061

_space_group_name_H-M_alt    "P 1"
_space_group_IT_number       1

loop_
  _space_group_symop_operation_xyz
  'x, y, z'

loop_
  _atom_site_type_symbol
  _atom_site_label
  _atom_site_symmetry_multiplicity
  _atom_site_fract_x
  _atom_site_fract_y
  _atom_site_fract_z
  _atom_site_occupancy
  Zn  Zn1       1.0  0.6171545716008923  0.6697706152975373  0.5081113952295409  1.0000
  Zn  Zn2       1.0  0.3828442816290121  0.3302290285397548  0.4918877236210192  1.0000
  H   H1        1.0  0.4374032734988448  0.8826190810409857  0.8954388432159062  1.0000
  H   H2        1.0  0.5625995763263845  0.11738408974753162  0.10456304379736278  1.0000
  H   H3        1.0  0.2939752084490267  0.9143159871999488  0.11354188226004422  1.0000
  H   H4        1.0  0.7060254195616764  0.08568484273948941  0.886460579314459  1.0000
  H   H5        1.0  0.16453189550777134  0.4253865666591993  0.12287403956126038  1.0000
  H   H6        1.0  0.8354681906300171  0.5746130762876478  0.8771230880117782  1.0000
  H   H7        1.0  0.30345809575926813  0.396257138302758  0.9073156868963534  1.0000
  H   H8        1.0  0.6965425006383724  0.6037436808881295  0.09268369091593337  1.0000
  H   H9        1.0  0.9876043410151427  0.6097894496550114  0.39398580159461  1.0000
  H   H10       1.0  0.01239255547687184  0.39020551786894947  0.60601253966486  1.0000
  H   H11       1.0  0.9714190969222898  0.4649092665220636  0.24643324992178606  1.0000
  H   H12       1.0  0.02858349718203369  0.5350903889753128  0.7535640067791717  1.0000
  H   H13       1.0  0.9025399435529238  0.7957207707234277  0.296011870993631  1.0000
  H   H14       1.0  0.09745941993682551  0.20428004935789093  0.7039894980961774  1.0000
  H   H15       1.0  0.643492754322942  0.032355189882736106  0.556785314546751  1.0000
  H   H16       1.0  0.356507363427916  0.9676444638126686  0.4432148967885041  1.0000
  H   H17       1.0  0.8112510883083174  0.21963153793060294  0.3728943285930412  1.0000
  H   H18       1.0  0.18874775438388988  0.7803681023238342  0.6271037623367801  1.0000
  H   H19       1.0  0.13973201390127338  0.1083040355277731  0.23406603619291383  1.0000
  H   H20       1.0  0.8602676146651123  0.8916944490893004  0.7659339807445703  1.0000
  H   H21       1.0  0.9837649466537995  0.19020073072433524  0.18184780118589564  1.0000
  H   H22       1.0  0.01623566028153084  0.8098000920494004  0.8181526045471299  1.0000
  H   H23       1.0  0.7992117523137877  0.9338689056820617  0.019839582852043267  1.0000
  H   H24       1.0  0.2007888651592324  0.06613192067452901  0.9801618508017281  1.0000
  H   H25       1.0  0.9609442532468789  0.8557728459319165  0.06887558000369148  1.0000
  H   H26       1.0  0.03905462105840483  0.14422680507107097  0.931125594688346  1.0000
  C   C1        1.0  0.44677212022024554  0.6092546060742025  0.7500818299545882  1.0000
  C   C2        1.0  0.5532294545463401  0.39074855127334035  0.24991793665324738  1.0000
  C   C3        1.0  0.376397019951952  0.636133710144783  0.8857521570745417  1.0000
  C   C4        1.0  0.6236070733188583  0.363869463336144  0.11424876658194447  1.0000
  C   C5        1.0  0.3766734913509283  0.7832256800158464  0.9459820521171591  1.0000
  C   C6        1.0  0.6233276258442472  0.21677631900192307  0.054020603855121876  1.0000
  C   C7        1.0  0.2955938236699113  0.8011046301240727  0.06589031973488356  1.0000
  C   C8        1.0  0.7044068043407922  0.19889619981536555  0.9341121418396197  1.0000
  C   C9        1.0  0.21347880411757097  0.6716916816131261  0.12826370916076257  1.0000
  C   C10       1.0  0.7865188056667521  0.3283079595317488  0.8717363730465804  1.0000
  C   C11       1.0  0.22075599144467625  0.525998575487563  0.07325644295286081  1.0000
  C   C12       1.0  0.7792441157684918  0.47400107462499375  0.9267427404616552  1.0000
  C   C13       1.0  0.2999463633858284  0.5094469048124637  0.952361440536748  1.0000
  C   C14       1.0  0.7000554869950832  0.4905539206536816  0.047638001839502016  1.0000
  C   C15       1.0  0.21885228265482942  0.5426473012190202  0.3918380662993853  1.0000
  C   C16       1.0  0.7811485998948199  0.4573511896733109  0.6081620152020546  1.0000
  C   C17       1.0  0.06375580867485553  0.5723826177107654  0.3158234106377264  1.0000
  C   C18       1.0  0.9362415875393139  0.4276135224743741  0.6841761529402459  1.0000
  C   C19       1.0  0.8533338647963546  0.883468357829017  0.3431057409898557  1.0000
  C   C20       1.0  0.14666673160128602  0.11653246136186374  0.6568936368224383  1.0000
  C   C21       1.0  0.7209909657612242  0.0098065330593187  0.4751710545916337  1.0000
  C   C22       1.0  0.2790083871908424  0.9901942834391525  0.524829286577443  1.0000
  C   C23       1.0  0.8032067502662413  0.10397237947796611  0.3848940202037595  1.0000
  C   C24       1.0  0.1967933569469268  0.8960272706345834  0.6151051632107567  1.0000
  C   C25       1.0  0.9976594089479818  0.07979966567513941  0.19469588851180925  1.0000
  C   C26       1.0  0.002341197987348865  0.9202011570985892  0.8053045172212163  1.0000
  C   C27       1.0  0.9432440866390625  0.96505103795186  0.05527507555896707  1.0000
  C   C28       1.0  0.056755552465013195  0.0349474502480618  0.9447259692992557  1.0000
  N   N1        1.0  0.8863752168347503  0.022519098215347807  0.3022951495204608  1.0000
  N   N2        1.0  0.11362490091610786  0.9774805554800569  0.6977050618147941  1.0000
  N   N3        1.0  0.7528560344765651  0.8722549891137846  0.44777030429607817  1.0000
  N   N4        1.0  0.2471428503664014  0.12774466547205782  0.5522318983166911  1.0000
  O   O1        1.0  0.5562796373825165  0.7264867217478114  0.7078499916635292  1.0000
  O   O2        1.0  0.4437219373840692  0.2735164355997385  0.2921497749443063  1.0000
  O   O3        1.0  0.38852150697952953  0.4685266044347218  0.6839906342587126  1.0000
  O   O4        1.0  0.6114780490050008  0.5314777094406297  0.3160091976189817  1.0000
  O   O5        1.0  0.18532358580073097  0.40268787536528106  0.40915473492832877  1.0000
  O   O6        1.0  0.8146760111525849  0.5973105985032349  0.590842198246932  1.0000
  O   O7        1.0  0.36272724090417097  0.6594199023260006  0.4322884511320522  1.0000
  O   O8        1.0  0.637272876846687  0.340579751369397  0.5677117602032025  1.0000
  O   O9        1.0  0.12651608418458693  0.69723195347666  0.24000693945384907  1.0000
  O   O10       1.0  0.8734810364152635  0.3027665185898912  0.7599929483557161  1.0000
