data_image0
_chemical_formula_structural       Al4H10C26N2O20
_chemical_formula_sum              "Al4 H10 C26 N2 O20"
_cell_length_a       6.708278326101513
_cell_length_b       14.672895891906682
_cell_length_c       16.82418997433935
_cell_angle_alpha    93.71995509549605
_cell_angle_beta     90.00051050289169
_cell_angle_gamma    89.99959310366283

_space_group_name_H-M_alt    "P 1"
_space_group_IT_number       1

loop_
  _space_group_symop_operation_xyz
  'x, y, z'

loop_
  _atom_site_type_symbol
  _atom_site_label
  _atom_site_symmetry_multiplicity
  _atom_site_fract_x
  _atom_site_fract_y
  _atom_site_fract_z
  _atom_site_occupancy
  Al  Al1       1.0  0.9016368101641987  0.49786232862997076  0.4999475680453429  1.0000
  Al  Al2       1.0  0.40163367116824134  0.5021383514586474  0.5000507422499254  1.0000
  Al  Al3       1.0  0.3629641262718478  0.000316351520375168  0.9995868332616594  1.0000
  Al  Al4       1.0  0.8629690749393576  0.9996880224219069  0.00041373221933579973  1.0000
  H   H1        1.0  0.41881187030919875  0.8172224939510855  0.8082216471815612  1.0000
  H   H2        1.0  0.9187937994583707  0.18277494436699018  0.1917796952883606  1.0000
  H   H3        1.0  0.9611416890275849  0.8065137219417549  0.792066791820474  1.0000
  H   H4        1.0  0.46113250117075927  0.19347618181358683  0.20793587628419627  1.0000
  H   H5        1.0  0.9886599294328988  0.6868372769228938  0.7065652808743863  1.0000
  H   H6        1.0  0.48864030183334256  0.3131662544239476  0.29342916147587056  1.0000
  H   H7        1.0  0.6579389220527788  0.6126493270228862  0.5383455841579234  1.0000
  H   H8        1.0  0.1579382460095289  0.3873460595574229  0.461653673218656  1.0000
  H   H9        1.0  0.611703046847424  0.885025298491982  0.0197271665310055  1.0000
  H   H10       1.0  0.11170031943083811  0.11497503743563439  0.9802725351321442  1.0000
  C   C1        1.0  0.6488079001679949  0.39166098626657225  0.6026188055549325  1.0000
  C   C2        1.0  0.1488052671487665  0.6083383867549371  0.397378639257731  1.0000
  C   C3        1.0  0.6488129702697663  0.3906298702916686  0.38706692603102505  1.0000
  C   C4        1.0  0.14884193646673793  0.6093720127504767  0.6129275443415166  1.0000
  C   C5        1.0  0.2785820551908317  0.7923218621186621  0.7819312148583321  1.0000
  C   C6        1.0  0.7785775882704017  0.20767688325153696  0.21807262822784415  1.0000
  C   C7        1.0  0.10848039784465162  0.8249885811948799  0.8152534421171252  1.0000
  C   C8        1.0  0.6084637851529636  0.17500179977728436  0.1847498085777133  1.0000
  C   C9        1.0  0.2932308795375533  0.726241063092864  0.7129844790989492  1.0000
  C   C10       1.0  0.7932119853014755  0.2737612100043735  0.2870122718176163  1.0000
  C   C11       1.0  0.1375590924889138  0.6766500262522968  0.6818336118973676  1.0000
  C   C12       1.0  0.6375490455104255  0.3233525712803242  0.31816082092471015  1.0000
  C   C13       1.0  0.11796887946783842  0.8307408452140095  0.1660743541072307  1.0000
  C   C14       1.0  0.6179742169340585  0.16926573656660787  0.8339271641203537  1.0000
  C   C15       1.0  0.1269826345217666  0.7780567267189082  0.2194041655176591  1.0000
  C   C16       1.0  0.6269904233523959  0.22195101890694952  0.7805950027613804  1.0000
  C   C17       1.0  0.13593835784707411  0.7202533571344389  0.27856672832277235  1.0000
  C   C18       1.0  0.6359573315175098  0.2797482712383754  0.7214330579113479  1.0000
  C   C19       1.0  0.1443781955566692  0.6682363250355223  0.332410825470987  1.0000
  C   C20       1.0  0.6443936571436525  0.3317624331235222  0.667596728242067  1.0000
  C   C21       1.0  0.6121097398378978  0.11083563896800538  0.11298140008280198  1.0000
  C   C22       1.0  0.1121164904222596  0.8891581393610789  0.8870218676253286  1.0000
  C   C23       1.0  0.6144737637325832  0.10706781509159666  0.8966733383332722  1.0000
  C   C24       1.0  0.1144898965559165  0.8929380520147274  0.10332757143201117  1.0000
  C   C25       1.0  0.4906731973335924  0.7182797818458083  0.6806949458368975  1.0000
  C   C26       1.0  0.9906504210392201  0.2817214065922329  0.31930486043524553  1.0000
  N   N1        1.0  0.6571135708144739  0.7211440690683589  0.6605774756648726  1.0000
  N   N2        1.0  0.15709550900200503  0.27885971540311516  0.33942476806183197  1.0000
  O   O1        1.0  0.4817791107324539  0.42028915033667147  0.41341922560130223  1.0000
  O   O2        1.0  0.9817813804694709  0.5797175062119917  0.5865710284402822  1.0000
  O   O3        1.0  0.8204014065741349  0.4120943301229402  0.5769450290336238  1.0000
  O   O4        1.0  0.3203787982459901  0.5879122561012976  0.4230559895531556  1.0000
  O   O5        1.0  0.8196020724686123  0.4136022304728328  0.4147061811104748  1.0000
  O   O6        1.0  0.31961141154702233  0.5863929439444887  0.5852972017466769  1.0000
  O   O7        1.0  0.9794510606043191  0.5836137633297227  0.4222997074543642  1.0000
  O   O8        1.0  0.47946442372607123  0.41637675799034907  0.5776934948174669  1.0000
  O   O9        1.0  0.6531747560946356  0.5552667536546066  0.5059647388028238  1.0000
  O   O10       1.0  0.1531709051510575  0.44473307191970685  0.4940297436440773  1.0000
  O   O11       1.0  0.7835876781657235  0.08238000930144547  0.922077531253464  1.0000
  O   O12       1.0  0.2836013642731459  0.9176228110136507  0.07792633445121308  1.0000
  O   O13       1.0  0.44186175965982244  0.08711335302981377  0.0847664031023001  1.0000
  O   O14       1.0  0.9418660274403337  0.912884061259703  0.9152356136955575  1.0000
  O   O15       1.0  0.4439968045357503  0.08307197788660396  0.9212661097965406  1.0000
  O   O16       1.0  0.9440077878106905  0.9169332738066204  0.07874068948607518  1.0000
  O   O17       1.0  0.28154308839931735  0.9139059711294594  0.9151596278166493  1.0000
  O   O18       1.0  0.7815390881358795  0.0860879944268049  0.08484421894968361  1.0000
  O   O19       1.0  0.6126928170832784  0.9448632879839848  0.998430962199116  1.0000
  O   O20       1.0  0.11269168343993391  0.055136958531988994  0.0015675515711350999  1.0000
