data_image0
_chemical_formula_structural       Nd4H24C24N8O32
_chemical_formula_sum              "Nd4 H24 C24 N8 O32"
_cell_length_a       8.191636709515189
_cell_length_b       8.351528447455348
_cell_length_c       17.476622687040663
_cell_angle_alpha    89.99982709300453
_cell_angle_beta     90.00022382324893
_cell_angle_gamma    110.30940707325851

_space_group_name_H-M_alt    "P 1"
_space_group_IT_number       1

loop_
  _space_group_symop_operation_xyz
  'x, y, z'

loop_
  _atom_site_type_symbol
  _atom_site_label
  _atom_site_symmetry_multiplicity
  _atom_site_fract_x
  _atom_site_fract_y
  _atom_site_fract_z
  _atom_site_occupancy
  Nd  Nd1       1.0  0.25808277353708325  0.28334401317630403  0.520066760365552  1.0000
  Nd  Nd2       1.0  0.2419185063265133  0.7166564250791653  0.02006651118104231  1.0000
  Nd  Nd3       1.0  0.7419212497970166  0.7166542281671939  0.47993327660303475  1.0000
  Nd  Nd4       1.0  0.7580770892278254  0.2833456224666834  0.9799335257771422  1.0000
  H   H1        1.0  0.3915410453187249  0.9974193983664463  0.5317682862890296  1.0000
  H   H2        1.0  0.1084603163520512  0.0025809935851128997  0.031768820616797214  1.0000
  H   H3        1.0  0.6084654216440271  0.0025788489977572  0.468229461910042  1.0000
  H   H4        1.0  0.8915357281185763  0.9974223307198146  0.968229499762082  1.0000
  H   H5        1.0  0.22315557209999778  0.8963395332868558  0.48142266618777557  1.0000
  H   H6        1.0  0.2768449436382596  0.10366162088498501  0.9814226355255048  1.0000
  H   H7        1.0  0.7768452346994082  0.1036599757891992  0.5185767985840429  1.0000
  H   H8        1.0  0.723155090267099  0.896339161937533  0.01857740143762501  1.0000
  H   H9        1.0  0.5002557515750469  0.21460836900092065  0.654179898443225  1.0000
  H   H10       1.0  0.9997439755882453  0.7853927796472817  0.15418001934511955  1.0000
  H   H11       1.0  0.49974961852592503  0.7853937026096318  0.34582013852383403  1.0000
  H   H12       1.0  0.0002507221235105952  0.21460671438605775  0.8458205898070194  1.0000
  H   H13       1.0  0.6232252566104464  0.32261952105824326  0.5868110810588832  1.0000
  H   H14       1.0  0.8767755453746062  0.6773793466699374  0.08681113356294652  1.0000
  H   H15       1.0  0.3767779938336134  0.6773799940294583  0.4131906724868913  1.0000
  H   H16       1.0  0.1232199252351904  0.3226188736146796  0.9131900477837437  1.0000
  H   H17       1.0  0.30700601431880165  0.6187750277936175  0.7879684395944156  1.0000
  H   H18       1.0  0.19299180223000437  0.3812230615994992  0.28796858349394233  1.0000
  H   H19       1.0  0.6929935706662746  0.3812244782720812  0.21203216956215712  1.0000
  H   H20       1.0  0.8070102263877245  0.6187764504846387  0.7120308812789847  1.0000
  H   H21       1.0  0.614705940692069  0.9345599035538967  0.6146586914689964  1.0000
  H   H22       1.0  0.8852991703418311  0.0654401397676594  0.11465620574291084  1.0000
  H   H23       1.0  0.3852948661133269  0.06543960551876181  0.385342489881616  1.0000
  H   H24       1.0  0.11470086355953413  0.9345606430571184  0.8853426868343564  1.0000
  C   C1        1.0  0.92673079398363  0.4286348259064782  0.5211750294671165  1.0000
  C   C2        1.0  0.573266207666336  0.5713617420112486  0.021175826773891508  1.0000
  C   C3        1.0  0.07327078571580609  0.5713634094197104  0.47882557969218476  1.0000
  C   C4        1.0  0.42672514856417354  0.42863519249454646  0.9788247823770538  1.0000
  C   C5        1.0  0.388785849103506  0.5952649087577129  0.62115826937972  1.0000
  C   C6        1.0  0.1112161374855702  0.4047351294821625  0.12115880296752124  1.0000
  C   C7        1.0  0.6112154066201895  0.4047358770728878  0.3788417675845254  1.0000
  C   C8        1.0  0.8887810038608419  0.5952643705684864  0.8788412339939031  1.0000
  C   C9        1.0  0.4407109285994438  0.7290157395575607  0.6798114293098083  1.0000
  C   C10       1.0  0.059292240921614295  0.27098279284917487  0.17981091630184667  1.0000
  C   C11       1.0  0.5592903271262487  0.2709850462719104  0.32018917984736833  1.0000
  C   C12       1.0  0.9407085658777916  0.7290167162268801  0.8201885484699718  1.0000
  C   C13       1.0  0.39545551806286744  0.7253884766471759  0.7565539069851472  1.0000
  C   C14       1.0  0.1045437496080197  0.27461101681659983  0.2565534710590712  1.0000
  C   C15       1.0  0.6045440669242056  0.2746110294173932  0.24344727436435692  1.0000
  C   C16       1.0  0.8954575061116756  0.7253897690162675  0.7434454215193045  1.0000
  C   C17       1.0  0.4953845309454508  0.8881854783623668  0.7844677409280225  1.0000
  C   C18       1.0  0.004616602609644399  0.1118151844114337  0.2844673572363306  1.0000
  C   C19       1.0  0.5046167247782448  0.111815307468234  0.21553229603621568  1.0000
  C   C20       1.0  0.9953834312937176  0.8881855984122142  0.715532107533868  1.0000
  C   C21       1.0  0.5052131252884067  0.9466381341719199  0.8647515261459449  1.0000
  C   C22       1.0  0.9947888468601535  0.05336090750750342  0.364751545664774  1.0000
  C   C23       1.0  0.49478645969666957  0.0533613718937787  0.13524908301062777  1.0000
  C   C24       1.0  0.0052136306798687675  0.946639881332324  0.6352479191076414  1.0000
  N   N1        1.0  0.5583333919543493  0.8886391937496683  0.6664358395520299  1.0000
  N   N2        1.0  0.941670859233291  0.11136064168301374  0.16643396254061577  1.0000
  N   N3        1.0  0.4416674148510467  0.11136031532298322  0.3335653417985825  1.0000
  N   N4        1.0  0.05833039648840105  0.8886401441487239  0.8335655022306913  1.0000
  N   N5        1.0  0.5929098025530308  0.988378010585926  0.7281611120061985  1.0000
  N   N6        1.0  0.9070936583350645  0.011621577593558604  0.2281598876450915  1.0000
  N   N7        1.0  0.40709145317266154  0.011622775243544903  0.2718394971509782  1.0000
  N   N8        1.0  0.09290759738863129  0.988379208237042  0.7718401493191538  1.0000
  O   O1        1.0  0.32269515956264183  0.0069255509905304  0.48752869439216817  1.0000
  O   O2        1.0  0.1773049499389856  0.9930743022649935  0.9875283489048318  1.0000
  O   O3        1.0  0.6773064201347978  0.993072684336788  0.5124713425741946  1.0000
  O   O4        1.0  0.8226938621460463  0.006926477550571502  0.012471115864258307  1.0000
  O   O5        1.0  0.5027720691745826  0.2461729875471477  0.6003599829339594  1.0000
  O   O6        1.0  0.9972263838954943  0.7538258205511851  0.10036071681540903  1.0000
  O   O7        1.0  0.49723040836543936  0.7538278012926797  0.399639481838456  1.0000
  O   O8        1.0  0.00276741597168242  0.24617111997078925  0.8996398923377458  1.0000
  O   O9        1.0  0.9472173039262587  0.2862269825589578  0.5295509105815911  1.0000
  O   O10       1.0  0.5527809780963153  0.7137695552243957  0.029551465976808813  1.0000
  O   O11       1.0  0.05278427577317762  0.7137712527672307  0.47044969857771  1.0000
  O   O12       1.0  0.4472123728485613  0.28622610854188935  0.9704491431768577  1.0000
  O   O13       1.0  0.79713390741901  0.46617702291337815  0.5432220505662003  1.0000
  O   O14       1.0  0.7028665898341943  0.5338220172968988  0.04322084873285803  1.0000
  O   O15       1.0  0.20286812120071576  0.5338224891696302  0.45677798639965783  1.0000
  O   O16       1.0  0.2971285567958546  0.4661787534943969  0.9567786160329067  1.0000
  O   O17       1.0  0.4866191803766143  0.6095048782846961  0.5617326788204695  1.0000
  O   O18       1.0  0.013382839694600093  0.3904966718552672  0.06173305495758543  1.0000
  O   O19       1.0  0.5133837460876977  0.3904971873096841  0.4382673581443657  1.0000
  O   O20       1.0  0.9866106362008296  0.6095028191688598  0.9382681263863835  1.0000
  O   O21       1.0  0.25036438676801254  0.4684726975688705  0.6305050061907524  1.0000
  O   O22       1.0  0.24964010880025722  0.531527309702483  0.13050560929072225  1.0000
  O   O23       1.0  0.749636868955676  0.5315280882617374  0.36949503077349294  1.0000
  O   O24       1.0  0.7503602490728482  0.4684709226201492  0.8694927110957384  1.0000
  O   O25       1.0  0.3906864850701056  0.8526365940901928  0.9104800044018123  1.0000
  O   O26       1.0  0.10931340976832621  0.14736101353739173  0.41048090440700963  1.0000
  O   O27       1.0  0.6093126509886774  0.147361635222083  0.08951946036940232  1.0000
  O   O28       1.0  0.8906886188494099  0.8526384985467461  0.5895185603659174  1.0000
  O   O29       1.0  0.6266434230476393  0.08234327612039041  0.8838783785962366  1.0000
  O   O30       1.0  0.8733559152017136  0.9176582343638985  0.3838775073823159  1.0000
  O   O31       1.0  0.37335538903939636  0.9176575036940378  0.11612165836578474  1.0000
  O   O32       1.0  0.12664656233830843  0.0823425544759218  0.6161219573901068  1.0000
