data_image0
_chemical_formula_structural       Zn2H27C46N7O12
_chemical_formula_sum              "Zn2 H27 C46 N7 O12"
_cell_length_a       9.829766608790704
_cell_length_b       11.10730778273357
_cell_length_c       28.1084962186444
_cell_angle_alpha    89.40259717968816
_cell_angle_beta     90.409705184412
_cell_angle_gamma    90.10813891254423

_space_group_name_H-M_alt    "P 1"
_space_group_IT_number       1

loop_
  _space_group_symop_operation_xyz
  'x, y, z'

loop_
  _atom_site_type_symbol
  _atom_site_label
  _atom_site_symmetry_multiplicity
  _atom_site_fract_x
  _atom_site_fract_y
  _atom_site_fract_z
  _atom_site_occupancy
  Zn  Zn1       1.0  0.638717512676088  0.49890361038935543  0.49913977368525053  1.0000
  Zn  Zn2       1.0  0.3571674203882651  0.4966947249245734  0.4999483443732801  1.0000
  H   H1        1.0  0.2705965692851962  0.5192171201111365  0.25838187116588074  1.0000
  H   H2        1.0  0.8683238422979258  0.3420943275125694  0.5362575902326016  1.0000
  H   H3        1.0  0.9012300283306306  0.568547760213768  0.48400952924566815  1.0000
  H   H4        1.0  0.4371506872528671  0.7967063716903907  0.12170943979936771  1.0000
  H   H5        1.0  0.2780903274328709  0.48488038796185856  0.6540853410876011  1.0000
  H   H6        1.0  0.2852525586539585  0.480213075691715  0.7431736814931257  1.0000
  H   H7        1.0  0.5785977899313793  0.7878599764068641  0.8769935685827904  1.0000
  H   H8        1.0  0.5556025477805521  0.7964763273837646  0.9642212075186762  1.0000
  H   H9        1.0  0.7058377130423709  0.4692863569646804  0.3476254651060771  1.0000
  H   H10       1.0  0.5060042173866607  0.1967698219784069  0.12290970093653195  1.0000
  H   H11       1.0  0.2993894950472226  0.8892322306268026  0.5143876710973956  1.0000
  H   H12       1.0  0.4246154304185196  0.1969052849312759  0.9676490954774482  1.0000
  H   H13       1.0  0.5947500348330764  0.9023237473070438  0.4788712671474827  1.0000
  H   H14       1.0  0.060148118816151515  0.3159755116565677  0.5815465067014358  1.0000
  H   H15       1.0  0.22238268849449136  0.36903280795132787  0.5683127418738964  1.0000
  H   H16       1.0  0.16982097010492234  0.5970641367536017  0.44038986625207616  1.0000
  H   H17       1.0  0.0453684372579843  0.5003696103071035  0.4332655947412434  1.0000
  H   H18       1.0  0.3883746932194044  0.8317761889458877  0.9965734616951922  1.0000
  H   H19       1.0  0.3824782429563101  0.8913779810404774  0.052010956632472016  1.0000
  H   H20       1.0  0.27312114603533644  0.5153602670991331  0.3475948260319299  1.0000
  H   H21       1.0  0.7131227478540724  0.5117724593619782  0.6505995933303981  1.0000
  H   H22       1.0  0.4255086788951631  0.1987358701242527  0.879354221721151  1.0000
  H   H23       1.0  0.7215678198752331  0.506068070975367  0.7399103360678156  1.0000
  H   H24       1.0  0.4933401838668417  0.19474448617667403  0.0345976591488153  1.0000
  H   H25       1.0  0.30237235591955175  0.11231348747384828  0.4969252742029155  1.0000
  H   H26       1.0  0.6082919391070265  0.08976868589438419  0.5192562538899993  1.0000
  H   H27       1.0  0.7049399346759986  0.47407746637505704  0.2582455359328932  1.0000
  C   C1        1.0  0.49625259870542493  0.7303027890386246  0.4946716573685422  1.0000
  C   C2        1.0  0.4956434926579903  0.6101944202132685  0.9735137163397172  1.0000
  C   C3        1.0  0.46691924826825476  0.3868810714413868  0.9745340912620082  1.0000
  C   C4        1.0  0.490552027262055  0.4912278398797056  0.4061783430715594  1.0000
  C   C5        1.0  0.4841294666849691  0.4976882338876365  0.9491506286474378  1.0000
  C   C6        1.0  0.5325039670173412  0.7122818379142827  0.9464814564154197  1.0000
  C   C7        1.0  0.5484770862467913  0.7078866804348748  0.8971650270181757  1.0000
  C   C8        1.0  0.524489190045145  0.602088907809275  0.8726111238494242  1.0000
  C   C9        1.0  0.4925963989735394  0.4955256013760092  0.8983425425009416  1.0000
  C   C10       1.0  0.4710663640025957  0.38644918496617453  0.8737457102921198  1.0000
  C   C11       1.0  0.47502678211404264  0.3827088282264627  0.8211949124760949  1.0000
  C   C12       1.0  0.61074938060343  0.48335394315819963  0.2780912391066082  1.0000
  C   C13       1.0  0.5348908028691427  0.6023261180662799  0.8202195942676767  1.0000
  C   C14       1.0  0.37867784393856146  0.4864588033575215  0.722642675347231  1.0000
  C   C15       1.0  0.37483997841487593  0.4885301450718345  0.6731593779718568  1.0000
  C   C16       1.0  0.5101771088847756  0.26408199164040264  0.5062885767785305  1.0000
  C   C17       1.0  0.6202740243556947  0.5038273063290504  0.6713208518732614  1.0000
  C   C18       1.0  0.6248350268433357  0.5008802982681999  0.7208608621896391  1.0000
  C   C19       1.0  0.5037772486762009  0.49245312305195893  0.7462564179450268  1.0000
  C   C20       1.0  0.474374534777951  0.6122956157076019  0.024843940085418105  1.0000
  C   C21       1.0  0.47768503120541794  0.5000690620754824  0.0504882208537083  1.0000
  C   C22       1.0  0.47799777689167666  0.38752014349551434  0.0262653238164887  1.0000
  C   C23       1.0  0.48770696020769577  0.49715906878534344  0.2536840188408718  1.0000
  C   C24       1.0  0.44949782044366066  0.7186821248025054  0.05111366216924301  1.0000
  C   C25       1.0  0.4960951996478614  0.2801758244055108  0.10243960808515602  1.0000
  C   C26       1.0  0.4438841115464029  0.2812508176918199  0.9487781129325512  1.0000
  C   C27       1.0  0.44426023346548504  0.2810571705506533  0.8991629456060581  1.0000
  C   C28       1.0  0.49131054678893804  0.4996782384368644  0.5937568894382679  1.0000
  C   C29       1.0  0.48873678477625754  0.28049211305196303  0.0529481924705877  1.0000
  C   C30       1.0  0.39797254775806584  0.0641627217149221  0.5031720654051881  1.0000
  C   C31       1.0  0.5108506929256366  0.131178995077704  0.5101442546512729  1.0000
  C   C32       1.0  0.3943310637008821  0.9336165357160552  0.5040660372221879  1.0000
  C   C33       1.0  0.49975232907246453  0.8633055765605917  0.49171351135672847  1.0000
  C   C34       1.0  0.4789548606552216  0.49805848817458537  0.10132262594165552  1.0000
  C   C35       1.0  0.9196739012220478  0.4185275974506908  0.5188545295850063  1.0000
  C   C36       1.0  0.07021499403028031  0.4227538495697657  0.5221349027479434  1.0000
  C   C37       1.0  0.471074246488314  0.6104566484908247  0.17904565344532136  1.0000
  C   C38       1.0  0.4954490682287018  0.3860992114786653  0.17945586096374203  1.0000
  C   C39       1.0  0.3656458440178696  0.5085582616056215  0.2781586255591932  1.0000
  C   C40       1.0  0.3670644834188509  0.5064752823447307  0.3276551453919581  1.0000
  C   C41       1.0  0.6113377376411365  0.4806399269305999  0.32763493901839524  1.0000
  C   C42       1.0  0.4681819172279945  0.6078977588849098  0.1262708306620723  1.0000
  C   C43       1.0  0.4503552611697472  0.7141962392196533  0.10146360771740602  1.0000
  C   C44       1.0  0.48998147274876663  0.3883598209717221  0.12682972935989062  1.0000
  C   C45       1.0  0.4896611441124393  0.49243522305881277  0.3527758891292765  1.0000
  C   C46       1.0  0.4954809023029868  0.49729854903775095  0.6470964208628802  1.0000
  N   N1        1.0  0.4858074474943949  0.4983830156709459  0.20228961283220315  1.0000
  N   N2        1.0  0.5059313065011395  0.49207085654290245  0.7976146206347394  1.0000
  N   N3        1.0  0.8453110504681759  0.4999402022102259  0.499546024484964  1.0000
  N   N4        1.0  0.1489391305892553  0.48857176841947586  0.4950206390795275  1.0000
  N   N5        1.0  0.12431816058278142  0.3524679895417221  0.5574038501505997  1.0000
  N   N6        1.0  0.0898678709522045  0.5569968880886336  0.4575179460039962  1.0000
  N   N7        1.0  0.4257814035099515  0.8301178208330313  0.030308509138102107  1.0000
  O   O1        1.0  0.6092917216001155  0.6776234496216631  0.48680545486656973  1.0000
  O   O2        1.0  0.60054652630636  0.5248530306180752  0.5720535363113586  1.0000
  O   O3        1.0  0.3767796360743888  0.47595213874512854  0.5737911926987138  1.0000
  O   O4        1.0  0.4614531093964872  0.7042273591665235  0.20162847419278765  1.0000
  O   O5        1.0  0.5652373737576539  0.6926006877785723  0.7968554610446008  1.0000
  O   O6        1.0  0.5072580375870005  0.29243126396541186  0.20278055130373226  1.0000
  O   O7        1.0  0.45273632151057086  0.2903668487483273  0.7985786206151247  1.0000
  O   O8        1.0  0.38419888985063017  0.6780887083630629  0.5049214355220784  1.0000
  O   O9        1.0  0.6026282403150702  0.46783312903043134  0.42713418781566764  1.0000
  O   O10       1.0  0.37814080703019937  0.5143862561260947  0.4266322458466121  1.0000
  O   O11       1.0  0.6241366088531137  0.31718175009621763  0.5133315543632548  1.0000
  O   O12       1.0  0.3982049678432277  0.3164270809652833  0.4960241855597118  1.0000
