data_image0
_chemical_formula_structural       Dy4H24C32N4O24
_chemical_formula_sum              "Dy4 H24 C32 N4 O24"
_cell_length_a       4.540033082083121
_cell_length_b       14.013294316257449
_cell_length_c       16.2403740380123
_cell_angle_alpha    89.99998133435675
_cell_angle_beta     90.00014127590444
_cell_angle_gamma    94.82495600116368

_space_group_name_H-M_alt    "P 1"
_space_group_IT_number       1

loop_
  _space_group_symop_operation_xyz
  'x, y, z'

loop_
  _atom_site_type_symbol
  _atom_site_label
  _atom_site_symmetry_multiplicity
  _atom_site_fract_x
  _atom_site_fract_y
  _atom_site_fract_z
  _atom_site_occupancy
  Dy  Dy1       1.0  0.7566538230004554  0.5023478323503312  0.0904937951682712  1.0000
  Dy  Dy2       1.0  0.7433467944296765  0.9976502324459701  0.590493287618763  1.0000
  Dy  Dy3       1.0  0.24334563341766827  0.4976520391171421  0.9095067747075944  1.0000
  Dy  Dy4       1.0  0.25665486393834397  0.0023496364769642  0.4095066665084985  1.0000
  H   H1        1.0  0.6171111439574589  0.2821078436063189  0.32425194130585316  1.0000
  H   H2        1.0  0.8828738103626892  0.2178916033413429  0.8242460683935491  1.0000
  H   H3        1.0  0.3828883124579718  0.7178920278611967  0.6757480128206481  1.0000
  H   H4        1.0  0.11712564605274178  0.7821082681261732  0.17575388573295211  1.0000
  H   H5        1.0  0.12148971621054018  0.3052310341465514  0.5492311909143837  1.0000
  H   H6        1.0  0.3785156575621684  0.19476781448462796  0.0492298804742006  1.0000
  H   H7        1.0  0.8785097401994975  0.6947688373210499  0.4507675317133888  1.0000
  H   H8        1.0  0.6214858070547676  0.8052313382969558  0.9507700736530964  1.0000
  H   H9        1.0  0.2692618726350276  0.5200414905832532  0.3613235933569213  1.0000
  H   H10       1.0  0.23073590229775226  0.9799580850085051  0.8613206191487776  1.0000
  H   H11       1.0  0.7307357693353751  0.4799598157114674  0.6386775922674771  1.0000
  H   H12       1.0  0.7692637478633697  0.020042502600439608  0.1386781034789593  1.0000
  H   H13       1.0  0.3229857388377225  0.5757527493683412  0.2055162319145438  1.0000
  H   H14       1.0  0.17701267927478884  0.9242461282009276  0.7055156994852183  1.0000
  H   H15       1.0  0.6770093136779209  0.42424712718826657  0.7944849537091656  1.0000
  H   H16       1.0  0.8229913748023066  0.07575445431868387  0.2944854861415038  1.0000
  H   H17       1.0  0.6251421165645752  0.6440191880550686  0.213577717279307  1.0000
  H   H18       1.0  0.8748575710088744  0.8559795791033906  0.7135779568615206  1.0000
  H   H19       1.0  0.37485714610247095  0.355979967271054  0.7864228525965942  1.0000
  H   H20       1.0  0.12514188540654914  0.14402029236412522  0.2864219972649806  1.0000
  H   H21       1.0  0.7579675080887399  0.6005305665825491  0.9445664752146214  1.0000
  H   H22       1.0  0.7420323887228405  0.8994696047689886  0.4445643961995529  1.0000
  H   H23       1.0  0.24202955262570922  0.39946859128816936  0.0554340946605194  1.0000
  H   H24       1.0  0.2579692696451801  0.1005302641539387  0.5554355579277157  1.0000
  C   C1        1.0  0.9358739746782161  0.40489985810219764  0.33399749913401416  1.0000
  C   C2        1.0  0.5641226560465212  0.09510172325398258  0.8339932882144652  1.0000
  C   C3        1.0  0.06412787744088894  0.5951007269620804  0.666002454993219  1.0000
  C   C4        1.0  0.43587699411730096  0.9048988643549267  0.1660060501626361  1.0000
  C   C5        1.0  0.784271735133494  0.3201843339395155  0.3627788156543659  1.0000
  C   C6        1.0  0.7157115485250642  0.17981582658447343  0.8627740695707402  1.0000
  C   C7        1.0  0.2157257130804311  0.6798162562139396  0.6372211384713395  1.0000
  C   C8        1.0  0.2842857059350764  0.8201840474276739  0.13722526880563632  1.0000
  C   C9        1.0  0.850515853705339  0.28388763381753535  0.4400449212933424  1.0000
  C   C10       1.0  0.6494756815100969  0.2161160895319938  0.9400431977980332  1.0000
  C   C11       1.0  0.14948599841376617  0.7161129512467426  0.5599550328338835  1.0000
  C   C12       1.0  0.3505197585104228  0.7838852193072727  0.0599586035749695  1.0000
  C   C13       1.0  0.06669582580377663  0.3329904711882606  0.4889757824077634  1.0000
  C   C14       1.0  0.4333003826150446  0.16700905053171064  0.9889736533821819  1.0000
  C   C15       1.0  0.9333036306089537  0.667009400279298  0.5110235559693734  1.0000
  C   C16       1.0  0.5666990737976931  0.832990820935848  0.011025684994955  1.0000
  C   C17       1.0  0.2168163045572697  0.4179362281763872  0.460509113267868  1.0000
  C   C18       1.0  0.2831778400135292  0.08206473214620051  0.9605069047417132  1.0000
  C   C19       1.0  0.7831835393576371  0.5820650755738657  0.5394902251091978  1.0000
  C   C20       1.0  0.7168194144466113  0.9179351418659464  0.0394924336346634  1.0000
  C   C21       1.0  0.1511031083115384  0.45398087058948994  0.3827528713539152  1.0000
  C   C22       1.0  0.34888556361953954  0.046018672851936095  0.8827488712998174  1.0000
  C   C23       1.0  0.8488943399077797  0.5460197195638798  0.6172483142705191  1.0000
  C   C24       1.0  0.6511116908379081  0.9539812011602467  0.1172498513271947  1.0000
  C   C25       1.0  0.8695688003600849  0.4414838916217008  0.2505862147709621  1.0000
  C   C26       1.0  0.6304259371006609  0.05851340394845291  0.7505845231339805  1.0000
  C   C27       1.0  0.13043305175902026  0.5585166934425774  0.7494137393562639  1.0000
  C   C28       1.0  0.3695735193147698  0.9414864675190628  0.24941543099252067  1.0000
  C   C29       1.0  0.70020450434059  0.19051835847581342  0.4679106201904375  1.0000
  C   C30       1.0  0.7997929121042588  0.309481772837657  0.9679077424238756  1.0000
  C   C31       1.0  0.29979475832375607  0.8094807968503516  0.5320893339360994  1.0000
  C   C32       1.0  0.2002067380595562  0.6905188147712522  0.0320915959532257  1.0000
  N   N1        1.0  0.4324622107929414  0.46215396347414395  0.5141532661547927  1.0000
  N   N2        1.0  0.0675408474615722  0.037845608495075594  0.014152401340460597  1.0000
  N   N3        1.0  0.5675372456251823  0.5378459079933365  0.4858473037210729  1.0000
  N   N4        1.0  0.9324586089511584  0.962154262972483  0.9858469370366764  1.0000
  O   O1        1.0  0.6764292291400978  0.3960194609933012  0.20528485798610768  1.0000
  O   O2        1.0  0.8235737254913573  0.10397711426517729  0.7052826711190079  1.0000
  O   O3        1.0  0.32357482493160467  0.6039811215263884  0.7947150961418786  1.0000
  O   O4        1.0  0.17642573092137337  0.8960227572023812  0.294716667258129  1.0000
  O   O5        1.0  0.007330361031826318  0.5197911543920101  0.22435005663690794  1.0000
  O   O6        1.0  0.49266802832872975  0.9802070045381799  0.7243484949139827  1.0000
  O   O7        1.0  0.9926714910872787  0.480209430672268  0.7756498974903252  1.0000
  O   O8        1.0  0.5073334362828135  0.019792148243482202  0.2756502277145856  1.0000
  O   O9        1.0  0.47925919242635456  0.1551832282586361  0.42632222101883593  1.0000
  O   O10       1.0  0.020738862782444342  0.34481701536744686  0.926319140263125  1.0000
  O   O11       1.0  0.5207378682853943  0.8448159296121176  0.5736777331069405  1.0000
  O   O12       1.0  0.9792605936356863  0.6551828561000337  0.0736814296127406  1.0000
  O   O13       1.0  0.8038126149515888  0.15113034705117198  0.5312805075172022  1.0000
  O   O14       1.0  0.6961893964767469  0.34886839970828026  0.03127841126983099  1.0000
  O   O15       1.0  0.19618684146384172  0.848869524416344  0.4687194466092989  1.0000
  O   O16       1.0  0.3038122618912737  0.6511314692146472  0.9687215428574376  1.0000
  O   O17       1.0  0.5006251540146067  0.6054234828928885  0.1755551564733295  1.0000
  O   O18       1.0  0.9993738129349269  0.8945738570256054  0.6755542396008138  1.0000
  O   O19       1.0  0.49937210044823377  0.39457639111921583  0.8244447976524114  1.0000
  O   O20       1.0  0.0006300473856839993  0.10542600935274041  0.3244457145272149  1.0000
  O   O21       1.0  0.7518593963940887  0.5305709476674851  0.9443762165437732  1.0000
  O   O22       1.0  0.7481427007004556  0.9694292211647381  0.4443735060142728  1.0000
  O   O23       1.0  0.2481442701862235  0.4694282025693469  0.05562620058174869  1.0000
  O   O24       1.0  0.25186336157005235  0.030570642669054796  0.555625832365152  1.0000
