data_image0
_chemical_formula_structural       ZnH24C26N12O6
_chemical_formula_sum              "Zn1 H24 C26 N12 O6"
_cell_length_a       7.239768185547555
_cell_length_b       9.056541451188767
_cell_length_c       11.592612297927253
_cell_angle_alpha    77.84976731809184
_cell_angle_beta     77.623751980006
_cell_angle_gamma    84.48106984588354

_space_group_name_H-M_alt    "P 1"
_space_group_IT_number       1

loop_
  _space_group_symop_operation_xyz
  'x, y, z'

loop_
  _atom_site_type_symbol
  _atom_site_label
  _atom_site_symmetry_multiplicity
  _atom_site_fract_x
  _atom_site_fract_y
  _atom_site_fract_z
  _atom_site_occupancy
  Zn  Zn1       1.0  2.4906222578031885e-06  0.500002238165969  1.1241392169525932e-07  1.0000
  H   H1        1.0  0.4691787669851236  0.12878273370882445  0.14631857495685807  1.0000
  H   H2        1.0  0.5308289203592336  0.8712144187188715  0.8536796911816963  1.0000
  H   H3        1.0  0.6853348571559293  0.029885244815226  0.09282452125812307  1.0000
  H   H4        1.0  0.31466610621223606  0.970107415955539  0.9071788931861773  1.0000
  H   H5        1.0  0.48094794734931406  0.360349744068344  0.4912039661209206  1.0000
  H   H6        1.0  0.5190357081274326  0.6396487138474568  0.5088001581471033  1.0000
  H   H7        1.0  0.44126644248451197  0.43335233550505586  0.6949520694752351  1.0000
  H   H8        1.0  0.5587234917424623  0.5666369986252918  0.3050569290551265  1.0000
  H   H9        1.0  0.5927333938481213  0.26682740562842605  0.8508642148684442  1.0000
  H   H10       1.0  0.4072716842233034  0.7331652514369013  0.14913429046402624  1.0000
  H   H11       1.0  0.8216645501256463  0.9708168227465919  0.6232733030217119  1.0000
  H   H12       1.0  0.17834277848429986  0.029185996902171493  0.3767223766546408  1.0000
  H   H13       1.0  0.9095470183589355  0.7283665931379062  0.7722251695131559  1.0000
  H   H14       1.0  0.09045036895354737  0.27164078145364096  0.22777811823682007  1.0000
  H   H15       1.0  0.9063055097516821  0.73889013588515  0.558204155500938  1.0000
  H   H16       1.0  0.0936917903293661  0.261118375785415  0.44179809895149447  1.0000
  H   H17       1.0  0.0806400295599943  0.2619998231022437  0.6155445310917924  1.0000
  H   H18       1.0  0.91934894150274  0.7380053695542942  0.38445860135799137  1.0000
  H   H19       1.0  0.0689971986002362  0.27156161744246526  0.8261768760597404  1.0000
  H   H20       1.0  0.9309931710440082  0.7284424510352565  0.1738236466304883  1.0000
  H   H21       1.0  0.2066051006495542  0.24696872267341524  0.023966160785718685  1.0000
  H   H22       1.0  0.7934065589329721  0.7530329259008326  0.9760299431188101  1.0000
  H   H23       1.0  0.37717960815621143  0.35811955078335694  0.9961749549879924  1.0000
  H   H24       1.0  0.6228306528448043  0.6418832219697138  0.003823758676098522  1.0000
  C   C1        1.0  0.7061816557727809  0.27358805472393755  0.061216621398735065  1.0000
  C   C2        1.0  0.2938127449618051  0.7264137964703963  0.9387724586897973  1.0000
  C   C3        1.0  0.6232916643404565  0.1246978417595699  0.1363677950781792  1.0000
  C   C4        1.0  0.37671588415732055  0.875300459863169  0.8636277177458493  1.0000
  C   C5        1.0  0.6845989195221023  0.11048690175610427  0.4279581715595525  1.0000
  C   C6        1.0  0.3153999928381025  0.8895137359576497  0.5720373528166078  1.0000
  C   C7        1.0  0.6558608987421978  0.16002086262079726  0.5424585747779105  1.0000
  C   C8        1.0  0.344139890163113  0.8399740723080099  0.4575427730713101  1.0000
  C   C9        1.0  0.5469037973770624  0.29230481939735153  0.5624960176571747  1.0000
  C   C10       1.0  0.45309004766422584  0.7076901419005637  0.4375106453501159  1.0000
  C   C11       1.0  0.5242961118032169  0.331909233569796  0.6743174314516053  1.0000
  C   C12       1.0  0.4757007884768427  0.6680834187904026  0.32569261212150735  1.0000
  C   C13       1.0  0.6080884554068859  0.237350259912354  0.7628660870096267  1.0000
  C   C14       1.0  0.39191114499605817  0.7626424000742275  0.237139250474776  1.0000
  C   C15       1.0  0.7352362884698632  0.07342620784211817  0.6371194613477866  1.0000
  C   C16       1.0  0.26476570493669266  0.9265721148759026  0.3628803036026936  1.0000
  C   C17       1.0  0.9442366130263052  0.6266378425746736  0.733998653442846  1.0000
  C   C18       1.0  0.05575654035372682  0.37336844710737427  0.26600369664853213  1.0000
  C   C19       1.0  0.9447289895870696  0.6318324123434705  0.6131854382155664  1.0000
  C   C20       1.0  0.05526411217780951  0.3681738894545958  0.3868151918588296  1.0000
  C   C21       1.0  0.9963901231035732  0.5004213900368768  0.5644383777374954  1.0000
  C   C22       1.0  0.003600191306993793  0.49958604121382433  0.43556592512807396  1.0000
  C   C23       1.0  0.0410074547290407  0.3693095390263537  0.6443243126544899  1.0000
  C   C24       1.0  0.9589813160632585  0.6306979338462283  0.35567589319173  1.0000
  C   C25       1.0  0.03453898453860659  0.37368589613296177  0.7643715335642084  1.0000
  C   C26       1.0  0.9654499349089745  0.6263193086395943  0.23562987886859324  1.0000
  N   N1        1.0  0.6021043844356484  0.1789012546957096  0.3359000880045783  1.0000
  N   N2        1.0  0.39789597450269537  0.821101597380171  0.6641000468213532  1.0000
  N   N3        1.0  0.6687090161375479  0.09247323497650939  0.2548677192307665  1.0000
  N   N4        1.0  0.3312999789383754  0.907527281008356  0.7451324040430192  1.0000
  N   N5        1.0  0.7860994873654548  0.9780359836752835  0.2909270998140485  1.0000
  N   N6        1.0  0.21391089648327005  0.021964527035756003  0.709071960428126  1.0000
  N   N7        1.0  0.7971955405240577  0.9873416416591425  0.4011970415596905  1.0000
  N   N8        1.0  0.20280765738375084  0.012660068848084896  0.5988011404920499  1.0000
  N   N9        1.0  0.7112401560942346  0.1092338710077954  0.7457899517133268  1.0000
  N   N10       1.0  0.2887603355005126  0.8907656001210711  0.2542089829627443  1.0000
  N   N11       1.0  0.9887483590179116  0.5001559174108081  0.8097930621337068  1.0000
  N   N12       1.0  0.011244804170814896  0.49984925336625  0.19020774122972736  1.0000
  O   O1        1.0  0.8758070206502494  0.29213271955033804  0.06759407326298118  1.0000
  O   O2        1.0  0.12420906694497089  0.7078655019653938  0.9324019414393232  1.0000
  O   O3        1.0  0.604111375127374  0.3614648641597213  0.9994352974833162  1.0000
  O   O4        1.0  0.39591385342345825  0.638517503534956  0.0005550450589169081  1.0000
  O   O5        1.0  0.24926852336330535  0.345249735602053  0.9794718257266198  1.0000
  O   O6        1.0  0.7507333115792747  0.6547519741209838  0.020528279365230145  1.0000
