data_image0
_chemical_formula_structural       Hg2H10C12Br4N4
_chemical_formula_sum              "Hg2 H10 C12 Br4 N4"
_cell_length_a       4.174274953399339
_cell_length_b       9.216849085638023
_cell_length_c       11.57509644527415
_cell_angle_alpha    88.08466737299523
_cell_angle_beta     88.91592372926056
_cell_angle_gamma    86.0556545084547

_space_group_name_H-M_alt    "P 1"
_space_group_IT_number       1

loop_
  _space_group_symop_operation_xyz
  'x, y, z'

loop_
  _atom_site_type_symbol
  _atom_site_label
  _atom_site_symmetry_multiplicity
  _atom_site_fract_x
  _atom_site_fract_y
  _atom_site_fract_z
  _atom_site_occupancy
  Hg  Hg1       1.0  0.10483927029689973  0.13516888921738968  0.2201854098620259  1.0000
  Hg  Hg2       1.0  0.8951571705137056  0.8648300173778976  0.779813531415833  1.0000
  H   H1        1.0  0.8533922087078167  0.9106474024521137  0.4078878359488415  1.0000
  H   H2        1.0  0.1466249768610127  0.08935699930361811  0.5921133272582111  1.0000
  H   H3        1.0  0.9061814002154878  0.6490855358851563  0.4676463949790346  1.0000
  H   H4        1.0  0.09383769544786699  0.3509221480065961  0.532356372809268  1.0000
  H   H5        1.0  0.2394046641138488  0.472822668934022  0.34058260003018154  1.0000
  H   H6        1.0  0.760598945795266  0.5271774077710702  0.6594248764638451  1.0000
  H   H7        1.0  0.4933559372263048  0.5718137522333822  0.1609874087147176  1.0000
  H   H8        1.0  0.5066362910288404  0.42818191102146125  0.8390151319575737  1.0000
  H   H9        1.0  0.5983359367824904  0.7681820233558908  0.031065305739161907  1.0000
  H   H10       1.0  0.40165192398119837  0.23181032569561213  0.9689321984232535  1.0000
  C   C1        1.0  0.9941323914141195  0.8321302793415838  0.3555318973769559  1.0000
  C   C2        1.0  0.005870750336072201  0.167871916834045  0.6444686036159482  1.0000
  C   C3        1.0  0.026152413271226697  0.6844872622831063  0.3883471316379072  1.0000
  C   C4        1.0  0.9738671367329278  0.31551712902219725  0.6116522819551804  1.0000
  C   C5        1.0  0.20728970143945702  0.5888325223278842  0.3185740211972075  1.0000
  C   C6        1.0  0.7927206420719203  0.41116969210050774  0.6814272760868222  1.0000
  C   C7        1.0  0.35059181003349243  0.6437304652644258  0.2180048659288829  1.0000
  C   C8        1.0  0.6494169830870931  0.3562662979533755  0.781995757141992  1.0000
  C   C9        1.0  0.3081051020324281  0.7924255676200361  0.1895555997996965  1.0000
  C   C10       1.0  0.6918942505159081  0.2075700784561221  0.8104434192115663  1.0000
  C   C11       1.0  0.45642396549224884  0.8471908996325298  0.08321763365368182  1.0000
  C   C12       1.0  0.5435669960530306  0.1528123518401543  0.9167812189350428  1.0000
  Br  Br1       1.0  0.5507176167108128  0.18211468618191162  0.3808627537168832  1.0000
  Br  Br2       1.0  0.4492673182667419  0.8178961602368773  0.6191341828353458  1.0000
  Br  Br3       1.0  0.9354755805459479  0.3560477400672113  0.0930831129944849  1.0000
  Br  Br4       1.0  0.06449343006044471  0.6439423888735831  0.9069129102295647  1.0000
  N   N1        1.0  0.1298668588045402  0.8843180308403261  0.2586226686832234  1.0000
  N   N2        1.0  0.8701487763734904  0.1156809197048076  0.7413778203106745  1.0000
  N   N3        1.0  0.42494239957532914  0.9834827601918975  0.051988164085862786  1.0000
  N   N4        1.0  0.5750407168240984  0.0165096026741551  0.9480119757140529  1.0000
