data_image0
_chemical_formula_structural       Al6H80C105O34
_chemical_formula_sum              "Al6 H80 C105 O34"
_cell_length_a       13.133458762756996
_cell_length_b       13.389081304974354
_cell_length_c       27.50008749896196
_cell_angle_alpha    90.95444436608877
_cell_angle_beta     90.38631433422495
_cell_angle_gamma    59.96710518989266

_space_group_name_H-M_alt    "P 1"
_space_group_IT_number       1

loop_
  _space_group_symop_operation_xyz
  'x, y, z'

loop_
  _atom_site_type_symbol
  _atom_site_label
  _atom_site_symmetry_multiplicity
  _atom_site_fract_x
  _atom_site_fract_y
  _atom_site_fract_z
  _atom_site_occupancy
  Al  Al1       1.0  0.8494102284910878  0.5634584959201872  0.49786256033630133  1.0000
  Al  Al2       1.0  0.5957870392726435  0.5833143451793459  0.4973700877529622  1.0000
  Al  Al3       1.0  0.6037703428609261  0.8026903777620473  0.499034297979513  1.0000
  Al  Al4       1.0  0.8308510575202136  0.08390772722220417  0.9849022211094932  1.0000
  Al  Al5       1.0  0.08174956393893497  0.07183621306234758  0.9817494956527567  1.0000
  Al  Al6       1.0  0.08107503317823042  0.8489870968218082  0.9848781372765101  1.0000
  H   H1        1.0  0.4127615428494877  0.9463098741706798  0.19202270593103066  1.0000
  H   H2        1.0  0.9394635031504209  0.6636345802394102  0.19257112377582788  1.0000
  H   H3        1.0  0.6871369172848744  0.3249265475485855  0.1880368667001449  1.0000
  H   H4        1.0  0.5415245099956324  0.7966988890171433  0.27131720598629977  1.0000
  H   H5        1.0  0.780357005928359  0.7019953752807591  0.2714510842122948  1.0000
  H   H6        1.0  0.6582379791008606  0.47721017687623385  0.26967005349476375  1.0000
  H   H7        1.0  0.5163267602493988  0.797502266995721  0.18720370035909178  1.0000
  H   H8        1.0  0.7846521868535277  0.7398049899566317  0.18901164273343338  1.0000
  H   H9        1.0  0.700794678649963  0.44968990275377496  0.18706730746462336  1.0000
  H   H10       1.0  0.2996505979948482  0.6953653237839457  0.1968730866399966  1.0000
  H   H11       1.0  0.7465370990321177  0.030704201621894387  0.21239893243688357  1.0000
  H   H12       1.0  0.025518828944740342  0.291957360172148  0.21084682592162804  1.0000
  H   H13       1.0  0.2966870758735851  0.006541263212547195  0.8635727448071717  1.0000
  H   H14       1.0  0.04257300895486096  0.6857692945410604  0.8622281948952304  1.0000
  H   H15       1.0  0.7182584508084845  0.25133739347955236  0.8596814788226722  1.0000
  H   H16       1.0  0.44025897050200796  0.9340853349909035  0.6241350235892895  1.0000
  H   H17       1.0  0.9513465169822908  0.6180195788264838  0.6237346558091303  1.0000
  H   H18       1.0  0.6183708935461281  0.41456165929566413  0.6238928424284963  1.0000
  H   H19       1.0  0.36644985750000814  0.06323728689263669  0.7904985958423723  1.0000
  H   H20       1.0  0.10132732230897556  0.5636494914898689  0.7867001052068614  1.0000
  H   H21       1.0  0.5862493430376858  0.3128389202682341  0.7871942976732454  1.0000
  H   H22       1.0  0.41420878276952783  0.039573082048505584  0.7027223328099693  1.0000
  H   H23       1.0  0.07010379612847117  0.5404170268001564  0.6991769112047876  1.0000
  H   H24       1.0  0.5507760525682385  0.3698079494999789  0.7007198626078049  1.0000
  H   H25       1.0  0.23687613609479996  0.7189775569382701  0.8555926092342857  1.0000
  H   H26       1.0  0.7324900451433578  0.0211165677199645  0.8637530973062936  1.0000
  H   H27       1.0  0.06561118999209013  0.20467661300178008  0.8495098195811933  1.0000
  H   H28       1.0  0.2649585040291668  0.6120923893735862  0.7770512558044087  1.0000
  H   H29       1.0  0.6155441968784813  0.09996051233730435  0.787944061621502  1.0000
  H   H30       1.0  0.14006567121986543  0.23143165001462043  0.7702677839995359  1.0000
  H   H31       1.0  0.3146935476418947  0.5871142620811225  0.6895212371581039  1.0000
  H   H32       1.0  0.5854217229690448  0.07763662177413978  0.7002753996982847  1.0000
  H   H33       1.0  0.10456753089175662  0.2886592884481374  0.6838898236555477  1.0000
  H   H34       1.0  0.42582881031787434  0.940750262412649  0.2770994167238072  1.0000
  H   H35       1.0  0.9336682148346468  0.643009094139607  0.2767408192739751  1.0000
  H   H36       1.0  0.6536421501270696  0.3480315237255381  0.2723003741092853  1.0000
  H   H37       1.0  0.3830238685449316  0.6449246573383574  0.6161711223947179  1.0000
  H   H38       1.0  0.6432371012072552  0.9547380979709243  0.6248493475592409  1.0000
  H   H39       1.0  0.9661667176572238  0.36677947721792487  0.6134438381064838  1.0000
  H   H40       1.0  0.22127702524277754  0.986274665515509  0.29347204660552956  1.0000
  H   H41       1.0  0.019917067117425774  0.7621709924673394  0.3008427816815527  1.0000
  H   H42       1.0  0.832017556844896  0.16310172438185322  0.2913417794632807  1.0000
  H   H43       1.0  0.19866478417157646  0.009628558269163498  0.21013939327526995  1.0000
  H   H44       1.0  0.04676667041279383  0.7750790522339978  0.21861294648761734  1.0000
  H   H45       1.0  0.8646423722338452  0.13053859677789598  0.2083883913267002  1.0000
  H   H46       1.0  0.15035181824227833  0.9074132973536774  0.20916614715850554  1.0000
  H   H47       1.0  0.9637150389744988  0.9269171031988035  0.22473129971427847  1.0000
  H   H48       1.0  0.003996654868473082  0.1184602199586493  0.21686149046331585  1.0000
  H   H49       1.0  0.49082359416238575  0.6343701569040403  0.26613772593778146  1.0000
  H   H50       1.0  0.6477213441954035  0.9239391240543495  0.2746784362132928  1.0000
  H   H51       1.0  0.8547036016982189  0.47115331709007774  0.276201741160186  1.0000
  H   H52       1.0  0.34545730289459453  0.6659233413970894  0.2791383191709471  1.0000
  H   H53       1.0  0.7079639423754857  0.010773013102045998  0.29345087058070607  1.0000
  H   H54       1.0  0.9831104389906854  0.34157620483770756  0.2925033805784665  1.0000
  H   H55       1.0  0.08952084561117613  0.9258846503227924  0.2998758911783241  1.0000
  H   H56       1.0  0.9188454689904827  0.9340859375803631  0.3439720049056091  1.0000
  H   H57       1.0  0.987409582847995  0.15626179629950337  0.3366499507847961  1.0000
  H   H58       1.0  0.5413560426897704  0.5470575339512462  0.11639216644278598  1.0000
  H   H59       1.0  0.38689913022732  0.6416527130119503  0.11643549409339467  1.0000
  H   H60       1.0  0.5155766875487515  0.4132032557223935  0.1709948859811092  1.0000
  H   H61       1.0  0.36222017389904704  0.5067745144708267  0.1708728685201777  1.0000
  H   H62       1.0  0.3564013341323573  0.4775471681445678  0.08008623626216858  1.0000
  H   H63       1.0  0.42214720112718135  0.3428261085039779  0.10973485965205038  1.0000
  H   H64       1.0  0.5116677834840218  0.3865169160008576  0.07920168289312099  1.0000
  H   H65       1.0  0.5062633414633951  0.05530653351674887  0.14928290524531457  1.0000
  H   H66       1.0  0.594774711159509  0.1188311970711879  0.1617832818796714  1.0000
  H   H67       1.0  0.4533731091710819  0.0731163130876382  0.2380932751100957  1.0000
  H   H68       1.0  0.5366409512051221  0.14101909309187724  0.2500594564944194  1.0000
  H   H69       1.0  0.40734636629390764  0.30350099330492236  0.19506908859470676  1.0000
  H   H70       1.0  0.3217062425689647  0.2871633388818963  0.24044728385002395  1.0000
  H   H71       1.0  0.3253934458986548  0.23499531921573436  0.180250141761924  1.0000
  H   H72       1.0  0.9304992200389464  0.5349292258147144  0.1381344344404312  1.0000
  H   H73       1.0  0.008102251520369957  0.3822505623929613  0.1322115770878085  1.0000
  H   H74       1.0  0.051005151172695745  0.5096574493805333  0.21633608193381085  1.0000
  H   H75       1.0  0.13962113361240822  0.3638148331118102  0.19989435470839814  1.0000
  H   H76       1.0  0.1928192257828555  0.41939056952430315  0.12060453402573758  1.0000
  H   H77       1.0  0.22885116534167335  0.4794175705672075  0.1710765625524004  1.0000
  H   H78       1.0  0.10155468019154766  0.567391351470178  0.136131131116791  1.0000
  H   H79       1.0  0.043346625670786024  0.4825079061466793  0.46935872904335685  1.0000
  H   H80       1.0  0.638401143715896  0.17739698615739033  0.015828985972674993  1.0000
  C   C1        1.0  0.7758902576614872  0.768040176538477  0.43195460611238445  1.0000
  C   C2        1.0  0.7631278948317188  0.44203802566784123  0.4293764446541103  1.0000
  C   C3        1.0  0.46733522500512953  0.7618199773827495  0.4285631792094833  1.0000
  C   C4        1.0  0.3727561642396538  0.710674778847469  0.2059949171769873  1.0000
  C   C5        1.0  0.7434464709115074  0.9504947181929422  0.21736428639220404  1.0000
  C   C6        1.0  0.930514208498863  0.3507730854882142  0.21632800547315864  1.0000
  C   C7        1.0  0.39746401355124295  0.6980195123429452  0.2611536702701471  1.0000
  C   C8        1.0  0.7248430478413185  0.9347635462100355  0.2715782063185728  1.0000
  C   C9        1.0  0.9023447433802616  0.3771082806636554  0.2708165433588405  1.0000
  C   C10       1.0  0.30790022202432976  0.8539500719829786  0.13950568823509  1.0000
  C   C11       1.0  0.8813937551309651  0.8580222454403167  0.14894636089744037  1.0000
  C   C12       1.0  0.8872578724872612  0.26678009987325163  0.14411592254886327  1.0000
  C   C13       1.0  0.3947730303368289  0.7999582429187271  0.3372835474048301  1.0000
  C   C14       1.0  0.8157359593787062  0.8140033497014726  0.343331409857896  1.0000
  C   C15       1.0  0.8024504691752339  0.35396443708821573  0.34035236416080744  1.0000
  C   C16       1.0  0.4193902596919869  0.7870477109595696  0.3803319231472385  1.0000
  C   C17       1.0  0.8007040671900967  0.8003224605292941  0.38570778010512186  1.0000
  C   C18       1.0  0.785894587735527  0.38304002623332417  0.38298746654473337  1.0000
  C   C19       1.0  0.9136750803417613  0.18877797365104237  0.9105802990804577  1.0000
  C   C20       1.0  0.21831821261217516  0.8887444310539292  0.9150753965049103  1.0000
  C   C21       1.0  0.9125756354705887  0.8775534308166822  0.918004794013882  1.0000
  C   C22       1.0  0.9187631433153952  0.2067145799584154  0.0511902794184564  1.0000
  C   C23       1.0  0.22294659588770582  0.8957421546738117  0.05002100898315829  1.0000
  C   C24       1.0  0.9165747214282619  0.891234319872076  0.05742080649316249  1.0000
  C   C25       1.0  0.4138896086825597  0.8786188603697692  0.6420914096211519  1.0000
  C   C26       1.0  0.8931592079236805  0.6970636406739812  0.6439151454901975  1.0000
  C   C27       1.0  0.7033908416305792  0.38740084757553456  0.640872303358762  1.0000
  C   C28       1.0  0.38494590904798553  0.8947418647427694  0.691656307259116  1.0000
  C   C29       1.0  0.9137095954704078  0.7094853280924197  0.6930347377057017  1.0000
  C   C30       1.0  0.7236451065187948  0.3498866752427788  0.6890753005823598  1.0000
  C   C31       1.0  0.3284612325822994  0.9227652929461877  0.792833584589033  1.0000
  C   C32       1.0  0.9498672396107394  0.736457297157308  0.7935469627241999  1.0000
  C   C33       1.0  0.7644342090939206  0.2842094969896535  0.7884921406181461  1.0000
  C   C34       1.0  0.7711031361363541  0.7618508646272768  0.569506846278216  1.0000
  C   C35       1.0  0.7634316637507298  0.44799292213914993  0.5657452268079695  1.0000
  C   C36       1.0  0.45926143682989834  0.7651366901950849  0.5646385083912477  1.0000
  C   C37       1.0  0.36198510498176995  0.9964108986293705  0.7688740805313187  1.0000
  C   C38       1.0  0.02791192381442902  0.6327616379870235  0.7671148669389608  1.0000
  C   C39       1.0  0.6546069867854807  0.31438571861016124  0.7654179853793437  1.0000
  C   C40       1.0  0.3884822421795776  0.9832892808962155  0.7204687410456216  1.0000
  C   C41       1.0  0.010749718349941904  0.6198497338467915  0.7189617200543239  1.0000
  C   C42       1.0  0.6350980735218029  0.3457285757837737  0.7178204776632738  1.0000
  C   C43       1.0  0.297223404466891  0.937024383228191  0.8421559112072143  1.0000
  C   C44       1.0  0.9671480978153612  0.7524783173900783  0.8427604639058187  1.0000
  C   C45       1.0  0.7853906416439002  0.25401284802022417  0.8375358535737049  1.0000
  C   C46       1.0  0.2643229565370505  0.863915831882977  0.8643846447158976  1.0000
  C   C47       1.0  0.8888916331380943  0.8546929104613948  0.8673333852793448  1.0000
  C   C48       1.0  0.8929936956053408  0.22664169565999961  0.859130091501427  1.0000
  C   C49       1.0  0.3817279306352787  0.7148380189524912  0.6375629238765227  1.0000
  C   C50       1.0  0.7184286381563041  0.8878734602000262  0.6443787194686692  1.0000
  C   C51       1.0  0.9005760876753186  0.3602323992934726  0.6351137696418829  1.0000
  C   C52       1.0  0.3507130997203518  0.7288744894650775  0.6869377027550738  1.0000
  C   C53       1.0  0.7361912847428017  0.904314935063624  0.6934933705240595  1.0000
  C   C54       1.0  0.9247688632516429  0.32154506355205825  0.6830733283179524  1.0000
  C   C55       1.0  0.3533023092955219  0.8190355574771784  0.7146640576021209  1.0000
  C   C56       1.0  0.8340941232512766  0.8137270144116396  0.7184642657386886  1.0000
  C   C57       1.0  0.8348767154181045  0.318106606680267  0.7108757001118986  1.0000
  C   C58       1.0  0.31797352819106106  0.6547484203192153  0.7109971467355221  1.0000
  C   C59       1.0  0.6584270461387262  0.008193517150758103  0.7198862404694637  1.0000
  C   C60       1.0  0.03580387171806622  0.28810707902103155  0.7057628747908709  1.0000
  C   C61       1.0  0.2905624399142683  0.6684886748613649  0.7593400520783291  1.0000
  C   C62       1.0  0.6751038097021225  0.02070110458928549  0.7681233988793109  1.0000
  C   C63       1.0  0.05525535808294533  0.2568029384766034  0.7533924580164211  1.0000
  C   C64       1.0  0.2932519555531814  0.757550581970342  0.7881136803683473  1.0000
  C   C65       1.0  0.7717814679090582  0.9308554364479489  0.7941307713107475  1.0000
  C   C66       1.0  0.9654698819214924  0.256043432794911  0.7825763002836152  1.0000
  C   C67       1.0  0.4495538765856253  0.8558047398938982  0.2613327340949638  1.0000
  C   C68       1.0  0.8527019571127992  0.7179926825043664  0.26344604733359483  1.0000
  C   C69       1.0  0.707304568903588  0.3849396663093501  0.2602095779367346  1.0000
  C   C70       1.0  0.32524579734588605  0.8329728942892911  0.7650819690923141  1.0000
  C   C71       1.0  0.8518696541069205  0.8269707321461506  0.768606796360565  1.0000
  C   C72       1.0  0.8551004437710288  0.28564909753509926  0.7604623515201466  1.0000
  C   C73       1.0  0.26371677547955835  0.7741289537119727  0.8376628948286395  1.0000
  C   C74       1.0  0.7913699298388506  0.9425581393840332  0.8434402918612491  1.0000
  C   C75       1.0  0.9822125229900607  0.2275983133074887  0.8319526178663493  1.0000
  C   C76       1.0  0.4135081236813677  0.7887754707385494  0.6153218243749734  1.0000
  C   C77       1.0  0.795634573484385  0.784833725206688  0.6200383145927261  1.0000
  C   C78       1.0  0.7903067911958955  0.39441516477243244  0.6145097808687863  1.0000
  C   C79       1.0  0.24112403555061254  0.9041932403553541  0.275675584544615  1.0000
  C   C80       1.0  0.9433438507544023  0.8383923108590776  0.2853857242350983  1.0000
  C   C81       1.0  0.8881316998229919  0.19677869614227464  0.2783063300880356  1.0000
  C   C82       1.0  0.22315232037561852  0.9211314107596703  0.21996809651739105  1.0000
  C   C83       1.0  0.9617052509888285  0.8470474277425875  0.2307877067578872  1.0000
  C   C84       1.0  0.9094206398599738  0.17508159841920445  0.2231943835110286  1.0000
  C   C85       1.0  0.2773168967023595  0.8715128594969951  0.09712741848765918  1.0000
  C   C86       1.0  0.898743716099979  0.8660656749518691  0.10622219825974347  1.0000
  C   C87       1.0  0.902593614857949  0.24817576361374444  0.10062279564894538  1.0000
  C   C88       1.0  0.3714143142745172  0.8135588471540272  0.28533787291650003  1.0000
  C   C89       1.0  0.8325657261504915  0.8268898947221428  0.2923239954543178  1.0000
  C   C90       1.0  0.8244361587082024  0.3287001825403165  0.28882535345446303  1.0000
  C   C91       1.0  0.43486264748743503  0.8610393175826018  0.20543222921671858  1.0000
  C   C92       1.0  0.8598341350462492  0.735179765838559  0.20857603340519396  1.0000
  C   C93       1.0  0.7319554006449422  0.3670203692716996  0.20509806667595848  1.0000
  C   C94       1.0  0.3356325862672164  0.8364306714968848  0.19099624039317575  1.0000
  C   C95       1.0  0.8621775049698145  0.8477027351457804  0.20002115009452123  1.0000
  C   C96       1.0  0.8652089435061254  0.2896442603724552  0.19576467919623033  1.0000
  C   C97       1.0  0.4607070136825371  0.5764590775235944  0.1378946358019277  1.0000
  C   C98       1.0  0.4421855792830128  0.4754972382618871  0.14860763044212888  1.0000
  C   C99       1.0  0.4325230382395304  0.41743075019364523  0.10188350311404548  1.0000
  C   C100      1.0  0.5592802827731232  0.06684334451002627  0.17759716059226346  1.0000
  C   C101      1.0  0.48341591156997765  0.1287390083242669  0.2220623038002856  1.0000
  C   C102      1.0  0.37871891908267924  0.2449693777339163  0.20882400478205193  1.0000
  C   C103      1.0  0.9787815176178469  0.4545305225576824  0.15857252195452526  1.0000
  C   C104      1.0  0.08351828420100571  0.4500524386405471  0.18480894063498  1.0000
  C   C105      1.0  0.15546175944713522  0.48072272796760257  0.1513178182083408  1.0000
  O   O1        1.0  0.8368644540781387  0.4705192260364654  0.4433657417113607  1.0000
  O   O2        1.0  0.48753553794207255  0.6662712940960699  0.4468903778386704  1.0000
  O   O3        1.0  0.6800164058996857  0.8431128245107542  0.45323622756465193  1.0000
  O   O4        1.0  0.8410991709412132  0.9881939386328323  0.041094060579943886  1.0000
  O   O5        1.0  0.01320948270949174  0.18809429079542636  0.028950467734510696  1.0000
  O   O6        1.0  0.19965496335768065  0.8207799987427504  0.03156564212502389  1.0000
  O   O7        1.0  0.847136222248217  0.6678143764576986  0.4465296589219817  1.0000
  O   O8        1.0  0.6670763351473427  0.4649749966149485  0.45128820313785667  1.0000
  O   O9        1.0  0.49166829414093643  0.8341078440708428  0.44896443265583486  1.0000
  O   O10       1.0  0.8398394355244744  0.46570271107977834  0.5463779774119928  1.0000
  O   O11       1.0  0.47686889656407766  0.6715886353542116  0.5436586160406094  1.0000
  O   O12       1.0  0.6752256556501524  0.8396251433036637  0.5493774078256662  1.0000
  O   O13       1.0  0.8430602179595256  0.6659125872380895  0.5502240406857125  1.0000
  O   O14       1.0  0.6617019895432179  0.47722831542687044  0.5472947848639719  1.0000
  O   O15       1.0  0.4851482960936266  0.8363254128192918  0.5456221575948987  1.0000
  O   O16       1.0  0.6813022225575407  0.650895073865314  0.4975337736847862  1.0000
  O   O17       1.0  0.8380515441697297  0.9714922745209972  0.9378569489069406  1.0000
  O   O18       1.0  0.009148923129146174  0.17382875708639736  0.9310861571725297  1.0000
  O   O19       1.0  0.19390325028615504  0.8175489008500064  0.9350011499542603  1.0000
  O   O20       1.0  0.838451846536742  0.17008771689157234  0.9303782255430945  1.0000
  O   O21       1.0  0.1993625368569455  0.9838249964194005  0.9350367641670232  1.0000
  O   O22       1.0  0.01069727859933086  0.8024701477216989  0.9377225670324804  1.0000
  O   O23       1.0  0.00010547434397519976  0.0006049012833386983  0.9844227035642701  1.0000
  O   O24       1.0  0.8407457239841419  0.18731950705205228  0.03421389238557988  1.0000
  O   O25       1.0  0.19676915417716864  0.9921539060039773  0.030996118911936297  1.0000
  O   O26       1.0  0.010010928781191954  0.8141056876355035  0.03509618076007829  1.0000
  O   O27       1.0  0.1707619554391188  0.8623396056600752  0.296079902893787  1.0000
  O   O28       1.0  0.929700417698406  0.9408932584209923  0.3093275437135928  1.0000
  O   O29       1.0  0.0003954179401831083  0.1371437443991042  0.30198054216778286  1.0000
  O   O30       1.0  0.4774610252497597  0.6277992141047617  0.1814280618608564  1.0000
  O   O31       1.0  0.6534817652065569  0.9532658685171282  0.18714843363275685  1.0000
  O   O32       1.0  0.8938234583176126  0.45645961002438157  0.1916556315740365  1.0000
  O   O33       1.0  0.0037987914504214798  0.48282498402070195  0.4989120451286765  1.0000
  O   O34       1.0  0.6761537352421385  0.16087040395802887  0.9843435745018922  1.0000
