data_image0
_chemical_formula_structural       Hg4H40C56S8N16
_chemical_formula_sum              "Hg4 H40 C56 S8 N16"
_cell_length_a       8.006432113160939
_cell_length_b       12.957730911171343
_cell_length_c       14.75378329446019
_cell_angle_alpha    90.00056589206659
_cell_angle_beta     89.99929253762218
_cell_angle_gamma    90.00016257853694

_space_group_name_H-M_alt    "P 1"
_space_group_IT_number       1

loop_
  _space_group_symop_operation_xyz
  'x, y, z'

loop_
  _atom_site_type_symbol
  _atom_site_label
  _atom_site_symmetry_multiplicity
  _atom_site_fract_x
  _atom_site_fract_y
  _atom_site_fract_z
  _atom_site_occupancy
  Hg  Hg1       1.0  0.25000628594666097  0.06037021798223211  0.24999767349539337  1.0000
  Hg  Hg2       1.0  0.2500089657370878  0.4396215254406854  0.7499998863316223  1.0000
  Hg  Hg3       1.0  0.7499943672274371  0.9396215435545944  0.7500051252741926  1.0000
  Hg  Hg4       1.0  0.7499941854717918  0.5603756382635154  0.2500002012840383  1.0000
  H   H1        1.0  0.8917010788139947  0.159488815792507  0.31617355418410403  1.0000
  H   H2        1.0  0.6082999146030588  0.34050840793198495  0.8161758566322419  1.0000
  H   H3        1.0  0.8917060575792914  0.3405040548010947  0.6838319023852649  1.0000
  H   H4        1.0  0.6083091854580333  0.15949476922924793  0.18382811163137805  1.0000
  H   H5        1.0  0.10828458645143257  0.8405106631203125  0.6838272112924884  1.0000
  H   H6        1.0  0.3917069835344619  0.6594933862501122  0.1838303311212215  1.0000
  H   H7        1.0  0.10830333859969701  0.659489250208303  0.31616818519269435  1.0000
  H   H8        1.0  0.3916964636962064  0.8405023944999855  0.8161760427294098  1.0000
  H   H9        1.0  0.775407739084045  0.31217023147599576  0.3989303298409936  1.0000
  H   H10       1.0  0.7245901239854005  0.18782869362039636  0.8989332376904642  1.0000
  H   H11       1.0  0.7754101523707675  0.18782320657759757  0.6010731954897679  1.0000
  H   H12       1.0  0.724593233131628  0.31217623125741073  0.1010672395340606  1.0000
  H   H13       1.0  0.2245816731480375  0.6878269322275584  0.6010717911974908  1.0000
  H   H14       1.0  0.2754105291619311  0.8121715570799141  0.1010736278694893  1.0000
  H   H15       1.0  0.22459674592917622  0.8121755005605211  0.3989180808207493  1.0000
  H   H16       1.0  0.2754024240633584  0.6878240194232818  0.8989369148736372  1.0000
  H   H17       1.0  0.28580465991608145  0.40065013478824346  0.4586980431511308  1.0000
  H   H18       1.0  0.21418836137821268  0.09934703995654101  0.9586982190108984  1.0000
  H   H19       1.0  0.2858117735624788  0.0993547910364327  0.5412884319610285  1.0000
  H   H20       1.0  0.2141882388105785  0.4006400100962113  0.0412968698484306  1.0000
  H   H21       1.0  0.7141835034256728  0.5993493440848994  0.5412952666023187  1.0000
  H   H22       1.0  0.7858097939126835  0.9006516671929319  0.04129644629019681  1.0000
  H   H23       1.0  0.7142013697631526  0.9006508617524532  0.4587001331897014  1.0000
  H   H24       1.0  0.7858049204576147  0.5993448057316401  0.958698473201352  1.0000
  H   H25       1.0  0.3785994244236264  0.24861848873413098  0.37329524816124865  1.0000
  H   H26       1.0  0.1213992853666213  0.251377726656635  0.8732946553790131  1.0000
  H   H27       1.0  0.37860654235895197  0.25138119794070957  0.6266980603163859  1.0000
  H   H28       1.0  0.1214027692904338  0.24861456264667942  0.1267091892863803  1.0000
  H   H29       1.0  0.6213899878375032  0.7513779032141416  0.6267041617048721  1.0000
  H   H30       1.0  0.8786026169151739  0.7486225239762446  0.1267000099162274  1.0000
  H   H31       1.0  0.6214041029579178  0.748623683113543  0.3732918604238762  1.0000
  H   H32       1.0  0.8785953858790804  0.7513748836715949  0.8732942872737796  1.0000
  H   H33       1.0  0.8174283290572646  0.4647561069414294  0.4846268370060898  1.0000
  H   H34       1.0  0.6825638388383908  0.03524455254963501  0.9846307350327593  1.0000
  H   H35       1.0  0.8174369872519093  0.0352466657327639  0.5153635284810961  1.0000
  H   H36       1.0  0.6825658486047173  0.46475335284611663  0.015369346221305603  1.0000
  H   H37       1.0  0.1825585852561105  0.5352426002057841  0.5153691839172083  1.0000
  H   H38       1.0  0.31743181840762696  0.9647510676602594  0.015367997016824102  1.0000
  H   H39       1.0  0.18257240910529046  0.9647605305253394  0.4846236811043952  1.0000
  H   H40       1.0  0.31743230653688664  0.535240723931537  0.9846375193202235  1.0000
  C   C1        1.0  0.9738335740952166  0.21683243425191995  0.34699003027238723  1.0000
  C   C2        1.0  0.5261654697589789  0.2831643639016335  0.8469923855806415  1.0000
  C   C3        1.0  0.9738364926056773  0.2831613523333375  0.6530135199031619  1.0000
  C   C4        1.0  0.5261719570376188  0.21683712551259762  0.15301213351825993  1.0000
  C   C5        1.0  0.026150842211173093  0.7831662729007153  0.6530073462437826  1.0000
  C   C6        1.0  0.4738389304041419  0.7168382020107132  0.1530124466000444  1.0000
  C   C7        1.0  0.026171654617179695  0.7168358113600207  0.3469838565267339  1.0000
  C   C8        1.0  0.4738286961239879  0.7831592664760051  0.8469926986481796  1.0000
  C   C9        1.0  0.9100795114925615  0.3020281055348947  0.3924535292524923  1.0000
  C   C10       1.0  0.5899172498021201  0.19797074681410012  0.8924581061445238  1.0000
  C   C11       1.0  0.9100868200511343  0.19796788427500192  0.6075470595221973  1.0000
  C   C12       1.0  0.58992016520574  0.3020331697973262  0.1075466632189048  1.0000
  C   C13       1.0  0.089908651791724  0.6979698298847838  0.6075445250400193  1.0000
  C   C14       1.0  0.4100846523522463  0.8020310473636132  0.10754808162569421  1.0000
  C   C15       1.0  0.08992382520712988  0.8020315946216887  0.3924469279481144  1.0000
  C   C16       1.0  0.4100767409874421  0.6979647656604869  0.892456813382303  1.0000
  C   C17       1.0  0.020493202457885197  0.37312564869420567  0.4330721660502662  1.0000
  C   C18       1.0  0.4795028993809467  0.1268720099369105  0.9330735127831533  1.0000
  C   C19       1.0  0.0205023575853573  0.1268726372454978  0.5669228662555668  1.0000
  C   C20       1.0  0.4795033170530374  0.37312553879253585  0.0669279302994781  1.0000
  C   C21       1.0  0.9794962098334279  0.6268738302028751  0.5669252104525029  1.0000
  C   C22       1.0  0.5204965048304615  0.8731274689917897  0.06692793043961841  1.0000
  C   C23       1.0  0.9795120347195124  0.873129156848009  0.4330663766664743  1.0000
  C   C24       1.0  0.5204923401432069  0.6268685379600784  0.9330748684969097  1.0000
  C   C25       1.0  0.19234506128175613  0.3521421488066779  0.4261912295333731  1.0000
  C   C26       1.0  0.3076486989889702  0.1478569760106012  0.9261932332279132  1.0000
  C   C27       1.0  0.1923529072220163  0.14785952592482232  0.5737999391009512  1.0000
  C   C28       1.0  0.30765136204511373  0.35213795564097694  0.07380800678863861  1.0000
  C   C29       1.0  0.8076431020498944  0.647859645294247  0.5738034358146324  1.0000
  C   C30       1.0  0.6923519542431148  0.8521432746478298  0.0738061766172748  1.0000
  C   C31       1.0  0.807657738072372  0.8521422681768198  0.42619133721040464  1.0000
  C   C32       1.0  0.6923455441688944  0.6478522623972224  0.9261920808178064  1.0000
  C   C33       1.0  0.2459185790987917  0.26601728266954433  0.3787899526089689  1.0000
  C   C34       1.0  0.2540787567725786  0.23397976618927172  0.8787903523009037  1.0000
  C   C35       1.0  0.24592074617452647  0.23398062748594842  0.6212062790761693  1.0000
  C   C36       1.0  0.2540836943874965  0.26601584312324184  0.1212132803536292  1.0000
  C   C37       1.0  0.7540683352086431  0.7339821962215325  0.6212067461099268  1.0000
  C   C38       1.0  0.7459231454552862  0.7660204844702533  0.12120905754009213  1.0000
  C   C39       1.0  0.754086152109373  0.7660211666238154  0.37878703062450825  1.0000
  C   C40       1.0  0.7459157097908217  0.73397591841249  0.878789518420142  1.0000
  C   C41       1.0  0.9535401836121267  0.46240316842889245  0.4806002843987188  1.0000
  C   C42       1.0  0.5464495778383308  0.03759590234231071  0.9806030823142964  1.0000
  C   C43       1.0  0.9535525080203938  0.0375990715963681  0.5193918794110033  1.0000
  C   C44       1.0  0.5464502362495623  0.4624017639791588  0.019398589583516906  1.0000
  C   C45       1.0  0.04644298370971  0.5375970821989569  0.519396414336093  1.0000
  C   C46       1.0  0.4535485773968659  0.9624020330937527  0.0193963275292148  1.0000
  C   C47       1.0  0.046458137329061296  0.9624065811827195  0.4805953301636023  1.0000
  C   C48       1.0  0.4535441719372598  0.5375930845200331  0.980605564804911  1.0000
  C   C49       1.0  0.5516734583690024  0.05995295618320992  0.38466449144290493  1.0000
  C   C50       1.0  0.9483484599816236  0.44005738477146406  0.8846653778452025  1.0000
  C   C51       1.0  0.5516692095421051  0.44005552367020334  0.6153371454844461  1.0000
  C   C52       1.0  0.9483326027185297  0.05996259616566849  0.1153329210845229  1.0000
  C   C53       1.0  0.44833343969729367  0.9400580989252634  0.6153498298577845  1.0000
  C   C54       1.0  0.05166218523851279  0.5599590724445636  0.11533538762135011  1.0000
  C   C55       1.0  0.448321451791614  0.5599609335054295  0.3846595532956059  1.0000
  C   C56       1.0  0.05167054845195201  0.9400245349253993  0.8846685220720757  1.0000
  S   S1        1.0  0.5124443109474939  0.977904835071918  0.3006061024517024  1.0000
  S   S2        1.0  0.9875830592752805  0.5221060347952928  0.8006044518913031  1.0000
  S   S3        1.0  0.5124362353528936  0.5221065925382504  0.6993974283590562  1.0000
  S   S4        1.0  0.9875722028338387  0.9779008251479554  0.1993891144763964  1.0000
  S   S5        1.0  0.4875788241605718  0.022114709153377998  0.6994014409088865  1.0000
  S   S6        1.0  0.0124250880245  0.47790116149217  0.1993881800363937  1.0000
  S   S7        1.0  0.4875619198317906  0.477902919036744  0.3006087594572265  1.0000
  S   S8        1.0  0.0124409402183332  0.0220762733615913  0.8006177509411502  1.0000
  N   N1        1.0  0.1390335584625362  0.19923135599962194  0.3396292181132452  1.0000
  N   N2        1.0  0.3609659166432948  0.30076602470774116  0.8396315143141991  1.0000
  N   N3        1.0  0.1390388883439115  0.3007655947040178  0.6603717971332373  1.0000
  N   N4        1.0  0.36097090686178024  0.19923208759281152  0.16037614605984635  1.0000
  N   N5        1.0  0.8609521068354766  0.8007688946380329  0.6603688361976978  1.0000
  N   N6        1.0  0.6390397325369649  0.6992357694542264  0.1603712844821956  1.0000
  N   N7        1.0  0.8609717568621916  0.6992346559593798  0.3396269348861908  1.0000
  N   N8        1.0  0.63902974629098  0.8007604456954952  0.8396286860898456  1.0000
  N   N9        1.0  0.5837521119700995  0.11657125994203453  0.4448424147761258  1.0000
  N   N10       1.0  0.9162709363604192  0.38343898524928494  0.9448396356816746  1.0000
  N   N11       1.0  0.5837439756322453  0.3834365045388708  0.5551637515719605  1.0000
  N   N12       1.0  0.9162529595052717  0.11658093939314543  0.0551676896815536  1.0000
  N   N13       1.0  0.41624729199528326  0.8834351647766141  0.5551820734133628  1.0000
  N   N14       1.0  0.0837409577778274  0.6165805589699503  0.0551685855088593  1.0000
  N   N15       1.0  0.41624168976505155  0.6165868982776673  0.4448302360859914  1.0000
  N   N16       1.0  0.08374894253730499  0.8834023330574471  0.9448445981385023  1.0000
