data_image0
_chemical_formula_structural       Cd4H40C48N16O16
_chemical_formula_sum              "Cd4 H40 C48 N16 O16"
_cell_length_a       9.211996452982758
_cell_length_b       9.21200485286789
_cell_length_c       14.963134055116774
_cell_angle_alpha    93.6940616246107
_cell_angle_beta     93.69418124601644
_cell_angle_gamma    95.25343367176005

_space_group_name_H-M_alt    "P 1"
_space_group_IT_number       1

loop_
  _space_group_symop_operation_xyz
  'x, y, z'

loop_
  _atom_site_type_symbol
  _atom_site_label
  _atom_site_symmetry_multiplicity
  _atom_site_fract_x
  _atom_site_fract_y
  _atom_site_fract_z
  _atom_site_occupancy
  Cd  Cd1       1.0  0.4533772666552451  0.578745204390529  0.6137816992094897  1.0000
  Cd  Cd2       1.0  0.42125578518677287  0.5466218109904587  0.8862188195425202  1.0000
  Cd  Cd3       1.0  0.546621853487487  0.42125547642080347  0.3862186475448439  1.0000
  Cd  Cd4       1.0  0.5787444223991542  0.45337886640872693  0.11378156569488598  1.0000
  H   H1        1.0  0.1340290043004941  0.5313266344779563  0.7020582864198772  1.0000
  H   H2        1.0  0.4686715033712971  0.8659698218078516  0.7979419515467397  1.0000
  H   H3        1.0  0.8659689200247485  0.46867295692185695  0.2979419792095896  1.0000
  H   H4        1.0  0.53132652932824  0.13403086241562076  0.2020583567245282  1.0000
  H   H5        1.0  0.294430303033387  0.8964053538402793  0.5707450563271408  1.0000
  H   H6        1.0  0.1035941456322504  0.7055701581535487  0.9292558279415388  1.0000
  H   H7        1.0  0.7055688252708876  0.10359533513157969  0.4292559593498169  1.0000
  H   H8        1.0  0.8964049745104816  0.29443052265778386  0.0707445188127949  1.0000
  H   H9        1.0  0.8094513067658224  0.8002675260875874  0.6838532162577166  1.0000
  H   H10       1.0  0.19972994110001  0.1905482982803264  0.8161466122519627  1.0000
  H   H11       1.0  0.1905485675356502  0.19972986468008  0.3161463721316621  1.0000
  H   H12       1.0  0.8002712373932609  0.8094512747225194  0.18385309990409127  1.0000
  H   H13       1.0  0.9063878567786078  0.5382122262508843  0.7821750125549727  1.0000
  H   H14       1.0  0.4617884936638531  0.09361141989724328  0.7178244766723407  1.0000
  H   H15       1.0  0.09361015959784419  0.4617884416515279  0.21782395787104747  1.0000
  H   H16       1.0  0.5382117057605242  0.9063892493414156  0.28217523964244146  1.0000
  H   H17       1.0  0.723863870466147  0.9993925913339939  0.6470231755481775  1.0000
  H   H18       1.0  0.0006072024860586011  0.27613687798370273  0.852977265849958  1.0000
  H   H19       1.0  0.27613741640142564  0.0006080744925185005  0.35297657924967746  1.0000
  H   H20       1.0  0.999391925818216  0.7238638109881491  0.14702374982699948  1.0000
  H   H21       1.0  0.8338872215771217  0.43637962566302246  0.5901574376697027  1.0000
  H   H22       1.0  0.5636210700164312  0.16611204873071733  0.9098427372184544  1.0000
  H   H23       1.0  0.1661139650776988  0.5636199555003499  0.409842943408968  1.0000
  H   H24       1.0  0.4363801084768397  0.8338875242721288  0.0901569749375923  1.0000
  H   H25       1.0  0.11509377684343744  0.4122359171939891  0.5445696786816328  1.0000
  H   H26       1.0  0.5877643484085198  0.8849043377329265  0.9554300040596643  1.0000
  H   H27       1.0  0.884906322368188  0.5877636673815303  0.4554306639139654  1.0000
  H   H28       1.0  0.4122367298719993  0.11509415060678661  0.0445703343771982  1.0000
  H   H29       1.0  0.20644277856281687  0.09928808533221908  0.5342950834746532  1.0000
  H   H30       1.0  0.9007132937175015  0.7935581634140759  0.9657049928370824  1.0000
  H   H31       1.0  0.7935594955351918  0.9007114924190135  0.4657053360870903  1.0000
  H   H32       1.0  0.09928778456301049  0.20644032492563716  0.0342953455997872  1.0000
  H   H33       1.0  0.03412900176808622  0.9480633382788142  0.617720610435633  1.0000
  H   H34       1.0  0.0519350668542273  0.9658709596740778  0.8822793531643143  1.0000
  H   H35       1.0  0.9658700100003442  0.05193624970885219  0.3822796936768995  1.0000
  H   H36       1.0  0.9480640532885048  0.03412972113725489  0.1177209935900194  1.0000
  H   H37       1.0  0.6359253362428845  0.2583146128480536  0.6385842367929514  1.0000
  H   H38       1.0  0.7416841867637984  0.36407495491802416  0.8614158945403786  1.0000
  H   H39       1.0  0.3640758422503866  0.7416849601547922  0.3614154753631027  1.0000
  H   H40       1.0  0.25831591244782  0.6359246296574952  0.13858444805521938  1.0000
  C   C1        1.0  0.0285393339108069  0.7345030549161891  0.6724263386561586  1.0000
  C   C2        1.0  0.26549653152392955  0.9714590754245694  0.8275730739273895  1.0000
  C   C3        1.0  0.9714575029712406  0.2654965398957644  0.32757388849023517  1.0000
  C   C4        1.0  0.7345037762747494  0.0285426866377563  0.17242668502919398  1.0000
  C   C5        1.0  0.13441336404780913  0.6364788310390993  0.6735692357680705  1.0000
  C   C6        1.0  0.36351980488986146  0.8655839347369818  0.8264302315825913  1.0000
  C   C7        1.0  0.8655835730469902  0.3635218484359939  0.32643036509750084  1.0000
  C   C8        1.0  0.636479206878569  0.13441565325068444  0.17357007252994086  1.0000
  C   C9        1.0  0.22122930750340694  0.8241198037310297  0.605545920445806  1.0000
  C   C10       1.0  0.17587963221433967  0.7787702712716821  0.8944542613250447  1.0000
  C   C11       1.0  0.7787698126393252  0.17588087708029582  0.3944544263085277  1.0000
  C   C12       1.0  0.8241194797668496  0.2212304013791169  0.10554541650667197  1.0000
  C   C13       1.0  0.8848041649143069  0.7219234381063301  0.7044523489744066  1.0000
  C   C14       1.0  0.278075089461403  0.1151944690793769  0.7955469107995156  1.0000
  C   C15       1.0  0.11519115102734649  0.2780717888231123  0.295547669121717  1.0000
  C   C16       1.0  0.7219285727180703  0.8848083592491136  0.20445166840283238  1.0000
  C   C17       1.0  0.8347713537223668  0.6166913942120684  0.7569199581885542  1.0000
  C   C18       1.0  0.38330904894323226  0.16522562936825838  0.743079345616934  1.0000
  C   C19       1.0  0.16522428734218408  0.38330711118836547  0.24308018783297308  1.0000
  C   C20       1.0  0.6166933172059856  0.8347750248855802  0.2569197787413628  1.0000
  C   C21       1.0  0.6831250266374056  0.602888703793077  0.7829398694458689  1.0000
  C   C22       1.0  0.39711144219811695  0.3168726227044303  0.7170600293162792  1.0000
  C   C23       1.0  0.31687299790058887  0.3971119722698687  0.21705976990277515  1.0000
  C   C24       1.0  0.6028886488519661  0.6831269537105554  0.282939644356702  1.0000
  C   C25       1.0  0.9694386687231357  0.24303976486265103  0.5904626503307001  1.0000
  C   C26       1.0  0.7569596864574848  0.0305626311468501  0.9095370904474223  1.0000
  C   C27       1.0  0.030563605374872797  0.7569598128885814  0.40953776923103646  1.0000
  C   C28       1.0  0.24304041275413368  0.969436953428669  0.09046325214817588  1.0000
  C   C29       1.0  0.7921040617249985  0.09553031863220698  0.6312199562789543  1.0000
  C   C30       1.0  0.9044683945355343  0.2078964459379762  0.8687803798016418  1.0000
  C   C31       1.0  0.20789602116353478  0.9044692496222594  0.36877904847141  1.0000
  C   C32       1.0  0.0955318130503855  0.7921042314612095  0.13122000543576456  1.0000
  C   C33       1.0  0.8505669352341484  0.3238393511484431  0.6015455647905839  1.0000
  C   C34       1.0  0.6761594991980218  0.1494328186967593  0.8984539744912892  1.0000
  C   C35       1.0  0.149434351633424  0.676161314678069  0.39845419000727117  1.0000
  C   C36       1.0  0.3238392958218057  0.8505645836435745  0.10154624433764067  1.0000
  C   C37       1.0  0.10386148134355716  0.29564455852046473  0.5550951352830393  1.0000
  C   C38       1.0  0.7043547643188505  0.8961383097504981  0.9449046396120194  1.0000
  C   C39       1.0  0.8961397053112564  0.7043550226429074  0.4449052457956242  1.0000
  C   C40       1.0  0.2956433685934456  0.10386345913611447  0.05509504237843289  1.0000
  C   C41       1.0  0.2121420463540886  0.21667489804841716  0.5289368263776026  1.0000
  C   C42       1.0  0.7833260469454187  0.7878572467948644  0.9710631059155546  1.0000
  C   C43       1.0  0.7878581530702887  0.7833257711902347  0.47106288993717976  1.0000
  C   C44       1.0  0.21667449392495536  0.21214671723583928  0.028938076169872297  1.0000
  C   C45       1.0  0.33674842463410926  0.2824731701710732  0.4844088238526538  1.0000
  C   C46       1.0  0.7175282463357816  0.6632529377979567  0.015590753125863398  1.0000
  C   C47       1.0  0.6632517747902752  0.7175274990675788  0.5155908924621286  1.0000
  C   C48       1.0  0.282471969411688  0.3367477477617555  0.9844103010341597  1.0000
  N   N1        1.0  0.2524983878600935  0.6931267822654162  0.6318573547864117  1.0000
  N   N2        1.0  0.3068728803060452  0.7475008858803919  0.8681415893245726  1.0000
  N   N3        1.0  0.7475007241210889  0.30687389038538276  0.36814232304529776  1.0000
  N   N4        1.0  0.6931262316751443  0.25249978677040724  0.1318580885071441  1.0000
  N   N5        1.0  0.08745045952774431  0.8525511040263893  0.6287844095257142  1.0000
  N   N6        1.0  0.1474485597797468  0.912548716972111  0.8712149959332576  1.0000
  N   N7        1.0  0.9125486606149877  0.14744957678493617  0.37121593722861945  1.0000
  N   N8        1.0  0.8525506524141945  0.08745304034182769  0.12878405561763628  1.0000
  N   N9        1.0  0.7405017742894772  0.22894936843276525  0.6266663231959697  1.0000
  N   N10       1.0  0.7710506937798982  0.25949871467037156  0.8733339440218302  1.0000
  N   N11       1.0  0.25949950441654573  0.771051289233213  0.3733327626792615  1.0000
  N   N12       1.0  0.22895048471337281  0.7405008583324744  0.1266657681342238  1.0000
  N   N13       1.0  0.9302499262524291  0.09917319772870312  0.6099200594895962  1.0000
  N   N14       1.0  0.9008265432343945  0.0697505972950623  0.8900783930046358  1.0000
  N   N15       1.0  0.0697502650104056  0.9008274633494224  0.39007898790256945  1.0000
  N   N16       1.0  0.09917148130359985  0.9302500787678841  0.1099212463440082  1.0000
  O   O1        1.0  0.5888150901090582  0.6808214371575544  0.7498087801990464  1.0000
  O   O2        1.0  0.31917849203009757  0.4111824876794756  0.7501916685976439  1.0000
  O   O3        1.0  0.41118174677298913  0.31917815765439866  0.2501914469473546  1.0000
  O   O4        1.0  0.6808216071815207  0.5888170968960437  0.2498086739979613  1.0000
  O   O5        1.0  0.6504473505776359  0.5089649741581608  0.840743856770075  1.0000
  O   O6        1.0  0.4910351106353161  0.34955206798264266  0.6592554727107113  1.0000
  O   O7        1.0  0.34955176140355343  0.49103569849263823  0.1592558210616417  1.0000
  O   O8        1.0  0.5089650887890683  0.6504486012560093  0.34074424360407096  1.0000
  O   O9        1.0  0.35072013989549317  0.4238751965494814  0.4781696776705501  1.0000
  O   O10       1.0  0.5761254519443639  0.6492807735760379  0.0218311128371624  1.0000
  O   O11       1.0  0.6492800595288841  0.5761254726891778  0.5218300386442323  1.0000
  O   O12       1.0  0.4238737928957619  0.35072101638001385  0.9781706144042133  1.0000
  O   O13       1.0  0.42528622036567026  0.20160509166205998  0.4494233724931647  1.0000
  O   O14       1.0  0.798395909932175  0.5747142589018422  0.050576933039522494  1.0000
  O   O15       1.0  0.574713979058714  0.7983955775765921  0.5505763438216107  1.0000
  O   O16       1.0  0.20160637232738307  0.42528532700991667  0.9494241554448377  1.0000
