data_image0
_chemical_formula_structural       Ag4H48C28N20O20
_chemical_formula_sum              "Ag4 H48 C28 N20 O20"
_cell_length_a       7.909533459008541
_cell_length_b       10.674806248008654
_cell_length_c       12.600660671019183
_cell_angle_alpha    89.99987141875499
_cell_angle_beta     89.99984668056226
_cell_angle_gamma    89.99993089593076

_space_group_name_H-M_alt    "P 1"
_space_group_IT_number       1

loop_
  _space_group_symop_operation_xyz
  'x, y, z'

loop_
  _atom_site_type_symbol
  _atom_site_label
  _atom_site_symmetry_multiplicity
  _atom_site_fract_x
  _atom_site_fract_y
  _atom_site_fract_z
  _atom_site_occupancy
  Ag  Ag1       1.0  0.4602805192492951  0.7930512823934704  0.6376717724168087  1.0000
  Ag  Ag2       1.0  0.039717431354226604  0.20694969185399964  0.1376735034459884  1.0000
  Ag  Ag3       1.0  0.9602815888332328  0.7069505630840922  0.3623295219360969  1.0000
  Ag  Ag4       1.0  0.5397174965372641  0.2930512419204376  0.8623278615853137  1.0000
  H   H1        1.0  0.0071774341367785  0.11835459195633996  0.5395009582269097  1.0000
  H   H2        1.0  0.49282346303999697  0.8816466423499848  0.0395014381130565  1.0000
  H   H3        1.0  0.5071778019326061  0.38164543417047986  0.4604988743129538  1.0000
  H   H4        1.0  0.9928221297626152  0.6183561107777036  0.9604982142913838  1.0000
  H   H5        1.0  0.036034760569918896  0.267289283602274  0.6021054462680411  1.0000
  H   H6        1.0  0.46396713436138265  0.732710848079307  0.10210387700977458  1.0000
  H   H7        1.0  0.5360356368737628  0.23271165347023262  0.3978951313469778  1.0000
  H   H8        1.0  0.9639658256627684  0.767290994102616  0.8978942367081969  1.0000
  H   H9        1.0  0.1542506982507703  0.9247716649604669  0.7720307325657528  1.0000
  H   H10       1.0  0.3457504731941087  0.0752261430080452  0.2720321993320667  1.0000
  H   H11       1.0  0.6542512895917056  0.575228580962225  0.2279686956475615  1.0000
  H   H12       1.0  0.8457496321364673  0.42477357996879306  0.7279670637913469  1.0000
  H   H13       1.0  0.0786106229063392  0.9171895363573057  0.6387306500101815  1.0000
  H   H14       1.0  0.42139111608153  0.082808624727484  0.1387327687572224  1.0000
  H   H15       1.0  0.5786093700878752  0.5828098405074442  0.3612689054182425  1.0000
  H   H16       1.0  0.9213922483900632  0.41719103051842404  0.8612687479784569  1.0000
  H   H17       1.0  0.1415627015741521  0.2792676608835193  0.7887550831209538  1.0000
  H   H18       1.0  0.3584371343665893  0.7207301027816512  0.2887568885549712  1.0000
  H   H19       1.0  0.6415631277323895  0.22073224491779087  0.21124452340760058  1.0000
  H   H20       1.0  0.8584366009057689  0.7792699603176984  0.711242196255327  1.0000
  H   H21       1.0  0.1889169038175211  0.14078633996342657  0.8625568607614226  1.0000
  H   H22       1.0  0.3110838821989432  0.8592112281976226  0.36255848255935047  1.0000
  H   H23       1.0  0.6889186835151762  0.35921352343741114  0.1374426661249473  1.0000
  H   H24       1.0  0.8110826236397202  0.6407888773000181  0.6374414755001822  1.0000
  H   H25       1.0  0.3173116366643071  0.3411433734024882  0.6414673613228175  1.0000
  H   H26       1.0  0.1826875620781934  0.6588557172198506  0.14146878636065446  1.0000
  H   H27       1.0  0.8173115362463789  0.15885731182159898  0.3585327432371486  1.0000
  H   H28       1.0  0.6826875652904931  0.841144503241388  0.8585305940275842  1.0000
  H   H29       1.0  0.4969557576711167  0.2461748698442179  0.607280204218604  1.0000
  H   H30       1.0  0.0030461152195898  0.7538252481240445  0.10728254443957039  1.0000
  H   H31       1.0  0.9969553574116786  0.25382471774668847  0.39271880460501757  1.0000
  H   H32       1.0  0.5030448628682151  0.7461760699686832  0.8927179316818297  1.0000
  H   H33       1.0  0.560162972288893  0.06189315041864058  0.7026086611103394  1.0000
  H   H34       1.0  0.9398380574109524  0.938104393762515  0.20260991637820777  1.0000
  H   H35       1.0  0.0601631158364313  0.4381068282672941  0.29739028870861967  1.0000
  H   H36       1.0  0.43983668333893877  0.5618965332368047  0.7973898251397316  1.0000
  H   H37       1.0  0.4274217087713835  0.0111876990089215  0.8089730850774757  1.0000
  H   H38       1.0  0.0725780410866577  0.9888100110969584  0.3089756552175941  1.0000
  H   H39       1.0  0.9274217854834319  0.48881195084095447  0.19102604068919496  1.0000
  H   H40       1.0  0.5725780292357359  0.5111903079527735  0.6910247039637694  1.0000
  H   H41       1.0  0.45784001412577163  0.049511947513039396  0.5209222537656188  1.0000
  H   H42       1.0  0.042160962149331696  0.9504874624357594  0.020924947922011897  1.0000
  H   H43       1.0  0.957838926680132  0.45048954867181823  0.47907682084227327  1.0000
  H   H44       1.0  0.5421596616204525  0.549512883849303  0.979075462416354  1.0000
  H   H45       1.0  0.24628952703361054  0.9929999245240704  0.4968108942549776  1.0000
  H   H46       1.0  0.25371068737442937  0.007000098348143498  0.9968125922747786  1.0000
  H   H47       1.0  0.746289057429493  0.5070002389885886  0.5031891727760538  1.0000
  H   H48       1.0  0.7537115570344638  0.4930025173936982  0.0031868256384868  1.0000
  C   C1        1.0  0.07970222953848347  0.10573678117380327  0.7049144581285771  1.0000
  C   C2        1.0  0.4202992276630794  0.8942621413736305  0.20491582961042806  1.0000
  C   C3        1.0  0.5797032811060276  0.3942631800146187  0.2950860460465492  1.0000
  C   C4        1.0  0.9202973548603807  0.6057378663343228  0.7950847383787192  1.0000
  C   C5        1.0  0.0850061347221427  0.17145802252897366  0.5957701140883955  1.0000
  C   C6        1.0  0.41499452288083205  0.828542125932685  0.09577082582803338  1.0000
  C   C7        1.0  0.5850068283647261  0.3285428706968148  0.40422958755677024  1.0000
  C   C8        1.0  0.9149933429059941  0.6714597600970719  0.90422816386193  1.0000
  C   C9        1.0  0.1530522693104217  0.9727201785580349  0.6951648771223304  1.0000
  C   C10       1.0  0.3469492294000744  0.027277833029970097  0.1951672266401019  1.0000
  C   C11       1.0  0.6530513469848102  0.5272800684383794  0.3048345531077956  1.0000
  C   C12       1.0  0.8469479831789782  0.4727218888726625  0.8048328280767478  1.0000
  C   C13       1.0  0.18942907898629355  0.18297081716536917  0.7831133667376092  1.0000
  C   C14       1.0  0.3105720452721599  0.8170269614445048  0.28311506959631316  1.0000
  C   C15       1.0  0.6894293246766665  0.31702904577651475  0.21688695289785187  1.0000
  C   C16       1.0  0.8105703799374737  0.6829731445116066  0.7168848893243831  1.0000
  C   C17       1.0  0.365218473803573  0.245063865313213  0.6346995132704691  1.0000
  C   C18       1.0  0.13478328234837994  0.7549352432364245  0.1347008362131632  1.0000
  C   C19       1.0  0.8652194527740278  0.25493584022950694  0.3653013043281845  1.0000
  C   C20       1.0  0.6347821485383066  0.7450659569018184  0.865299418350503  1.0000
  C   C21       1.0  0.42978733734287994  0.05686263482465388  0.7310660135522582  1.0000
  C   C22       1.0  0.0702140085143625  0.9431352816604743  0.23106788089603472  1.0000
  C   C23       1.0  0.9297858922624941  0.44313794969398385  0.2689323146270723  1.0000
  C   C24       1.0  0.5702135907554788  0.5568650395061353  0.7689324822615333  1.0000
  C   C25       1.0  0.3272974873480052  0.04741918884374738  0.5504279612839014  1.0000
  C   C26       1.0  0.1727033633044428  0.9525801429446188  0.050429638304017  1.0000
  C   C27       1.0  0.8272965221275042  0.45258148744067467  0.4495713328732478  1.0000
  C   C28       1.0  0.6727021917963255  0.5474182128843592  0.9495713460969384  1.0000
  N   N1        1.0  0.28874874273891754  0.6029094593474439  0.4920043385532081  1.0000
  N   N2        1.0  0.2112489635451524  0.3970896394764977  0.9920037791378957  1.0000
  N   N3        1.0  0.7887476189224429  0.8970887925782021  0.5079956570715821  1.0000
  N   N4        1.0  0.7112491821846871  0.1029092671442768  0.0079957101922687  1.0000
  N   N5        1.0  0.9037292516339119  0.10100465319174387  0.7481511851158301  1.0000
  N   N6        1.0  0.5962703198596132  0.8989955806995906  0.24815388616464418  1.0000
  N   N7        1.0  0.4037296526241717  0.39899595465577403  0.25184877410520556  1.0000
  N   N8        1.0  0.09626781186536701  0.6010037803536362  0.751845639564479  1.0000
  N   N9        1.0  0.26154127412235073  0.1746149576063871  0.5594202813026996  1.0000
  N   N10       1.0  0.2384608025407928  0.8253843503602382  0.05942208955271869  1.0000
  N   N11       1.0  0.7615405538326954  0.3253857775545299  0.4405791234440811  1.0000
  N   N12       1.0  0.738459462673994  0.6746167569476283  0.9405779906446341  1.0000
  N   N13       1.0  0.3289072199514251  0.9816261692346872  0.6551811030020929  1.0000
  N   N14       1.0  0.17109318469896803  0.018372885058255392  0.1551829715981867  1.0000
  N   N15       1.0  0.8289074061557145  0.5183739203047465  0.3448180314714761  1.0000
  N   N16       1.0  0.6710917537694171  0.4816269943008677  0.8448181724854608  1.0000
  N   N17       1.0  0.3637668801774296  0.18592728738882155  0.7420939395669777  1.0000
  N   N18       1.0  0.1362344187265307  0.8140705998827258  0.24209594125038333  1.0000
  N   N19       1.0  0.8637682203233013  0.3140714826693624  0.257906086864395  1.0000
  N   N20       1.0  0.63623257394147  0.6859296621703164  0.7579051044833989  1.0000
  O   O1        1.0  0.810693385874508  0.1923871728223432  0.730689393665628  1.0000
  O   O2        1.0  0.6893037313719573  0.8076056130426962  0.23069449281558713  1.0000
  O   O3        1.0  0.3106951252779169  0.3076107079702481  0.269311515635323  1.0000
  O   O4        1.0  0.18930732204741932  0.6923927279184666  0.7693080508809726  1.0000
  O   O5        1.0  0.8618898312354801  0.0079246920836766  0.8012207483476459  1.0000
  O   O6        1.0  0.6381082500165789  0.992071654086686  0.3012216148559688  1.0000
  O   O7        1.0  0.361890306956191  0.4920731428682996  0.1987808684605596  1.0000
  O   O8        1.0  0.13810611917804744  0.507929543075953  0.6987778405073684  1.0000
  O   O9        1.0  0.43436154195571675  0.5968839345345741  0.5354328970668121  1.0000
  O   O10       1.0  0.0656368439456614  0.40311918411958897  0.035433417945931495  1.0000
  O   O11       1.0  0.9343618575472378  0.9031169973664814  0.4645676472693835  1.0000
  O   O12       1.0  0.5656367925329278  0.09688172645040537  0.9645655226662555  1.0000
  O   O13       1.0  0.1955598202436306  0.698049378415078  0.5091804099906412  1.0000
  O   O14       1.0  0.3044361488457596  0.3019481890755387  0.0091791343707328  1.0000
  O   O15       1.0  0.695560188419087  0.8019498937342674  0.4908197423586032  1.0000
  O   O16       1.0  0.8044396141830106  0.1980478237517075  0.9908194046265206  1.0000
  O   O17       1.0  0.24018476229405655  0.5157342079388838  0.4319218983543962  1.0000
  O   O18       1.0  0.2598169926914409  0.4842650500444277  0.9319210915248346  1.0000
  O   O19       1.0  0.7401807124458416  0.9842650242562955  0.5680781789476299  1.0000
  O   O20       1.0  0.7598133042552461  0.0157328763051936  0.06807910973621739  1.0000
