data_image0
_chemical_formula_structural       Co2H56C52N8O8
_chemical_formula_sum              "Co2 H56 C52 N8 O8"
_cell_length_a       9.592002078273529
_cell_length_b       11.825145635539535
_cell_length_c       12.548948833575627
_cell_angle_alpha    64.04406364919426
_cell_angle_beta     67.2103837573072
_cell_angle_gamma    79.07241928578621

_space_group_name_H-M_alt    "P 1"
_space_group_IT_number       1

loop_
  _space_group_symop_operation_xyz
  'x, y, z'

loop_
  _atom_site_type_symbol
  _atom_site_label
  _atom_site_symmetry_multiplicity
  _atom_site_fract_x
  _atom_site_fract_y
  _atom_site_fract_z
  _atom_site_occupancy
  Co  Co1       1.0  0.7805722165388858  0.7355559214590385  0.20555767168082195  1.0000
  Co  Co2       1.0  0.219427742687607  0.2644479490376099  0.7944418268800462  1.0000
  H   H1        1.0  0.7866356791685263  0.9484395799098165  0.9452155935560145  1.0000
  H   H2        1.0  0.2133578786322943  0.05155204038096171  0.05478608851470311  1.0000
  H   H3        1.0  0.7141861853716165  0.5219996034531392  0.4845120346991648  1.0000
  H   H4        1.0  0.28580811286842334  0.47800518414052806  0.5154919714509418  1.0000
  H   H5        1.0  0.8000677539861414  0.3370469265315421  0.6440258769954924  1.0000
  H   H6        1.0  0.1999320623560479  0.6629616455562228  0.35597411880247154  1.0000
  H   H7        1.0  0.6234781169340735  0.41108296115277915  0.6964060837537859  1.0000
  H   H8        1.0  0.37651864856959344  0.5889161883360075  0.3036010982311624  1.0000
  H   H9        1.0  0.8175471284617188  0.2570107290278543  0.8597794182692482  1.0000
  H   H10       1.0  0.18245633953610962  0.7429893922060556  0.14021897831996447  1.0000
  H   H11       1.0  0.6451587484360105  0.3356937877715609  0.9093133841990095  1.0000
  H   H12       1.0  0.35484485945617905  0.6643035055738621  0.09069171330506257  1.0000
  H   H13       1.0  0.0227430924055767  0.688390391742601  0.6299547033737484  1.0000
  H   H14       1.0  0.9772602019330705  0.3116144350221006  0.370040213601925  1.0000
  H   H15       1.0  0.9456946121520032  0.9461416508204225  0.21140220967777165  1.0000
  H   H16       1.0  0.054307763603340185  0.05385752472612641  0.7885977008329021  1.0000
  H   H17       1.0  0.5042073302448528  0.20512684898920244  0.880053455888131  1.0000
  H   H18       1.0  0.4957971009160785  0.7948779810960076  0.1199419156809967  1.0000
  H   H19       1.0  0.6739597302993943  0.13451134130787779  0.8091139224502443  1.0000
  H   H20       1.0  0.3260425102215975  0.8654915981905374  0.19088368159167157  1.0000
  H   H21       1.0  0.2559814145666834  0.19035386604692664  0.31853959345732363  1.0000
  H   H22       1.0  0.7440241026817488  0.8096519105135798  0.6814534688202087  1.0000
  H   H23       1.0  0.7669274316796546  0.2193103908391051  0.0998227571925626  1.0000
  H   H24       1.0  0.23307410849700716  0.7806812495435268  0.9001852885128088  1.0000
  H   H25       1.0  0.49916802608222355  0.4156820965964343  0.3125747981498535  1.0000
  H   H26       1.0  0.5008310283658873  0.5843151842548763  0.6874276856102953  1.0000
  H   H27       1.0  0.674973590143651  0.252078233823525  0.4119841648497768  1.0000
  H   H28       1.0  0.3250255473090746  0.7479171630820146  0.5880214605700617  1.0000
  H   H29       1.0  0.5914052274534213  0.20800955265393373  0.3326739685725288  1.0000
  H   H30       1.0  0.40859607452437535  0.7919886748414484  0.6673298419699875  1.0000
  H   H31       1.0  0.802316934663651  0.44069582173094785  0.9452065412231436  1.0000
  H   H32       1.0  0.1976868099578653  0.5592967708112937  0.05479726367370567  1.0000
  H   H33       1.0  0.8728386760530285  0.47717790261818743  0.0365136784578296  1.0000
  H   H34       1.0  0.1271651131482798  0.5228137475572011  0.963492094953935  1.0000
  H   H35       1.0  0.3685413993669755  0.23815731145004548  0.0884019289614741  1.0000
  H   H36       1.0  0.6314585106197157  0.761846565350062  0.9115912066383841  1.0000
  H   H37       1.0  0.1343372334964172  0.9007129572681477  0.49046769335908635  1.0000
  H   H38       1.0  0.8656729554604966  0.0992881333470876  0.5095243039447793  1.0000
  H   H39       1.0  0.5537510180043057  0.38302541883696517  0.12310877509870718  1.0000
  H   H40       1.0  0.4462490887664999  0.6169746861319467  0.8768946206711731  1.0000
  H   H41       1.0  0.5992439106212261  0.5399326622261426  0.07835626511742778  1.0000
  H   H42       1.0  0.4007642014752477  0.46006464991686613  0.9216450831695582  1.0000
  H   H43       1.0  0.5522758339916646  0.8642103345431666  0.40524728397362964  1.0000
  H   H44       1.0  0.4477208438473781  0.1357897628280043  0.5947523619055204  1.0000
  H   H45       1.0  0.0975452865043209  0.026993874503986603  0.2858464048402354  1.0000
  H   H46       1.0  0.9024592168462391  0.9730081363600009  0.7141469185723535  1.0000
  H   H47       1.0  0.9171521680353647  0.292598831389661  0.23462051656260752  1.0000
  H   H48       1.0  0.08284912778745482  0.7073993968936563  0.7653824986097817  1.0000
  H   H49       1.0  0.8585548503029372  0.14041846368316158  0.28103755739822134  1.0000
  H   H50       1.0  0.14144763307692904  0.8595788247658901  0.7189686762526507  1.0000
  H   H51       1.0  0.3477818983975495  0.009905310298179898  0.4733731002656115  1.0000
  H   H52       1.0  0.6522213052865382  0.9901023380515424  0.5266214787562192  1.0000
  H   H53       1.0  0.7526861493417556  0.538808920157436  0.7479858845331435  1.0000
  H   H54       1.0  0.24730589371866074  0.4611958584314023  0.25201959854044276  1.0000
  H   H55       1.0  0.9288169229110393  0.46816094437717487  0.6900814057101955  1.0000
  H   H56       1.0  0.0711806705213718  0.5318466779147782  0.3099204447859094  1.0000
  C   C1        1.0  0.91467525868908  0.7038448724226852  0.49993798386358873  1.0000
  C   C2        1.0  0.08532013944338959  0.2961599232190935  0.5000617046592027  1.0000
  C   C3        1.0  0.7099422028274703  0.9761594959129667  0.020368545171955032  1.0000
  C   C4        1.0  0.2900522198319421  0.023840592453382204  0.9796325776306746  1.0000
  C   C5        1.0  0.5299612071917608  0.08031638002557172  0.11904159309785464  1.0000
  C   C6        1.0  0.47003314477299085  0.919685590710678  0.8809579787853395  1.0000
  C   C7        1.0  0.7761737633721922  0.5981617607144971  0.46974246211626536  1.0000
  C   C8        1.0  0.22382409586892046  0.40183739761033627  0.5302596068712474  1.0000
  C   C9        1.0  0.8947644761983612  0.7740733036430073  0.3817946583891397  1.0000
  C   C10       1.0  0.1052333185030676  0.22592773626379165  0.6182066550490576  1.0000
  C   C11       1.0  0.734040080647297  0.3826263295819317  0.7089875757216008  1.0000
  C   C12       1.0  0.2659587402619579  0.6173784744455161  0.2910150673217944  1.0000
  C   C13       1.0  0.5793674667595639  0.973113856801518  0.2075908597010854  1.0000
  C   C14       1.0  0.4206246253655479  0.0268871688665158  0.79240579465948  1.0000
  C   C15       1.0  0.7012945687539797  0.5035397193891882  0.26226991888930234  1.0000
  C   C16       1.0  0.2987056210214405  0.4964585016339528  0.737736618540275  1.0000
  C   C17       1.0  0.708721280588115  0.2890213282296443  0.8447856836755322  1.0000
  C   C18       1.0  0.2912789429521183  0.7109750151511918  0.15521763245271805  1.0000
  C   C19       1.0  0.0015261125098718002  0.7459282509292819  0.5419809777034957  1.0000
  C   C20       1.0  0.9984761464760511  0.2540746862053354  0.45801901244880844  1.0000
  C   C21       1.0  0.9606262829936726  0.8916637132711005  0.3024375918378081  1.0000
  C   C22       1.0  0.0393714471680653  0.10833920821767148  0.6975629660510664  1.0000
  C   C23       1.0  0.0026753034684432  0.2548421634975071  0.02040817132088079  1.0000
  C   C24       1.0  0.9973261475486268  0.7451513616188239  0.9795959373546664  1.0000
  C   C25       1.0  0.6204621597285964  0.1766386342317503  0.8784964193775764  1.0000
  C   C26       1.0  0.3795390284697077  0.8233614811490713  0.1215002726546074  1.0000
  C   C27       1.0  0.3493239368515119  0.1319758781766609  0.284764114392516  1.0000
  C   C28       1.0  0.6506839185811657  0.8680280234429032  0.7152306126212339  1.0000
  C   C29       1.0  0.8430991415383033  0.2772991864831483  0.10168119243357408  1.0000
  C   C30       1.0  0.1568988329772836  0.7226971471049382  0.8983243959882828  1.0000
  C   C31       1.0  0.6195307879346359  0.4069413135690638  0.2583810784546401  1.0000
  C   C32       1.0  0.38047055862295315  0.5930559715594725  0.7416247006027845  1.0000
  C   C33       1.0  0.6743727062568325  0.2710430145282174  0.3181637848970667  1.0000
  C   C34       1.0  0.3256286341457866  0.7289542713882539  0.6818411987902379  1.0000
  C   C35       1.0  0.7939875064788708  0.41615691024755824  0.042518510199961626  1.0000
  C   C36       1.0  0.20601860859673587  0.5838328665627586  0.957487337207759  1.0000
  C   C37       1.0  0.4126268377556883  0.160398573762393  0.155750541282643  1.0000
  C   C38       1.0  0.587373181350486  0.8396024790888962  0.8442453183814395  1.0000
  C   C39       1.0  0.06606619397727087  0.8632996571937567  0.4618641490528077  1.0000
  C   C40       1.0  0.933937138786199  0.1367042279920199  0.5381319410676539  1.0000
  C   C41       1.0  0.6332587123019664  0.4407940384382841  0.12117666970236479  1.0000
  C   C42       1.0  0.366743746457999  0.5592032531624938  0.8788263824680058  1.0000
  C   C43       1.0  0.5148028432814655  0.9462546735533831  0.3367293856406023  1.0000
  C   C44       1.0  0.4851916116477994  0.053744474021975505  0.6632721149366888  1.0000
  C   C45       1.0  0.045660209761578606  0.9351751405980478  0.3446676567916924  1.0000
  C   C46       1.0  0.9543363850728499  0.0648268407188866  0.6553288474277607  1.0000
  C   C47       1.0  0.830998277023255  0.24103217839885352  0.23771767103317398  1.0000
  C   C48       1.0  0.16900305106941  0.7589651090934809  0.7622857219138764  1.0000
  C   C49       1.0  0.4005085573040006  0.0277981418168451  0.37345250720633777  1.0000
  C   C50       1.0  0.5994912989579859  0.9722085518406872  0.6265450626604334  1.0000
  C   C51       1.0  0.8168258291071737  0.4957852714742045  0.6801742572124853  1.0000
  C   C52       1.0  0.18316732000064212  0.5042195143748174  0.3198277036039201  1.0000
  N   N1        1.0  0.6162884445641481  0.0788430164445231  0.0014821803556302525  1.0000
  N   N2        1.0  0.3837094100169622  0.9211552058169231  0.9985154941857743  1.0000
  N   N3        1.0  0.8084220058498985  0.7043539495056306  0.3656033401828508  1.0000
  N   N4        1.0  0.1915780302262391  0.2956480378331818  0.6343985046675799  1.0000
  N   N5        1.0  0.836790110736942  0.5932532840621789  0.55336880719441  1.0000
  N   N6        1.0  0.1632030383708738  0.4067515017868432  0.4466331536219884  1.0000
  N   N7        1.0  0.6909278269474441  0.9089530638191973  0.14235934394537245  1.0000
  N   N8        1.0  0.3090643604922434  0.0910460763272027  0.8576420428151437  1.0000
  O   O1        1.0  0.6402131314502668  0.6169202505026946  0.23292800584652418  1.0000
  O   O2        1.0  0.3597870644801304  0.3830779697325114  0.767079326953173  1.0000
  O   O3        1.0  0.014007868462407199  0.2619168196386426  0.9105654135249638  1.0000
  O   O4        1.0  0.9859908755972028  0.7380898675466411  0.08943488322886144  1.0000
  O   O5        1.0  0.11348009538430398  0.23382943962125322  0.056252179866198994  1.0000
  O   O6        1.0  0.8865237275818245  0.7661603329118308  0.9437503722442384  1.0000
  O   O7        1.0  0.8186064886303868  0.4767950787306531  0.2902202555071299  1.0000
  O   O8        1.0  0.1813948456172483  0.5232022079737461  0.7097839328100477  1.0000
