data_image0
_chemical_formula_structural       Cu4H28C24N12Cl4O4
_chemical_formula_sum              "Cu4 H28 C24 N12 Cl4 O4"
_cell_length_a       6.0236045778067115
_cell_length_b       6.776138039418909
_cell_length_c       18.40249536088718
_cell_angle_alpha    90.00369305170149
_cell_angle_beta     90.00117786359448
_cell_angle_gamma    93.6763203483035

_space_group_name_H-M_alt    "P 1"
_space_group_IT_number       1

loop_
  _space_group_symop_operation_xyz
  'x, y, z'

loop_
  _atom_site_type_symbol
  _atom_site_label
  _atom_site_symmetry_multiplicity
  _atom_site_fract_x
  _atom_site_fract_y
  _atom_site_fract_z
  _atom_site_occupancy
  Cu  Cu1       1.0  0.9289266409049404  0.33783187228634415  0.44777676896495666  1.0000
  Cu  Cu2       1.0  0.0710949843435742  0.16216875118967516  0.9477678682577632  1.0000
  Cu  Cu3       1.0  0.07105647721728299  0.6621587119308076  0.5522302784848421  1.0000
  Cu  Cu4       1.0  0.9289166852177431  0.8378499589739762  0.0522293983775199  1.0000
  H   H1        1.0  0.42001000349361556  0.30131986382898657  0.009105249786131296  1.0000
  H   H2        1.0  0.5799735093716691  0.19862397374874516  0.5090811972929216  1.0000
  H   H3        1.0  0.5799792328202571  0.6986633340314158  0.9909061448235191  1.0000
  H   H4        1.0  0.42000005136960533  0.8013488539378885  0.4909052005168135  1.0000
  H   H5        1.0  0.27591726023104707  0.4928949351414643  0.9853471760221166  1.0000
  H   H6        1.0  0.7241273641860884  0.0070924894876043  0.48532803299452343  1.0000
  H   H7        1.0  0.724099900260853  0.5071075166373048  0.014664762340629502  1.0000
  H   H8        1.0  0.2758652965453905  0.992892189288895  0.5146637990818803  1.0000
  H   H9        1.0  0.0311779690341396  0.29530392842905673  0.08726716578629379  1.0000
  H   H10       1.0  0.968828262462132  0.20470417026061943  0.5872453643584308  1.0000
  H   H11       1.0  0.9688200919895136  0.7046866733885083  0.9127534668285191  1.0000
  H   H12       1.0  0.031152057560014188  0.7952938030282936  0.4127453810423559  1.0000
  H   H13       1.0  0.5255254090876633  0.5033529596937926  0.2613566712711374  1.0000
  H   H14       1.0  0.4745115432845496  0.9967007172217637  0.7613330973631846  1.0000
  H   H15       1.0  0.4744688485067527  0.49670122129385424  0.738658528123622  1.0000
  H   H16       1.0  0.5255106571540296  0.0032644841305539997  0.23866184853629582  1.0000
  H   H17       1.0  0.8731921441513605  0.31473444019432156  0.17912520915377428  1.0000
  H   H18       1.0  0.12681562059241  0.18535487090717603  0.67911403604419  1.0000
  H   H19       1.0  0.12678209888255046  0.6853418986362956  0.8208845564197346  1.0000
  H   H20       1.0  0.8731947797955256  0.8146224334895038  0.32087127514027697  1.0000
  H   H21       1.0  0.7529839516516856  0.2617647301884957  0.3064606386481543  1.0000
  H   H22       1.0  0.24704398019304108  0.2382857906114566  0.8064636317159141  1.0000
  H   H23       1.0  0.24703384948777793  0.7382702525942831  0.693539345245341  1.0000
  H   H24       1.0  0.7529727340937598  0.7616634258097791  0.1935243961423438  1.0000
  H   H25       1.0  0.37434500128099296  0.4488953554228559  0.3873562877802214  1.0000
  H   H26       1.0  0.6256892850367277  0.05110302634115269  0.8873384344056843  1.0000
  H   H27       1.0  0.6256601186753484  0.551101167754581  0.612649129608755  1.0000
  H   H28       1.0  0.3743269198822077  0.9488624556195904  0.11265557111558168  1.0000
  C   C1        1.0  0.3167758767128319  0.43578580712968323  0.13547431838140508  1.0000
  C   C2        1.0  0.6832240733434177  0.06425512099122702  0.6354582881516605  1.0000
  C   C3        1.0  0.6831929535056387  0.5642609515506223  0.8645316429516966  1.0000
  C   C4        1.0  0.3167688876822865  0.93571033493199  0.3645313700539816  1.0000
  C   C5        1.0  0.21550791278576745  0.41132719541072044  0.20953752143012846  1.0000
  C   C6        1.0  0.7845197071252555  0.08871080311913457  0.7095179319709786  1.0000
  C   C7        1.0  0.7844875865666338  0.5887210720030254  0.7904755042725851  1.0000
  C   C8        1.0  0.2154842614906798  0.9112694517287494  0.29046955284886866  1.0000
  C   C9        1.0  0.3528478605246903  0.4510122279711055  0.2697830573444548  1.0000
  C   C10       1.0  0.6471665621323623  0.0490205897931588  0.7697663810030448  1.0000
  C   C11       1.0  0.6471335196373573  0.5490241938578321  0.7302245341085438  1.0000
  C   C12       1.0  0.352845394296537  0.9509552384545044  0.23022925485398096  1.0000
  C   C13       1.0  0.9934246531786356  0.3458177040585895  0.2226765142371221  1.0000
  C   C14       1.0  0.006593200117080803  0.15423501992950153  0.7226681810690108  1.0000
  C   C15       1.0  0.006564461150254904  0.6542343205989171  0.77732714586147  1.0000
  C   C16       1.0  0.9934249346786076  0.8457578878166601  0.27731971961585333  1.0000
  C   C17       1.0  0.9219036530973312  0.31904572664213765  0.2938767166611242  1.0000
  C   C18       1.0  0.07810975282374949  0.18099833212995967  0.7938748804533019  1.0000
  C   C19       1.0  0.0780901721402216  0.6809788789622856  0.7061254406325473  1.0000
  C   C20       1.0  0.9219070796373074  0.8189760224666642  0.2061164081642772  1.0000
  C   C21       1.0  0.269761593240176  0.42176613404591023  0.3395126074441848  1.0000
  C   C22       1.0  0.7302737339919787  0.0782423533880134  0.8394983520887889  1.0000
  C   C23       1.0  0.7302409384927485  0.5782407372534665  0.6604944402861931  1.0000
  C   C24       1.0  0.2697419613181822  0.9217393935913308  0.16049511024069568  1.0000
  N   N1        1.0  0.2626908285627252  0.35380218253540363  0.008248459904656598  1.0000
  N   N2        1.0  0.7373124667517954  0.14618738015878563  0.5082316975072273  1.0000
  N   N3        1.0  0.7373045391486175  0.6461972875534346  0.991760761322105  1.0000
  N   N4        1.0  0.26265455783122593  0.8537869196477459  0.49176285136826436  1.0000
  N   N5        1.0  0.1860049393991901  0.36521115023879247  0.0803597666635696  1.0000
  N   N6        1.0  0.8140265225980201  0.1348077028796695  0.5803383328317224  1.0000
  N   N7        1.0  0.8140262354752253  0.6348016678818597  0.9196521718833779  1.0000
  N   N8        1.0  0.18596676573580598  0.8651858486629324  0.4196524125546972  1.0000
  N   N9        1.0  0.056113004335116984  0.3561091864506167  0.352185385767079  1.0000
  N   N10       1.0  0.9439271943609027  0.1438865439505506  0.8521813740681023  1.0000
  N   N11       1.0  0.9438915013250692  0.6439021227629596  0.6478173147919861  1.0000
  N   N12       1.0  0.05608787336698378  0.8560863303061054  0.14781371835593393  1.0000
  Cl  Cl1       1.0  0.7436804163845351  0.642876598416848  0.4647371037767556  1.0000
  Cl  Cl2       1.0  0.25629774425352986  0.8570959208709397  0.9647373170718223  1.0000
  Cl  Cl3       1.0  0.25630653177930895  0.3570977242346912  0.5352677698532986  1.0000
  Cl  Cl4       1.0  0.7436944073710592  0.1429050240094014  0.03526755692696069  1.0000
  O   O1        1.0  0.5087781818688127  0.5111607452424566  0.12636306840489198  1.0000
  O   O2        1.0  0.4912686465623537  0.9888849820382716  0.6263498731045374  1.0000
  O   O3        1.0  0.49123227290827026  0.48891119688094886  0.8736385461648339  1.0000
  O   O4        1.0  0.5087460939377166  0.011059796772627802  0.3736463057569921  1.0000
