data_image0
_chemical_formula_structural       Zn2H52C60N12O16
_chemical_formula_sum              "Zn2 H52 C60 N12 O16"
_cell_length_a       10.356526283911746
_cell_length_b       11.774249530608197
_cell_length_c       12.97384405005282
_cell_angle_alpha    75.98309130834244
_cell_angle_beta     88.00801961259323
_cell_angle_gamma    69.5865466871815

_space_group_name_H-M_alt    "P 1"
_space_group_IT_number       1

loop_
  _space_group_symop_operation_xyz
  'x, y, z'

loop_
  _atom_site_type_symbol
  _atom_site_label
  _atom_site_symmetry_multiplicity
  _atom_site_fract_x
  _atom_site_fract_y
  _atom_site_fract_z
  _atom_site_occupancy
  Zn  Zn1       1.0  0.4999964090333792  0.9999998793178686  0.4999981924961575  1.0000
  Zn  Zn2       1.0  3.6740232758000003e-06  2.8964313613999987e-06  2.3210763516000004e-06  1.0000
  H   H1        1.0  0.817265134200845  0.09669892458278892  0.1489096712605402  1.0000
  H   H2        1.0  0.18273225723203976  0.9033104165505746  0.8510847902120916  1.0000
  H   H3        1.0  0.9163670015612124  0.9502422569395248  0.18524225174830639  1.0000
  H   H4        1.0  0.08363350861441889  0.04977116427052409  0.814761970180527  1.0000
  H   H5        1.0  0.6983010550307822  0.9186547502649772  0.35376276582728394  1.0000
  H   H6        1.0  0.3016999427671506  0.08134789829770028  0.6462285954490101  1.0000
  H   H7        1.0  0.6145668995530257  0.06591136050990089  0.3320072607178873  1.0000
  H   H8        1.0  0.38543269089463905  0.9340896708213646  0.6679922250684244  1.0000
  H   H9        1.0  0.6809462837287228  0.6211471318962365  0.38055924226976867  1.0000
  H   H10       1.0  0.3190458807202673  0.3788482062166735  0.6194386634953519  1.0000
  H   H11       1.0  0.47503551681405276  0.7262579163659381  0.06800217286466653  1.0000
  H   H12       1.0  0.5249643218310566  0.2737476354443444  0.9319916026963144  1.0000
  H   H13       1.0  0.04242947791837539  0.1173100292500848  0.47222069601564703  1.0000
  H   H14       1.0  0.9575759879300277  0.8826882414838831  0.5277808754749246  1.0000
  H   H15       1.0  0.24046926711536534  0.7141095282984721  0.3066582298736052  1.0000
  H   H16       1.0  0.7595245924438743  0.2858706506040747  0.6933656220437288  1.0000
  H   H17       1.0  0.819051388000979  0.13043151002150208  0.3902885591239739  1.0000
  H   H18       1.0  0.18095624024883955  0.8695611535059978  0.6097143080602551  1.0000
  H   H19       1.0  0.8368249084816738  0.6548140274032974  0.16487152376958392  1.0000
  H   H20       1.0  0.1631757655293882  0.3451868530981769  0.8351233501777813  1.0000
  H   H21       1.0  0.008338521581499853  0.4385936049990136  0.17964906703880956  1.0000
  H   H22       1.0  0.9916578256855999  0.5614056872718789  0.8203547528764478  1.0000
  H   H23       1.0  0.6247426826380007  0.3361869363789082  0.3457901613572787  1.0000
  H   H24       1.0  0.3752577069838026  0.6638019763690861  0.6542129718648513  1.0000
  H   H25       1.0  0.8909421393159389  0.49520795923112343  0.46140921221387293  1.0000
  H   H26       1.0  0.10905464866620922  0.5047929516344282  0.5385865018330379  1.0000
  H   H27       1.0  0.5095026196847953  0.0524819259038054  0.1656478658059299  1.0000
  H   H28       1.0  0.49051303118297757  0.9475178501479888  0.8343423512681056  1.0000
  H   H29       1.0  0.9263372131723456  0.2719432871852661  0.1487182464291052  1.0000
  H   H30       1.0  0.07365844990765415  0.7280551715588286  0.8512888702082793  1.0000
  H   H31       1.0  0.10720178549077262  0.9409261051463459  0.3015786706432238  1.0000
  H   H32       1.0  0.8927976741091751  0.059060106369273085  0.6984282098405787  1.0000
  H   H33       1.0  0.22685444942447935  0.05915920458799918  0.37782545495299763  1.0000
  H   H34       1.0  0.773144769066107  0.9408304447689204  0.6221713566988073  1.0000
  H   H35       1.0  0.5246211565431833  0.5200747441331188  0.08631114587528542  1.0000
  H   H36       1.0  0.47537695332747637  0.47993007515798053  0.9136890071810131  1.0000
  H   H37       1.0  0.29157453566035235  0.23840932107935225  0.11577380485656624  1.0000
  H   H38       1.0  0.7084397273451867  0.7615888128299348  0.8842237711946056  1.0000
  H   H39       1.0  0.08632954005125978  0.21133829251473193  0.03963112963059253  1.0000
  H   H40       1.0  0.9136781753448203  0.78866393510372  0.9603763932934444  1.0000
  H   H41       1.0  0.5818524405816133  0.7509671257349735  0.45896349871058123  1.0000
  H   H42       1.0  0.41815623461823737  0.24902808955835093  0.5410310280146932  1.0000
  H   H43       1.0  0.17836505012892448  0.3637036646753771  0.4077898448846257  1.0000
  H   H44       1.0  0.8216160425587301  0.6363028724821261  0.5922048344519554  1.0000
  H   H45       1.0  0.2588163850120039  0.6154527819447181  0.061112976532406535  1.0000
  H   H46       1.0  0.7411906485596659  0.3845512649203755  0.9388925834279862  1.0000
  H   H47       1.0  0.032206509863044616  0.5916722433348552  0.34323531729972967  1.0000
  H   H48       1.0  0.9677764210175963  0.4083370684250481  0.6567578927321379  1.0000
  H   H49       1.0  0.4122257109226409  0.39024883459262577  0.12963700830729866  1.0000
  H   H50       1.0  0.5877705022909439  0.6097532848293455  0.8703669106523435  1.0000
  H   H51       1.0  0.2935890746878014  0.8377278376472289  0.06572801895489286  1.0000
  H   H52       1.0  0.7064138854842951  0.16227429714309943  0.9342765350459604  1.0000
  C   C1        1.0  0.9560910191104239  0.20596250406516248  0.45009472022685065  1.0000
  C   C2        1.0  0.04391482662624919  0.7940348072233048  0.5499063016797835  1.0000
  C   C3        1.0  0.28713145892859154  0.7712135954025782  0.3352702462589719  1.0000
  C   C4        1.0  0.7128647013893994  0.22877360455937884  0.6647380052666494  1.0000
  C   C5        1.0  0.8317875856133982  0.2132247651024598  0.4054903348428881  1.0000
  C   C6        1.0  0.16821684079460658  0.7867687623159224  0.5945100757187591  1.0000
  C   C7        1.0  0.8057898488222077  0.5807628426158755  0.14976389094098153  1.0000
  C   C8        1.0  0.19420998746020493  0.4192400564209676  0.8502351443057705  1.0000
  C   C9        1.0  0.9001242836209328  0.46018121364900083  0.15818417181828448  1.0000
  C   C10       1.0  0.09987558927484488  0.5398189827922194  0.8418185920484831  1.0000
  C   C11       1.0  0.7224203108377977  0.327273110031676  0.38113960595114804  1.0000
  C   C12       1.0  0.2775825037239485  0.6727195354009721  0.6188625889085345  1.0000
  C   C13       1.0  0.8730090585967005  0.4145138893148398  0.44544989170049837  1.0000
  C   C14       1.0  0.12698725720397863  0.585483261228468  0.5545459578926427  1.0000
  C   C15       1.0  0.41928837782310785  0.0448869845778717  0.1313542992916439  1.0000
  C   C16       1.0  0.5807251472566222  0.9551156960847674  0.86863835070875  1.0000
  C   C17       1.0  0.8548894220017614  0.36738987911456883  0.14093070151556472  1.0000
  C   C18       1.0  0.14510997871254006  0.6326065570044078  0.859072197897433  1.0000
  C   C19       1.0  0.2134660943190737  0.8956167341405955  0.33423423627557014  1.0000
  C   C20       1.0  0.7865256345618049  0.10437214105444778  0.6657675336557958  1.0000
  C   C21       1.0  0.5547620057787767  0.8198987598662626  0.14644853563648044  1.0000
  C   C22       1.0  0.4452427782452233  0.1801013301143541  0.85355107289044  1.0000
  C   C23       1.0  0.503242558902045  0.5830198164897167  0.3783630253499056  1.0000
  C   C24       1.0  0.4967581911199941  0.4169681617238651  0.6216403238211613  1.0000
  C   C25       1.0  0.27820826929035997  0.9615844659093112  0.3761806074707864  1.0000
  C   C26       1.0  0.7217908267035538  0.03842032710745259  0.6238187614109594  1.0000
  C   C27       1.0  0.6324056946972831  0.5035121719593362  0.10668129005151171  1.0000
  C   C28       1.0  0.3675890430862481  0.4964888910992683  0.8933190544760097  1.0000
  C   C29       1.0  0.7432901457971326  0.43094251371520176  0.40234292726110255  1.0000
  C   C30       1.0  0.2567103189925389  0.5690537964850718  0.5976561258458305  1.0000
  C   C31       1.0  0.2979421170775964  0.14801976789220106  0.10429628630176073  1.0000
  C   C32       1.0  0.7020696426143329  0.8519848828468783  0.8956990125739281  1.0000
  C   C33       1.0  0.18384207800483668  0.13386642802039012  0.06281190461113789  1.0000
  C   C34       1.0  0.8161662487731717  0.8661318884460268  0.93719114202019  1.0000
  C   C35       1.0  0.42421957519354697  0.717099830467326  0.3757103917249865  1.0000
  C   C36       1.0  0.5757804683691106  0.282894836227193  0.6242960017174186  1.0000
  C   C37       1.0  0.4236890377396774  0.9302129491045433  0.11555121029881125  1.0000
  C   C38       1.0  0.576321283135556  0.06978794267553917  0.8844442427647721  1.0000
  C   C39       1.0  0.05521475461839727  0.7537668529863097  0.16232666157387143  1.0000
  C   C40       1.0  0.9447879008333117  0.24624363870179872  0.8376743618957364  1.0000
  C   C41       1.0  0.6677456186433729  0.6029925088888958  0.12298217695355627  1.0000
  C   C42       1.0  0.3322539912923189  0.3970084975312814  0.877016543299874  1.0000
  C   C43       1.0  0.47960502032305624  0.7890603639079073  0.41858007654106905  1.0000
  C   C44       1.0  0.5203916220487413  0.21093105759997133  0.5814132783646714  1.0000
  C   C45       1.0  0.3056988648273703  0.36517428487137227  0.2731817820239614  1.0000
  C   C46       1.0  0.6942921571725762  0.6348314286746939  0.7268167545092936  1.0000
  C   C47       1.0  0.40486255745597066  0.234523586244535  0.31690616487101414  1.0000
  C   C48       1.0  0.5951311186148799  0.7654802555062119  0.6830927662767935  1.0000
  C   C49       1.0  0.19708435012876885  0.42041800378556343  0.3329776655585449  1.0000
  C   C50       1.0  0.8029036768880571  0.5795904911791465  0.667019494878332  1.0000
  C   C51       1.0  0.2434489338706243  0.5598504002450893  0.13760735553007217  1.0000
  C   C52       1.0  0.7565542355228628  0.44015630484643237  0.8623930193112131  1.0000
  C   C53       1.0  0.13785880739000334  0.6165258126936023  0.19903946505730372  1.0000
  C   C54       1.0  0.8621377296104525  0.38347807478958623  0.8009609412312673  1.0000
  C   C55       1.0  0.11448528562116424  0.5456466004035432  0.29652976672441883  1.0000
  C   C56       1.0  0.8855081274896078  0.454358051326153  0.7034651208100514  1.0000
  C   C57       1.0  0.3268141847552927  0.43526288865413665  0.17456810691493985  1.0000
  C   C58       1.0  0.673183659792592  0.5647400878424803  0.8254332622137927  1.0000
  C   C59       1.0  0.30323618852540324  0.9242248418989831  0.07520622082022758  1.0000
  C   C60       1.0  0.6967648017628888  0.07577999821346279  0.9247946418439457  1.0000
  N   N1        1.0  0.6438777989713671  0.5513960080203476  0.38230599524811754  1.0000
  N   N2        1.0  0.35612086660137976  0.44859747775533515  0.6176929960977732  1.0000
  N   N3        1.0  0.9773527052986208  0.3053903283307021  0.4694780559646787  1.0000
  N   N4        1.0  0.022646943613132544  0.6946106282672914  0.5305191332229953  1.0000
  N   N5        1.0  0.7225351813978733  0.38825028293295816  0.11519226248874052  1.0000
  N   N6        1.0  0.27745972426829013  0.6117527474755844  0.8848106936307475  1.0000
  N   N7        1.0  0.1862579175436281  0.023368872770035395  0.049574523882299104  1.0000
  N   N8        1.0  0.8137515827282938  0.9766313598608888  0.9504295846335612  1.0000
  N   N9        1.0  0.4081616949471964  0.9081082488998501  0.4192079632534913  1.0000
  N   N10       1.0  0.5918371408708791  0.09188985699921658  0.5807883799985875  1.0000
  N   N11       1.0  0.5606763372789699  0.7190247549889719  0.10877870345872512  1.0000
  N   N12       1.0  0.43932897739058757  0.2809790205806166  0.8912184729233275  1.0000
  O   O1        1.0  0.4439952336761054  0.5085189692689837  0.3775191666006066  1.0000
  O   O2        1.0  0.556001744460957  0.49147638693877843  0.6224794114890599  1.0000
  O   O3        1.0  0.6490153035241021  0.821462088042402  0.2016233048336247  1.0000
  O   O4        1.0  0.3509843991263466  0.17853348827544113  0.7983821071269548  1.0000
  O   O5        1.0  0.9658359211541878  0.8041444738539028  0.22210251350075794  1.0000
  O   O6        1.0  0.034172003463275806  0.19586232406575013  0.777900830263711  1.0000
  O   O7        1.0  0.5102650104506948  0.19411773401953514  0.2647777587270426  1.0000
  O   O8        1.0  0.48972803989714486  0.8058851994711342  0.7352221725442548  1.0000
  O   O9        1.0  0.9119259842359638  0.039823573359377896  0.15050226243650403  1.0000
  O   O10       1.0  0.08806874561637548  0.9601898311190737  0.8495013058094543  1.0000
  O   O11       1.0  0.6709943049665625  0.987992329544646  0.3880247090161363  1.0000
  O   O12       1.0  0.32900585788696896  0.012004840456761196  0.6119718315432223  1.0000
  O   O13       1.0  0.37656853034149407  0.17424121243659837  0.4055648276304923  1.0000
  O   O14       1.0  0.6234246489129234  0.8257637382262003  0.594439246298535  1.0000
  O   O15       1.0  0.08531811393332592  0.8107459264294191  0.07199262868313386  1.0000
  O   O16       1.0  0.9146879943418824  0.18926072475018424  0.9280061591673886  1.0000
