data_image0
_chemical_formula_structural       Cd4H24C48N40Cl8
_chemical_formula_sum              "Cd4 H24 C48 N40 Cl8"
_cell_length_a       9.430046957005192
_cell_length_b       11.152507229943255
_cell_length_c       15.630249143107871
_cell_angle_alpha    108.22285563298713
_cell_angle_beta     89.99995703112377
_cell_angle_gamma    89.99990712940784

_space_group_name_H-M_alt    "P 1"
_space_group_IT_number       1

loop_
  _space_group_symop_operation_xyz
  'x, y, z'

loop_
  _atom_site_type_symbol
  _atom_site_label
  _atom_site_symmetry_multiplicity
  _atom_site_fract_x
  _atom_site_fract_y
  _atom_site_fract_z
  _atom_site_occupancy
  Cd  Cd1       1.0  0.6225084671882755  0.5762011224190644  0.1251432072388852  1.0000
  Cd  Cd2       1.0  0.12251046999617189  0.9237987518477764  0.3748563751281465  1.0000
  Cd  Cd3       1.0  0.3774902800093826  0.42379782230786117  0.8748558370839061  1.0000
  Cd  Cd4       1.0  0.8774925189580286  0.07620302029528149  0.6251445842939986  1.0000
  H   H1        1.0  0.8271471542255143  0.18452707738588003  0.3134454465990188  1.0000
  H   H2        1.0  0.3271464162261281  0.3154708792142102  0.1865539073193361  1.0000
  H   H3        1.0  0.1728537138513246  0.8154728113400296  0.6865538099086449  1.0000
  H   H4        1.0  0.6728480892114987  0.6845280678077471  0.8134444977333215  1.0000
  H   H5        1.0  0.8625136207128891  0.4175790681248727  0.39220761623452194  1.0000
  H   H6        1.0  0.3625123652876496  0.08241883137139179  0.1077904293361982  1.0000
  H   H7        1.0  0.1374883078034159  0.5824217668922671  0.6077912131865374  1.0000
  H   H8        1.0  0.6374863819089711  0.9175810573563652  0.8922088271723538  1.0000
  H   H9        1.0  0.7715118553108624  0.5698013481818832  0.3151404503240655  1.0000
  H   H10       1.0  0.2715130210641874  0.9301954341883345  0.18485836991796836  1.0000
  H   H11       1.0  0.2284858314442246  0.4301994822562989  0.6848596576426188  1.0000
  H   H12       1.0  0.7284889074523593  0.06980445224532159  0.8151415258611718  1.0000
  H   H13       1.0  0.018533243901046603  0.6479365136008325  0.8212484395319563  1.0000
  H   H14       1.0  0.5185348892261105  0.8520636838348069  0.6787517037858136  1.0000
  H   H15       1.0  0.981465503293755  0.3520643145450961  0.17875230770620476  1.0000
  H   H16       1.0  0.48146385797115687  0.1479352586007892  0.3212479798089021  1.0000
  H   H17       1.0  0.8891770591520254  0.4413460035335817  0.7871697893362891  1.0000
  H   H18       1.0  0.38917996064393634  0.05865481639332871  0.7128312614645864  1.0000
  H   H19       1.0  0.1108216880438135  0.5586538806115158  0.21283074571611849  1.0000
  H   H20       1.0  0.6108219678722193  0.9413450677489907  0.2871692735864785  1.0000
  H   H21       1.0  0.7545859671406348  0.39609805759768335  0.9112240529992517  1.0000
  H   H22       1.0  0.25458469424398084  0.10390299708949162  0.5887771112259158  1.0000
  H   H23       1.0  0.24541490093398727  0.6039027682550612  0.08877733350994531  1.0000
  H   H24       1.0  0.7454161738303994  0.8960987773467437  0.4112232089251933  1.0000
  C   C1        1.0  0.5955407296659202  0.27892006633466326  0.07548734541345678  1.0000
  C   C2        1.0  0.09553775607728449  0.22107735253069183  0.42451135222741226  1.0000
  C   C3        1.0  0.4044601384109185  0.7210798223912464  0.9245119110942068  1.0000
  C   C4        1.0  0.9044609911203807  0.7789215921962341  0.5754876920953861  1.0000
  C   C5        1.0  0.7194435966199677  0.21412076424806503  0.2003989477555591  1.0000
  C   C6        1.0  0.21943959366468843  0.28587643163020005  0.2996015632861456  1.0000
  C   C7        1.0  0.28055727145544307  0.7858800661873462  0.7996011602097892  1.0000
  C   C8        1.0  0.7805602139735655  0.7141206159288201  0.7003996137523671  1.0000
  C   C9        1.0  0.671541333232838  0.3052077845376147  0.16147182869688234  1.0000
  C   C10       1.0  0.17153957694632993  0.19478950634748318  0.3385255263524271  1.0000
  C   C11       1.0  0.3284584744034973  0.694792101897889  0.8385280670831461  1.0000
  C   C12       1.0  0.8284591702513282  0.8052094383794426  0.6614735179703641  1.0000
  C   C13       1.0  0.7891006352578529  0.2548849842003236  0.28377051076319043  1.0000
  C   C14       1.0  0.2890999949055555  0.24511398047071964  0.21622972667535825  1.0000
  C   C15       1.0  0.2109002328185881  0.7451149022342491  0.7162293850163975  1.0000
  C   C16       1.0  0.7109019336109981  0.7548859059629293  0.7837701691037819  1.0000
  C   C17       1.0  0.8083220228949274  0.3832793895545521  0.32741172136726243  1.0000
  C   C18       1.0  0.30832168201573035  0.1167148147117416  0.1725893567598717  1.0000
  C   C19       1.0  0.19167672430130983  0.616720496881875  0.6725881744132138  1.0000
  C   C20       1.0  0.691678125622282  0.8832831814307696  0.8274107539205529  1.0000
  C   C21       1.0  0.7589446955728435  0.4681091797619318  0.2848158605020501  1.0000
  C   C22       1.0  0.2589487057300203  0.0318917369619953  0.21518163035944574  1.0000
  C   C23       1.0  0.2410529911828903  0.5318907043840894  0.715184674550798  1.0000
  C   C24       1.0  0.7410511019075017  0.9681081563474973  0.7848163476048171  1.0000
  C   C25       1.0  0.9012630226837856  0.7364727573426036  0.12653746942156366  1.0000
  C   C26       1.0  0.4012610917223753  0.763528509554412  0.37346485949444025  1.0000
  C   C27       1.0  0.09873784539226452  0.2635271268006392  0.8734630656299414  1.0000
  C   C28       1.0  0.5987387159153885  0.23647043517158287  0.6265341848279036  1.0000
  C   C29       1.0  0.8969609428618244  0.6674471056498064  0.030189774644163943  1.0000
  C   C30       1.0  0.3969598209626212  0.8325522853312892  0.4698108549815814  1.0000
  C   C31       1.0  0.1030388647737297  0.3325527762030304  0.9698113996797132  1.0000
  C   C32       1.0  0.6030421075535343  0.1674475988110302  0.5301896800694834  1.0000
  C   C33       1.0  0.9675071692375995  0.7030318939097953  0.962636893320173  1.0000
  C   C34       1.0  0.4675098329212589  0.7969703363783225  0.5373679830988394  1.0000
  C   C35       1.0  0.032492638395488896  0.2969698736533743  0.037365344647149405  1.0000
  C   C36       1.0  0.532492095589582  0.20303331689332538  0.46263531851104017  1.0000
  C   C37       1.0  0.9647088006965704  0.6213303868162612  0.874194188857814  1.0000
  C   C38       1.0  0.4647143799109302  0.8786652609664501  0.6258034511705616  1.0000
  C   C39       1.0  0.0352867651838693  0.37866572591094894  0.1258042189090318  1.0000
  C   C40       1.0  0.5352939112559554  0.121326131745505  0.3741938956621026  1.0000
  C   C41       1.0  0.8916191471628495  0.5077602784792816  0.8550665165909022  1.0000
  C   C42       1.0  0.391620243861901  0.9922449253435134  0.6449365032506833  1.0000
  C   C43       1.0  0.1083806604661035  0.4922452650872132  0.14493657011947653  1.0000
  C   C44       1.0  0.6083785033236069  0.007764398809889901  0.3550661536593437  1.0000
  C   C45       1.0  0.8174455849990707  0.48200180173391516  0.9245476618172714  1.0000
  C   C46       1.0  0.31744661366499133  0.017995374180848997  0.5754506828750791  1.0000
  C   C47       1.0  0.18255422264179086  0.517994310989593  0.07545074594779075  1.0000
  C   C48       1.0  0.6825606170607517  0.9819969625328612  0.42454687614379333  1.0000
  N   N1        1.0  0.8447594653463855  0.778756801414815  0.2664297285309373  1.0000
  N   N2        1.0  0.3447599095468447  0.7212426829071603  0.2335703058134229  1.0000
  N   N3        1.0  0.1552414027310931  0.2212421410189336  0.733569955062883  1.0000
  N   N4        1.0  0.6552409585295961  0.2787572035274124  0.7664295899661651  1.0000
  N   N5        1.0  0.803448012629744  0.7148615915435244  0.18342572673698498  1.0000
  N   N6        1.0  0.30344717135993443  0.7851379625445533  0.3165749816938046  1.0000
  N   N7        1.0  0.19655285544669707  0.28513829489105547  0.8165741690426029  1.0000
  N   N8        1.0  0.6965536967165064  0.21486192389001954  0.6834249140857763  1.0000
  N   N9        1.0  0.0029768311640765  0.8137611564026913  0.17279830627639112  1.0000
  N   N10       1.0  0.5029775488373431  0.6862370337705456  0.327202230995141  1.0000
  N   N11       1.0  0.997022976472266  0.18623873003281233  0.8272015895036445  1.0000
  N   N12       1.0  0.4970233192397443  0.3137619063718661  0.6727980918706037  1.0000
  N   N13       1.0  0.9642805577136215  0.8375368104774097  0.2590784596934625  1.0000
  N   N14       1.0  0.4642811051216853  0.6624624653732596  0.24092147392809685  1.0000
  N   N15       1.0  0.035720310363856804  0.16246213195633166  0.7409212239003578  1.0000
  N   N16       1.0  0.535719762954365  0.3375374187699833  0.7590790611234082  1.0000
  N   N17       1.0  0.6945209248198339  0.42951598503377403  0.204616190118962  1.0000
  N   N18       1.0  0.19451839913664767  0.070481258896514  0.2953830633810951  1.0000
  N   N19       1.0  0.3054767619362906  0.5704839014035772  0.7953837056619618  1.0000
  N   N20       1.0  0.8054782271797621  0.9295186298330903  0.704616193128352  1.0000
  N   N21       1.0  0.5526619763990723  0.16709704060284034  0.01807148375693401  1.0000
  N   N22       1.0  0.05265977836514679  0.33290139705270144  0.4819274622041262  1.0000
  N   N23       1.0  0.4473388916773687  0.8329028458317395  0.9819284120226469  1.0000
  N   N24       1.0  0.9473389688314809  0.6670984916750555  0.5180717943044328  1.0000
  N   N25       1.0  0.5564114787346169  0.37403864004512133  0.04413042904651831  1.0000
  N   N26       1.0  0.05640864802274591  0.1259597887796815  0.45586915302695263  1.0000
  N   N27       1.0  0.4435904497833646  0.6259603046790331  0.9558686152749301  1.0000
  N   N28       1.0  0.9435911596139873  0.8740400999471517  0.5441301034811586  1.0000
  N   N29       1.0  0.4866903322925538  0.19465056965223237  0.9507716187486748  1.0000
  N   N30       1.0  0.9866911670634266  0.3053491384822705  0.5492284984190475  1.0000
  N   N31       1.0  0.5133094753437817  0.8053493167832714  0.04922827703136084  1.0000
  N   N32       1.0  0.013310761452729  0.6946507456600487  0.45077203663201704  1.0000
  N   N33       1.0  0.4896201999412995  0.3187754137164234  0.9665283574517216  1.0000
  N   N34       1.0  0.9896202310034568  0.1812242893084388  0.5334717572472839  1.0000
  N   N35       1.0  0.5103806681355323  0.681224475009479  0.033470899055942  1.0000
  N   N36       1.0  0.010381697513096802  0.8187755971252103  0.4665281385318564  1.0000
  N   N37       1.0  0.8198766070001824  0.5597754070205099  0.009144185827267413  1.0000
  N   N38       1.0  0.3198752532456623  0.9402278852509129  0.4908599145897838  1.0000
  N   N39       1.0  0.18012426107119242  0.44022729995990056  0.9908595428692235  1.0000
  N   N40       1.0  0.6801234939403358  0.05977954173550869  0.5091448750364123  1.0000
  Cl  Cl1       1.0  0.6941734923210704  0.0552436677737518  0.1493692757174898  1.0000
  Cl  Cl2       1.0  0.1941733642454295  0.444753574469118  0.3506306173462689  1.0000
  Cl  Cl3       1.0  0.30582525487515966  0.9447562186626753  0.8506306200629865  1.0000
  Cl  Cl4       1.0  0.8058232620716198  0.5552453679683325  0.649369066249342  1.0000
  Cl  Cl5       1.0  0.05327297132227931  0.8454819088603288  0.9853087086690236  1.0000
  Cl  Cl6       1.0  0.5532720162653887  0.6545191696933087  0.5146922568316865  1.0000
  Cl  Cl7       1.0  0.9467278967523427  0.15451891699241574  0.014692677840173507  1.0000
  Cl  Cl8       1.0  0.4467267309273525  0.34548354645428253  0.4853089147780024  1.0000
