data_image0
_chemical_formula_structural       Zn4H44C60S4N12O20
_chemical_formula_sum              "Zn4 H44 C60 S4 N12 O20"
_cell_length_a       8.554671213674741
_cell_length_b       13.426404555825469
_cell_length_c       13.663771770046324
_cell_angle_alpha    90.00027437640779
_cell_angle_beta     89.99982481006602
_cell_angle_gamma    102.17677900120378

_space_group_name_H-M_alt    "P 1"
_space_group_IT_number       1

loop_
  _space_group_symop_operation_xyz
  'x, y, z'

loop_
  _atom_site_type_symbol
  _atom_site_label
  _atom_site_symmetry_multiplicity
  _atom_site_fract_x
  _atom_site_fract_y
  _atom_site_fract_z
  _atom_site_occupancy
  Zn  Zn1       1.0  0.5828620136430229  0.014302807316859399  0.890048005146639  1.0000
  Zn  Zn2       1.0  0.9171378677681897  0.985696331015916  0.3900474804846894  1.0000
  Zn  Zn3       1.0  0.4171404653877033  0.9856978048653103  0.10995253321036103  1.0000
  Zn  Zn4       1.0  0.08286085994100027  0.014303479402919098  0.609953789736366  1.0000
  H   H1        1.0  0.8598269095599418  0.04995393012801229  0.9925114783556594  1.0000
  H   H2        1.0  0.6401726227339992  0.9500456589093104  0.4925105859065369  1.0000
  H   H3        1.0  0.14017533769248308  0.9500459202268131  0.007489059999763001  1.0000
  H   H4        1.0  0.35982656853179407  0.0499556751642203  0.5074906843176734  1.0000
  H   H5        1.0  0.8899934261230269  0.9935371407735828  0.8962547507649816  1.0000
  H   H6        1.0  0.6100080708757076  0.006463561830386799  0.39625531576571404  1.0000
  H   H7        1.0  0.11000858934985297  0.0064619477555040985  0.1037465194512066  1.0000
  H   H8        1.0  0.38999135216713654  0.9935385340720941  0.6037466863224098  1.0000
  H   H9        1.0  0.5425534495807441  0.7681541646286261  0.5277084377508388  1.0000
  H   H10       1.0  0.9574406273252335  0.23184330000851358  0.027707935359146105  1.0000
  H   H11       1.0  0.4574405854045551  0.23184559254168136  0.47229356433693687  1.0000
  H   H12       1.0  0.04255763683234901  0.7681549867491881  0.9722904074093961  1.0000
  H   H13       1.0  0.5902629270980384  0.5946889569271859  0.48730259435151874  1.0000
  H   H14       1.0  0.9097286567521436  0.40530748200617944  0.9872984820316263  1.0000
  H   H15       1.0  0.40973345424609414  0.4053108268714141  0.5127008714587546  1.0000
  H   H16       1.0  0.09026327795300663  0.5946892145245002  0.012695469565187504  1.0000
  H   H17       1.0  0.88786330373442  0.6057139040925675  0.7427383924618951  1.0000
  H   H18       1.0  0.6121410484008221  0.3942899456933801  0.2427407846077472  1.0000
  H   H19       1.0  0.1121403341890499  0.39429051722473923  0.25726141404064157  1.0000
  H   H20       1.0  0.38785792538082114  0.6057068307221555  0.7572575581565459  1.0000
  H   H21       1.0  0.8384720302317845  0.7773941371623395  0.7841388341854839  1.0000
  H   H22       1.0  0.6615345272037343  0.22260992135612406  0.2841410526019459  1.0000
  H   H23       1.0  0.16153160769417949  0.22261028415174874  0.21585950859237363  1.0000
  H   H24       1.0  0.3384724127725887  0.7773899822472283  0.7158587538867566  1.0000
  H   H25       1.0  0.8142447808432677  0.3838649138914859  0.4460189903787821  1.0000
  H   H26       1.0  0.6857591247393058  0.6161367960585764  0.9460177678218287  1.0000
  H   H27       1.0  0.18575370080095865  0.6161379305209846  0.5539808161249838  1.0000
  H   H28       1.0  0.314241485777103  0.38386151732741075  0.0539820386691972  1.0000
  H   H29       1.0  0.8768492884261859  0.22164840428860794  0.3846474987260535  1.0000
  H   H30       1.0  0.6231543627108137  0.7783515120479191  0.8846442350196853  1.0000
  H   H31       1.0  0.12315130779732199  0.7783537049264099  0.615354503360976  1.0000
  H   H32       1.0  0.3768504626787388  0.22164912676253573  0.1153577670598125  1.0000
  H   H33       1.0  0.9743599045342816  0.4002044809710198  0.7856769195675569  1.0000
  H   H34       1.0  0.525630715274005  0.599793329933824  0.2856745934673057  1.0000
  H   H35       1.0  0.02564070598212708  0.599793832414967  0.2143228869234761  1.0000
  H   H36       1.0  0.4743626243788838  0.40020414175121727  0.7143259448910584  1.0000
  H   H37       1.0  0.08781363845073997  0.28005885177918083  0.8916906756238916  1.0000
  H   H38       1.0  0.4121754729770757  0.7199412664606798  0.3916859781890807  1.0000
  H   H39       1.0  0.912188608804179  0.7199409985724257  0.1083083990068516  1.0000
  H   H40       1.0  0.5878192716372722  0.2800569803610315  0.6083130964450875  1.0000
  H   H41       1.0  0.14724291796319014  0.12177384918655318  0.8179763379172231  1.0000
  H   H42       1.0  0.35275558400112317  0.8782290853088095  0.3179739658409845  1.0000
  H   H43       1.0  0.8527569829316517  0.8782259745383739  0.1820220048533656  1.0000
  H   H44       1.0  0.647247836433209  0.12177077835693949  0.6820258406510007  1.0000
  C   C1        1.0  0.688942706849879  0.782719663620135  0.657330666309065  1.0000
  C   C2        1.0  0.8110560846793716  0.21727994809228324  0.15733110840992026  1.0000
  C   C3        1.0  0.3110567161942157  0.2172824322807401  0.3426706039167228  1.0000
  C   C4        1.0  0.18894312087932263  0.7827175901522094  0.8426679662182864  1.0000
  C   C5        1.0  0.6172928665655775  0.7318761001175105  0.5743037599554341  1.0000
  C   C6        1.0  0.88270409327702  0.26812388158272427  0.07430210881335599  1.0000
  C   C7        1.0  0.38270374656059397  0.26812444550360226  0.4256975102693872  1.0000
  C   C8        1.0  0.11729276592159718  0.731873630035089  0.925696233954696  1.0000
  C   C9        1.0  0.6438781627113668  0.6357999083464138  0.5519743875389196  1.0000
  C   C10       1.0  0.8561191192844076  0.36419694113158846  0.0519703137003376  1.0000
  C   C11       1.0  0.35611962359546107  0.36420065058723583  0.4480268826848075  1.0000
  C   C12       1.0  0.14387493000252494  0.6357990201984192  0.9480243697550534  1.0000
  C   C13       1.0  0.7431192883031271  0.5904268536687024  0.6116341393774789  1.0000
  C   C14       1.0  0.75688248313687  0.4095703114884656  0.11163193427601212  1.0000
  C   C15       1.0  0.25688224932274295  0.40957450703150033  0.38836786270687906  1.0000
  C   C16       1.0  0.24311554924614848  0.5904272134370601  0.8883642129039302  1.0000
  C   C17       1.0  0.8112311819662279  0.641381355645748  0.6967629580380504  1.0000
  C   C18       1.0  0.6887707486843693  0.3586215034488304  0.19676210700823304  1.0000
  C   C19       1.0  0.18877339735711018  0.3586223171599555  0.3032383121864939  1.0000
  C   C20       1.0  0.31122751547321315  0.6413767833088713  0.8032362357603021  1.0000
  C   C21       1.0  0.7840551579649638  0.7369915306454967  0.7194502106070645  1.0000
  C   C22       1.0  0.7159474050070854  0.26300991790328954  0.21945031960232345  1.0000
  C   C23       1.0  0.21594684322124635  0.26301135370457723  0.2805495958934188  1.0000
  C   C24       1.0  0.2840555518731378  0.7369884221045454  0.7805480231618348  1.0000
  C   C25       1.0  0.9001370883409405  0.36875553599730176  0.5912884238832987  1.0000
  C   C26       1.0  0.5998668527158982  0.6312446002869833  0.0912861035930632  1.0000
  C   C27       1.0  0.0998606979671379  0.6312450229347346  0.4087121144780852  1.0000
  C   C28       1.0  0.4001363359376454  0.3687545015546404  0.9087151666220308  1.0000
  C   C29       1.0  0.8664366585739313  0.3354100829777378  0.4947608577540806  1.0000
  C   C30       1.0  0.6335675587859625  0.6645895691943833  0.9947555731423137  1.0000
  C   C31       1.0  0.1335613595112051  0.6645912377832559  0.5052404124712169  1.0000
  C   C32       1.0  0.3664337470690882  0.335411029668819  0.0052420377664149  1.0000
  C   C33       1.0  0.9004739994098468  0.24497119431602946  0.4602840403415699  1.0000
  C   C34       1.0  0.5995282208333137  0.7550290414113546  0.9602814437874443  1.0000
  C   C35       1.0  0.0995240186765258  0.7550301264433584  0.5397164980213915  1.0000
  C   C36       1.0  0.40047543137931996  0.24497158408173894  0.039718362706118206  1.0000
  C   C37       1.0  0.9710078731959085  0.182377214042063  0.5211689166746183  1.0000
  C   C38       1.0  0.5289955971493043  0.817624124152445  0.0211676126699132  1.0000
  C   C39       1.0  0.02899108629657126  0.8176233581976787  0.47882942609864904  1.0000
  C   C40       1.0  0.4710071136597236  0.1823772498570762  0.9788329256886643  1.0000
  C   C41       1.0  0.006722535162474204  0.21472474605926098  0.6210383912551621  1.0000
  C   C42       1.0  0.4932829672745598  0.7852789123871844  0.12103750573896122  1.0000
  C   C43       1.0  0.9932778292877201  0.7852766013219679  0.3789606833809245  1.0000
  C   C44       1.0  0.5067204531560349  0.21472095128338956  0.8789644963400534  1.0000
  C   C45       1.0  0.9721642771410897  0.3074615533889756  0.6562556299905751  1.0000
  C   C46       1.0  0.5278396600438883  0.6925434263202062  0.1562544694524064  1.0000
  C   C47       1.0  0.02783491412594694  0.6925397806829422  0.34374490837129196  1.0000
  C   C48       1.0  0.47216281898559476  0.30745718586357634  0.8437468007669369  1.0000
  C   C49       1.0  0.0019462088444228826  0.33044235766234903  0.7563944135009848  1.0000
  C   C50       1.0  0.49805250294161135  0.6695603059566934  0.2563937042708986  1.0000
  C   C51       1.0  0.9980560384067587  0.669557492694082  0.2436068567167808  1.0000
  C   C52       1.0  0.5019434148521497  0.3304379541791532  0.7436061022245184  1.0000
  C   C53       1.0  0.0633229912684072  0.26405400443637456  0.8145874999855424  1.0000
  C   C54       1.0  0.43667317588259635  0.7359488885256269  0.3145842947687357  1.0000
  C   C55       1.0  0.9366778510263032  0.7359450707769568  0.1854123065070681  1.0000
  C   C56       1.0  0.5633278981929095  0.26405094851183  0.6854140480007658  1.0000
  C   C57       1.0  0.0971707114288094  0.17480944441788887  0.7735502715466468  1.0000
  C   C58       1.0  0.4028293468654383  0.8251940697999699  0.27354755279095855  1.0000
  C   C59       1.0  0.9028301308659009  0.8251896307954424  0.2264495349459565  1.0000
  C   C60       1.0  0.5971745371279908  0.17480731751724926  0.726450789979495  1.0000
  S   S1        1.0  0.6635345275717126  0.9081810397210857  0.6810777243253981  1.0000
  S   S2        1.0  0.8364672247403745  0.0918209885562717  0.1810789889041899  1.0000
  S   S3        1.0  0.33646489547238184  0.0918210561797892  0.3189235459003825  1.0000
  S   S4        1.0  0.16353596391690664  0.9081781132805201  0.8189200857238818  1.0000
  N   N1        1.0  0.768769872045162  0.4963815112027987  0.5777611079430685  1.0000
  N   N2        1.0  0.7312273077983137  0.5036192475292438  0.07775793250424812  1.0000
  N   N3        1.0  0.23122837781578198  0.5036205713887582  0.4222416260084927  1.0000
  N   N4        1.0  0.26876580008126894  0.4963774623220162  0.9222396784031873  1.0000
  N   N5        1.0  0.8664099274567717  0.45782760036041026  0.6289393247453958  1.0000
  N   N6        1.0  0.6335849634251999  0.5421741186935948  0.1289372509127915  1.0000
  N   N7        1.0  0.13358785884881294  0.542172958574845  0.37106267734067444  1.0000
  N   N8        1.0  0.36641095436856114  0.45782414144225925  0.8710625555826257  1.0000
  N   N9        1.0  0.06968082809611789  0.1510176043006908  0.6798777169972113  1.0000
  N   N10       1.0  0.4303237785291855  0.8489840274759427  0.17987505772965315  1.0000
  N   N11       1.0  0.9303195363528328  0.8489837430821507  0.3201220895012113  1.0000
  N   N12       1.0  0.5696798736834479  0.15101659801715778  0.8201247487639095  1.0000
  O   O1        1.0  0.8154813960725489  0.980401232392921  0.6680967064371687  1.0000
  O   O2        1.0  0.6845208783123623  0.0195984666185254  0.1680993858121411  1.0000
  O   O3        1.0  0.18451873659810045  0.019599353162575998  0.33190310005968376  1.0000
  O   O4        1.0  0.3154820785653668  0.9803998733925279  0.8319004206766962  1.0000
  O   O5        1.0  0.5417008914186638  0.925093523285568  0.6094322174435831  1.0000
  O   O6        1.0  0.958302987811052  0.07490669281649787  0.109433899818562  1.0000
  O   O7        1.0  0.45829806806882784  0.0749070489606112  0.3905690527790427  1.0000
  O   O8        1.0  0.041699969069171165  0.9250916471913367  0.890564442945589  1.0000
  O   O9        1.0  0.6056652015802299  0.9066264704158654  0.7832296581650412  1.0000
  O   O10       1.0  0.8943364344526827  0.0933767690252125  0.2832315507067946  1.0000
  O   O11       1.0  0.394337277449253  0.09337414176791728  0.216771612054302  1.0000
  O   O12       1.0  0.10566463962157259  0.9066230680138571  0.716767523925043  1.0000
  O   O13       1.0  0.8241165401341346  0.039149833079413596  0.9236886163103648  1.0000
  O   O14       1.0  0.6758822852511628  0.9608502017452664  0.42368916995636846  1.0000
  O   O15       1.0  0.175884533938877  0.960850003961269  0.0763111901838158  1.0000
  O   O16       1.0  0.3241155010556723  0.03915035718838309  0.5763121002673586  1.0000
  O   O17       1.0  0.006966599383545713  0.09684135635723122  0.49272507956366246  1.0000
  O   O18       1.0  0.4930336678203985  0.9031585776044222  0.9927224260114685  1.0000
  O   O19       1.0  0.9930300137426258  0.9031591892638815  0.5072761906611589  1.0000
  O   O20       1.0  0.5069685794345204  0.09684127274718429  0.007276648619274801  1.0000
