data_image0
_chemical_formula_structural       Tl4H36C48N8Cl8O16
_chemical_formula_sum              "Tl4 H36 C48 N8 Cl8 O16"
_cell_length_a       7.9211922390159275
_cell_length_b       12.828796888112585
_cell_length_c       14.65866030219517
_cell_angle_alpha    92.9811025368779
_cell_angle_beta     89.99979695729583
_cell_angle_gamma    90.00011756193581

_space_group_name_H-M_alt    "P 1"
_space_group_IT_number       1

loop_
  _space_group_symop_operation_xyz
  'x, y, z'

loop_
  _atom_site_type_symbol
  _atom_site_label
  _atom_site_symmetry_multiplicity
  _atom_site_fract_x
  _atom_site_fract_y
  _atom_site_fract_z
  _atom_site_occupancy
  Tl  Tl1       1.0  0.9376702721161222  0.5191896767320046  0.7865857769787965  1.0000
  Tl  Tl2       1.0  0.562331110554773  0.019187165859087002  0.28658652356801884  1.0000
  Tl  Tl3       1.0  0.06232531794429261  0.48081081359887884  0.21341367060827568  1.0000
  Tl  Tl4       1.0  0.4376670043767136  0.9808109786600099  0.7134121460510768  1.0000
  H   H1        1.0  0.8782054742652434  0.4286651718089729  0.4353023427717275  1.0000
  H   H2        1.0  0.6217937770005622  0.9286672940430947  0.9352980918233271  1.0000
  H   H3        1.0  0.12179137822010232  0.5713337741964252  0.5646997705703996  1.0000
  H   H4        1.0  0.3782093876840306  0.0713347489966267  0.06470005474328389  1.0000
  H   H5        1.0  0.6965892077896639  0.38720852399222855  0.31227597748975455  1.0000
  H   H6        1.0  0.8034107099142175  0.8872100872536348  0.8122734026379916  1.0000
  H   H7        1.0  0.30340764470030024  0.6127919789067847  0.6877255172104099  1.0000
  H   H8        1.0  0.19659119233072891  0.112791179433124  0.1877253944364909  1.0000
  H   H9        1.0  0.41860692426365637  0.3273440409705799  0.324462812778492  1.0000
  H   H10       1.0  0.0813917341996699  0.8273469098198376  0.8244607162557784  1.0000
  H   H11       1.0  0.5813911906623589  0.6726548966572848  0.6755379358196051  1.0000
  H   H12       1.0  0.9186089056068313  0.17265436105532928  0.1755387631913123  1.0000
  H   H13       1.0  0.2868345726627553  0.31893887009196215  0.479540068248518  1.0000
  H   H14       1.0  0.21316178089429633  0.8189418863921104  0.9795370432833367  1.0000
  H   H15       1.0  0.7131635422586415  0.6810585106422948  0.5204612989915489  1.0000
  H   H16       1.0  0.7868375964770068  0.18105859975182167  0.0204617219287684  1.0000
  H   H17       1.0  0.4648995708179059  0.3698601090217507  0.6181652051699658  1.0000
  H   H18       1.0  0.03509679166579361  0.8698581541362105  0.11816499175927933  1.0000
  H   H19       1.0  0.5350985441070862  0.6301396133366168  0.38183625766428964  1.0000
  H   H20       1.0  0.9649013232660338  0.1301431209266326  0.8818351700615921  1.0000
  H   H21       1.0  0.5455083517157321  0.5309791120453511  0.7910671838799316  1.0000
  H   H22       1.0  0.9544943034090069  0.030979415036121304  0.2910707055916504  1.0000
  H   H23       1.0  0.45448976321695506  0.4690198130151159  0.2089315176038937  1.0000
  H   H24       1.0  0.04550759882241811  0.9690203115135604  0.7089314396104882  1.0000
  H   H25       1.0  0.8749279338925434  0.6247340419488482  0.9995455623651424  1.0000
  H   H26       1.0  0.6250698830055583  0.1247339490899222  0.499546969757553  1.0000
  H   H27       1.0  0.1250727059182353  0.3752656552761806  0.0004518062382174995  1.0000
  H   H28       1.0  0.37493075679427085  0.8752673343526355  0.5004545568038026  1.0000
  H   H29       1.0  0.6364630811044593  0.6841117063412054  0.10120740888692839  1.0000
  H   H30       1.0  0.8635350147407977  0.18411121970958527  0.6012104454800563  1.0000
  H   H31       1.0  0.3635400835708894  0.31588722291129306  0.8987919749636076  1.0000
  H   H32       1.0  0.13646941235828078  0.815885384676058  0.39879157226080497  1.0000
  H   H33       1.0  0.3368429368960051  0.6632834606187359  0.0427585432525035  1.0000
  H   H34       1.0  0.1631557544466347  0.1632843170439102  0.5427640648804298  1.0000
  H   H35       1.0  0.6631589653408981  0.3367154728221707  0.9572415229706337  1.0000
  H   H36       1.0  0.8368486726490191  0.8367115109895026  0.45723860336712346  1.0000
  C   C1        1.0  0.7920600261772749  0.43537562160563686  0.6183924368476852  1.0000
  C   C2        1.0  0.7079350083328395  0.9353754183245754  0.11839059966231961  1.0000
  C   C3        1.0  0.207938088754382  0.564624088185333  0.38160697887229833  1.0000
  C   C4        1.0  0.2920618441672218  0.0646258483592774  0.881608197416881  1.0000
  C   C5        1.0  0.6848642473510794  0.4005868338331097  0.5377825028024716  1.0000
  C   C6        1.0  0.8151299359562075  0.9005867455323511  0.03777910069644011  1.0000
  C   C7        1.0  0.31513134270488763  0.599413664876039  0.46221830952745074  1.0000
  C   C8        1.0  0.18486944142193812  0.09941529331605639  0.9622183635022877  1.0000
  C   C9        1.0  0.7500314973200873  0.4034661004021843  0.4499084104097193  1.0000
  C   C10       1.0  0.7499688367551371  0.903467593785102  0.9499045706134622  1.0000
  C   C11       1.0  0.24996661760935274  0.5965336135779112  0.5500916876816859  1.0000
  C   C12       1.0  0.2500343279339036  0.09653444087636132  0.0500922112102984  1.0000
  C   C13       1.0  0.4879637366419942  0.3471510200504822  0.38690746875582954  1.0000
  C   C14       1.0  0.0120345794424708  0.8471553534111251  0.8869028359949027  1.0000
  C   C15       1.0  0.5120356407168174  0.6528471412258697  0.6130939303477801  1.0000
  C   C16       1.0  0.987966060374127  0.15284668124887452  0.11309394583122412  1.0000
  C   C17       1.0  0.4180295297352715  0.3424741551805822  0.47318141625654414  1.0000
  C   C18       1.0  0.0819694688124173  0.8424731136093726  0.9731777945887714  1.0000
  C   C19       1.0  0.5819711100587385  0.6575247908269973  0.5268206970820444  1.0000
  C   C20       1.0  0.9180311709904886  0.1575258156416766  0.026821589264123695  1.0000
  C   C21       1.0  0.5164715789561856  0.3703832577347867  0.549317699509011  1.0000
  C   C22       1.0  0.9835262154311267  0.8703849201130964  0.049313364299266006  1.0000
  C   C23       1.0  0.48352906083901814  0.62961646881417  0.4506844456943071  1.0000
  C   C24       1.0  0.016473161944802  0.12961712292445074  0.9506847822708835  1.0000
  C   C25       1.0  0.2488710121221303  0.5807082675857771  0.8701685138513822  1.0000
  C   C26       1.0  0.2511340990247675  0.08070911709307889  0.3701724471872794  1.0000
  C   C27       1.0  0.7511271028018314  0.41929223950309336  0.12983366321902418  1.0000
  C   C28       1.0  0.7488703280835552  0.919290601079787  0.6298283332696569  1.0000
  C   C29       1.0  0.41999413718247786  0.5983158135831916  0.9111806432929439  1.0000
  C   C30       1.0  0.08000823955848088  0.09831568981114458  0.4111855466953499  1.0000
  C   C31       1.0  0.5800065026205985  0.40168468093973075  0.0888194866608387  1.0000
  C   C32       1.0  0.9199949251112186  0.9016824672782562  0.5888151700332998  1.0000
  C   C33       1.0  0.5604806824058742  0.5671864711316558  0.8593402186022061  1.0000
  C   C34       1.0  0.9395216469237797  0.0671859763509701  0.3593437364090021  1.0000
  C   C35       1.0  0.4395199574004566  0.43281323447163095  0.14065851474399688  1.0000
  C   C36       1.0  0.06048278018111121  0.9328129654696582  0.6406576945546332  1.0000
  C   C37       1.0  0.7443832586520783  0.6193315420800828  0.9762694913478143  1.0000
  C   C38       1.0  0.7556172173490195  0.11933082309901269  0.47627130546382546  1.0000
  C   C39       1.0  0.2556173811564761  0.3806681593340784  0.023728559626967197  1.0000
  C   C40       1.0  0.24438847219671803  0.8806696756159481  0.523729506856661  1.0000
  C   C41       1.0  0.6101263083855882  0.6520326112550594  0.03233817015782851  1.0000
  C   C42       1.0  0.88987591823593  0.1520345049360969  0.5323426179025503  1.0000
  C   C43       1.0  0.38987433142398953  0.34796630542859225  0.9676591665807946  1.0000
  C   C44       1.0  0.11012850885767021  0.8479628925583211  0.46766147881731257  1.0000
  C   C45       1.0  0.44510629938048407  0.6410119666938169  0.9999533123484241  1.0000
  C   C46       1.0  0.054891851814950605  0.14101415564480393  0.4999583582437097  1.0000
  C   C47       1.0  0.5548930779896182  0.35898773890874475  4.542099895129673e-05  1.0000
  C   C48       1.0  0.9451113128480771  0.8589840140119875  0.5000444055992119  1.0000
  N   N1        1.0  0.6498346514030259  0.37769003319164085  0.3780240411076363  1.0000
  N   N2        1.0  0.8501635420230685  0.8776932071500027  0.8780207603055317  1.0000
  N   N3        1.0  0.35016220108556695  0.6223081238941219  0.6219766756269108  1.0000
  N   N4        1.0  0.1498370977880512  0.12230962061877192  0.1219781004995895  1.0000
  N   N5        1.0  0.7181500418428542  0.5773806513441357  0.8913155067287305  1.0000
  N   N6        1.0  0.7818508499022414  0.07737918619980631  0.3913179223628446  1.0000
  N   N7        1.0  0.28184933552502406  0.42261905844755904  0.1086839089900735  1.0000
  N   N8        1.0  0.2181497898873133  0.9226197681860456  0.6086855557185942  1.0000
  Cl  Cl1       1.0  0.9786194592474616  0.33869646818268967  0.8341187460857215  1.0000
  Cl  Cl2       1.0  0.5213801536823726  0.838696083727946  0.3341227162506754  1.0000
  Cl  Cl3       1.0  0.0213799181353096  0.6613071275593255  0.16587809947103688  1.0000
  Cl  Cl4       1.0  0.4786192236879073  0.16130518714649608  0.6658767631975876  1.0000
  Cl  Cl5       1.0  0.9227235773013405  0.6879246582354382  0.7044798011582643  1.0000
  Cl  Cl6       1.0  0.5772839552058999  0.18792373821659678  0.2044826306738443  1.0000
  Cl  Cl7       1.0  0.0772758000554177  0.3120750725019192  0.2955230264176548  1.0000
  Cl  Cl8       1.0  0.4227204719066934  0.812074406306131  0.7955160389393612  1.0000
  O   O1        1.0  0.9497547586585853  0.4411352340967839  0.6100958173694124  1.0000
  O   O2        1.0  0.5502403493431559  0.9411356256956226  0.1100936241582247  1.0000
  O   O3        1.0  0.0502433562776972  0.5588660325877938  0.3899029797086087  1.0000
  O   O4        1.0  0.44975776560082187  0.05886484369105461  0.8899024115693732  1.0000
  O   O5        1.0  0.7090937808835703  0.459626049915137  0.6916821120418035  1.0000
  O   O6        1.0  0.7909033799951433  0.9596251573809197  0.1916794056861946  1.0000
  O   O7        1.0  0.29090433404244465  0.5403728877127278  0.3083186365563008  1.0000
  O   O8        1.0  0.2090959973761599  0.040375328763012405  0.8083193595259175  1.0000
  O   O9        1.0  0.11936132939570142  0.5942804086747842  0.9193056072970335  1.0000
  O   O10       1.0  0.38063971829908644  0.09428141140639922  0.4193099811602892  1.0000
  O   O11       1.0  0.8806380479668761  0.40572165949755146  0.08069663350165969  1.0000
  O   O12       1.0  0.6193647088044401  0.905715184600986  0.580690671837722  1.0000
  O   O13       1.0  0.2416803989090255  0.5483908028024871  0.7853492309153296  1.0000
  O   O14       1.0  0.258321371944227  0.04839399801767999  0.2853525640492833  1.0000
  O   O15       1.0  0.7583151911517376  0.4516128180721494  0.21465170887350374  1.0000
  O   O16       1.0  0.7416780054342669  0.9516111713744735  0.714646392351213  1.0000
