data_image0
_chemical_formula_structural       Ag4H20C32N8O24
_chemical_formula_sum              "Ag4 H20 C32 N8 O24"
_cell_length_a       5.629264771262361
_cell_length_b       11.66194493969029
_cell_length_c       14.856791325612654
_cell_angle_alpha    90.00130789115458
_cell_angle_beta     91.65873202806861
_cell_angle_gamma    90.00383478799695

_space_group_name_H-M_alt    "P 1"
_space_group_IT_number       1

loop_
  _space_group_symop_operation_xyz
  'x, y, z'

loop_
  _atom_site_type_symbol
  _atom_site_label
  _atom_site_symmetry_multiplicity
  _atom_site_fract_x
  _atom_site_fract_y
  _atom_site_fract_z
  _atom_site_occupancy
  Ag  Ag1       1.0  0.700898266348979  0.9640242253194985  0.9540252468403878  1.0000
  Ag  Ag2       1.0  0.7991120754026684  0.4640346850015434  0.545970656631539  1.0000
  Ag  Ag3       1.0  0.2991168702490299  0.035971885967534006  0.045954708790191  1.0000
  Ag  Ag4       1.0  0.2009115182142835  0.5359631414096954  0.45404030540505846  1.0000
  H   H1        1.0  0.33069222085255495  0.05723454819915472  0.4572050010149482  1.0000
  H   H2        1.0  0.1692932004914738  0.55723883785209  0.0428060244485025  1.0000
  H   H3        1.0  0.669280884363097  0.942752987847065  0.5427888930977431  1.0000
  H   H4        1.0  0.830714607508142  0.4427735657577615  0.9572095756755772  1.0000
  H   H5        1.0  0.1275975912426262  0.8860896490505041  0.21005215884361658  1.0000
  H   H6        1.0  0.3724105430102682  0.3860630565557771  0.289931899216235  1.0000
  H   H7        1.0  0.8724318201802747  0.11391332228556912  0.7899292106026082  1.0000
  H   H8        1.0  0.6275935931964868  0.6139433445861259  0.7100809907482315  1.0000
  H   H9        1.0  0.6780489328981858  0.23865967501258473  0.2230016505621109  1.0000
  H   H10       1.0  0.8219805814471712  0.7386660069067476  0.277010708284152  1.0000
  H   H11       1.0  0.3219239667559677  0.7613252885515609  0.7769875302451723  1.0000
  H   H12       1.0  0.17804481843184317  0.26133181952204154  0.7230009354564046  1.0000
  H   H13       1.0  0.6891260587006445  0.2776981192959695  0.33956530593663803  1.0000
  H   H14       1.0  0.8109202096313624  0.7777011607864285  0.1604464534516623  1.0000
  H   H15       1.0  0.31086259951466394  0.7222945618052421  0.6604185638539873  1.0000
  H   H16       1.0  0.18909645283380883  0.2223026680015678  0.8395685151036573  1.0000
  H   H17       1.0  0.49984339629847335  0.16639930576162953  0.2994872434403391  1.0000
  H   H18       1.0  0.00017301580062679695  0.6664081592132122  0.20052431260576495  1.0000
  H   H19       1.0  0.5001510023548973  0.8335839430227526  0.7005060778470096  1.0000
  H   H20       1.0  0.9998380807115907  0.3335905245738858  0.7994852441325621  1.0000
  C   C1        1.0  0.7669386085852209  0.020483160451291803  0.15802468927841323  1.0000
  C   C2        1.0  0.7330779464389748  0.5204744854826587  0.3419693419786185  1.0000
  C   C3        1.0  0.23307300364886172  0.979514665785729  0.8419559229431002  1.0000
  C   C4        1.0  0.26693685093238884  0.47952762830445306  0.6580435981967483  1.0000
  C   C5        1.0  0.9126752916359776  0.032077052439397805  0.24420737912493  1.0000
  C   C6        1.0  0.587341966515112  0.532062832987066  0.2557897463889063  1.0000
  C   C7        1.0  0.0873397864798733  0.9679207738238987  0.7557712298902146  1.0000
  C   C8        1.0  0.41266948255054814  0.46794185325054366  0.7442278903296682  1.0000
  C   C9        1.0  0.8678849091052712  0.11981602060459552  0.30743719069272407  1.0000
  C   C10       1.0  0.632134536186534  0.6198160330660017  0.19256969141887478  1.0000
  C   C11       1.0  0.13211079783788898  0.8801732305966325  0.6925453659160254  1.0000
  C   C12       1.0  0.3678767957400311  0.3801903681443477  0.807445252038562  1.0000
  C   C13       1.0  0.026904385100124294  0.12491850717603373  0.3820427801929753  1.0000
  C   C14       1.0  0.4731017350740957  0.6249190923494938  0.11796595576409172  1.0000
  C   C15       1.0  0.973079264665408  0.87507160142755  0.6179484709603287  1.0000
  C   C16       1.0  0.5269059845031238  0.3750890238055504  0.8820476243157174  1.0000
  C   C17       1.0  0.2124184866427328  0.04832747701490092  0.3984010524799757  1.0000
  C   C18       1.0  0.2875809051069779  0.5483212665726711  0.1016050204100836  1.0000
  C   C19       1.0  0.787566969472266  0.9516634890961345  0.601590880392429  1.0000
  C   C20       1.0  0.7124286794766449  0.45168770709335615  0.8984105880345296  1.0000
  C   C21       1.0  0.23629356176121516  0.9595014659910034  0.33722105216136095  1.0000
  C   C22       1.0  0.26370320650283224  0.45948523775089006  0.16277287949332478  1.0000
  C   C23       1.0  0.7637093709293978  0.04049464519965081  0.6627642313843508  1.0000
  C   C24       1.0  0.7362957754857361  0.5405271657835656  0.837244025370957  1.0000
  C   C25       1.0  0.09359884375574268  0.9522842484314042  0.2595227929359893  1.0000
  C   C26       1.0  0.40641401679897643  0.4522623255058989  0.2404662542893305  1.0000
  C   C27       1.0  0.9064216534959044  0.0477170078441702  0.7404578612515991  1.0000
  C   C28       1.0  0.5935902957281982  0.5477475056062105  0.7595506756728341  1.0000
  C   C29       1.0  0.6747999277095431  0.20621066808072902  0.2921770206620522  1.0000
  C   C30       1.0  0.8252265257738713  0.7062141756556457  0.207834208942792  1.0000
  C   C31       1.0  0.3251852936028783  0.7937785830363778  0.7078095255972273  1.0000
  C   C32       1.0  0.17479001929000762  0.29378879563538624  0.7921780663059579  1.0000
  N   N1        1.0  0.008744482442246192  0.2185015115802713  0.4480668011572533  1.0000
  N   N2        1.0  0.49125997847455954  0.7185149860343789  0.0519586058443267  1.0000
  N   N3        1.0  0.9912142022674999  0.7814885967969902  0.5519223126920636  1.0000
  N   N4        1.0  0.5087496060216736  0.28149313014175453  0.9480570025851449  1.0000
  N   N5        1.0  0.421213063704343  0.8734051535252263  0.3529206749553637  1.0000
  N   N6        1.0  0.0787641133611103  0.37338557299982256  0.14706414781676358  1.0000
  N   N7        1.0  0.5787777529768973  0.1265901000844494  0.6470719564589018  1.0000
  N   N8        1.0  0.921236469415426  0.6266251155600175  0.8529487254612107  1.0000
  O   O1        1.0  0.8797685823733233  0.9912817650034927  0.0883119244327446  1.0000
  O   O2        1.0  0.6202331252557016  0.4912692490178615  0.41168340052577423  1.0000
  O   O3        1.0  0.12025366292043323  0.008723778735607401  0.9116680648887937  1.0000
  O   O4        1.0  0.3797798061478942  0.5087225748693456  0.58832751111823  1.0000
  O   O5        1.0  0.5451384925344415  0.036722919203327806  0.1628207191209015  1.0000
  O   O6        1.0  0.9548797718193215  0.5367138717444176  0.3371779172012026  1.0000
  O   O7        1.0  0.45487676067829613  0.9632663321715499  0.8371619296799651  1.0000
  O   O8        1.0  0.04513158926091879  0.4632908144878912  0.6628376995488097  1.0000
  O   O9        1.0  0.8192848809774561  0.22885097991502334  0.4883523475854759  1.0000
  O   O10       1.0  0.6807000477495607  0.7288724824686812  0.011660810628732999  1.0000
  O   O11       1.0  0.18067936784993316  0.7711262661752019  0.511642177762873  1.0000
  O   O12       1.0  0.3193149852983339  0.2711399212113861  0.9883575163111757  1.0000
  O   O13       1.0  0.1851139800829884  0.2809480883294313  0.4590715579139371  1.0000
  O   O14       1.0  0.31490225447673487  0.7809635285285741  0.0409748991149073  1.0000
  O   O15       1.0  0.8148213421068675  0.7190574546449467  0.5409113873479185  1.0000
  O   O16       1.0  0.6851054355972154  0.2190428726448985  0.9590380076117596  1.0000
  O   O17       1.0  0.5966810149488923  0.8999872905988582  0.4012277765710621  1.0000
  O   O18       1.0  0.9032862371989764  0.39997325351173907  0.0987676154325712  1.0000
  O   O19       1.0  0.403306247865153  0.1000079629792481  0.5987648380810029  1.0000
  O   O20       1.0  0.096716211108351  0.6000434374984992  0.9012472863010572  1.0000
  O   O21       1.0  0.39229030885502425  0.7785441377028594  0.3165504907388481  1.0000
  O   O22       1.0  0.10768092484084948  0.2785140857275579  0.18341219579056664  1.0000
  O   O23       1.0  0.6076953821499487  0.22144940089201984  0.6834468287618166  1.0000
  O   O24       1.0  0.8923263839629525  0.7214923154229571  0.8165919577389857  1.0000
