data_image0
_chemical_formula_structural       Zn4H18C70S6Br12N4O22
_chemical_formula_sum              "Zn4 H18 C70 S6 Br12 N4 O22"
_cell_length_a       12.75875784501135
_cell_length_b       13.812667565443663
_cell_length_c       28.091241916685068
_cell_angle_alpha    89.90881417299858
_cell_angle_beta     89.78861286360063
_cell_angle_gamma    89.91959223391291

_space_group_name_H-M_alt    "P 1"
_space_group_IT_number       1

loop_
  _space_group_symop_operation_xyz
  'x, y, z'

loop_
  _atom_site_type_symbol
  _atom_site_label
  _atom_site_symmetry_multiplicity
  _atom_site_fract_x
  _atom_site_fract_y
  _atom_site_fract_z
  _atom_site_occupancy
  Zn  Zn1       1.0  0.5020272362300844  0.4005712631245046  0.4984007005157308  1.0000
  Zn  Zn2       1.0  0.4972661452614346  0.6000332527056854  0.49922931844435675  1.0000
  Zn  Zn3       1.0  0.5024070894887558  0.5997819134030636  0.04468763270048729  1.0000
  Zn  Zn4       1.0  0.49827301751098213  0.4003374053267237  0.04386475303026321  1.0000
  H   H1        1.0  0.3847142630375373  0.250062452782899  0.550796719466895  1.0000
  H   H2        1.0  0.6158543271071935  0.2487072405162607  0.4475207166831865  1.0000
  H   H3        1.0  0.6136874264726729  0.7504401871049495  0.4478315775022494  1.0000
  H   H4        1.0  0.3842453808481777  0.7516378979037841  0.5518715388757656  1.0000
  H   H5        1.0  0.49947733034084507  0.6548083369774887  0.6503271661427019  1.0000
  H   H6        1.0  0.49890453808449564  0.34538340004282725  0.6504237101650502  1.0000
  H   H7        1.0  0.4992447707913286  0.3450230880753508  0.8927789828492649  1.0000
  H   H8        1.0  0.5004821511019203  0.6544779187050055  0.8927040947743163  1.0000
  H   H9        1.0  0.38555823913141296  0.7506788395513484  0.9926374508416487  1.0000
  H   H10       1.0  0.6165171908494926  0.7510371403963917  0.09519696427719988  1.0000
  H   H11       1.0  0.6149906650031695  0.24943289104385968  0.0949563799112028  1.0000
  H   H12       1.0  0.38592077405841957  0.24897682517534037  0.9914909294587062  1.0000
  H   H13       1.0  0.5010409298100171  0.716447622535739  0.30810363720988937  1.0000
  H   H14       1.0  0.5008197577874185  0.2833573530516205  0.23492650048698485  1.0000
  H   H15       1.0  0.08106158831659369  0.2830315586259218  0.5004355126739242  1.0000
  H   H16       1.0  0.9187724546863123  0.71653372971614  0.5002025878143996  1.0000
  H   H17       1.0  0.08108646349391792  0.718204531166343  0.043780139277970385  1.0000
  H   H18       1.0  0.9202110126771927  0.2848072124546661  0.04450430630271281  1.0000
  C   C1        1.0  0.4983959557085526  0.500356939117097  0.5924662856964743  1.0000
  C   C2        1.0  0.29469214964645823  0.4984319424615293  0.4998957232673646  1.0000
  C   C3        1.0  0.5019343932264773  0.5014322583464761  0.4055358675685952  1.0000
  C   C4        1.0  0.704810922997254  0.5015895550831431  0.4987892017347589  1.0000
  C   C5        1.0  0.4993315882777267  0.49944369705409747  0.9506358510693929  1.0000
  C   C6        1.0  0.29537037185511394  0.5028351312293395  0.0439462371009043  1.0000
  C   C7        1.0  0.5019485329218227  0.4983314136124193  0.1375407070954253  1.0000
  C   C8        1.0  0.7055290830104681  0.4997148357388213  0.0445294301099111  1.0000
  C   C9        1.0  0.43530815217118146  0.20512402768037677  0.5286700939974621  1.0000
  C   C10       1.0  0.4319293945298456  0.10371363229899093  0.5307463477507355  1.0000
  C   C11       1.0  0.36340002559121126  0.05076822668981861  0.5623507586898953  1.0000
  C   C12       1.0  0.565708415672205  0.20431424165023773  0.47012649792830524  1.0000
  C   C13       1.0  0.5691663667406459  0.10292346829763231  0.4686865671306889  1.0000
  C   C14       1.0  0.6380398105664539  0.0493335955196912  0.4375655540439211  1.0000
  C   C15       1.0  0.5641484761746581  0.7954054433242206  0.47042524822478526  1.0000
  C   C16       1.0  0.5684866578354857  0.8967910268337319  0.4689027157927653  1.0000
  C   C17       1.0  0.6377567001710743  0.9497452754856895  0.4376651406405543  1.0000
  C   C18       1.0  0.4343723520553766  0.7960967333864987  0.5292817946018218  1.0000
  C   C19       1.0  0.43148968384106473  0.8975028014880594  0.53108812668345  1.0000
  C   C20       1.0  0.3632949799359793  0.9511080935987833  0.5625397682873512  1.0000
  C   C21       1.0  0.5004553456095806  0.05145743699293351  0.4998260513436249  1.0000
  C   C22       1.0  0.500199890954697  0.9489840426163382  0.49994579269760203  1.0000
  C   C23       1.0  0.5021761043017676  0.5811965969669685  0.3220088973441477  1.0000
  C   C24       1.0  0.5020884441758683  0.41860637555992514  0.221043886512831  1.0000
  C   C25       1.0  0.5023327095313377  0.5028298361581137  0.3532872587712887  1.0000
  C   C26       1.0  0.5022688350719234  0.49698844123007296  0.1897788369357585  1.0000
  C   C27       1.0  0.5019967707402485  0.4494953228997147  0.2692602693896831  1.0000
  C   C28       1.0  0.502045979645615  0.550301759657728  0.2737971614948265  1.0000
  C   C29       1.0  0.4992286822083828  0.5876743848420318  0.6705825519322985  1.0000
  C   C30       1.0  0.4995219960391709  0.5896129545752372  0.7204456123370164  1.0000
  C   C31       1.0  0.499282349622561  0.6789026420401852  0.7470660377780546  1.0000
  C   C32       1.0  0.4988817712790805  0.4124477108582951  0.6706330370433092  1.0000
  C   C33       1.0  0.49898624749673803  0.41039852917325  0.7205072435284238  1.0000
  C   C34       1.0  0.49818228522700997  0.32104784679822274  0.7472084475873969  1.0000
  C   C35       1.0  0.49930215278756407  0.41216924672214356  0.8725345964010245  1.0000
  C   C36       1.0  0.49929959279755554  0.41024526954304724  0.8226721105756525  1.0000
  C   C37       1.0  0.4983807789376016  0.3209717847419498  0.7960486510855062  1.0000
  C   C38       1.0  0.500000150560254  0.5874199247072838  0.8724949056246557  1.0000
  C   C39       1.0  0.49987758721155723  0.5894995069781005  0.8226203670946005  1.0000
  C   C40       1.0  0.4994361409899497  0.6788403027135529  0.7959127213813486  1.0000
  C   C41       1.0  0.49886545085690415  0.5000948491116687  0.6459694506707194  1.0000
  C   C42       1.0  0.4994952970652947  0.499969925700718  0.7462915655654214  1.0000
  C   C43       1.0  0.4995713174366827  0.49975526918408514  0.8971442950327599  1.0000
  C   C44       1.0  0.49965542887463943  0.49991444809171537  0.7968444638717216  1.0000
  C   C45       1.0  0.11107990929249918  0.4183454723067682  0.5004464887958449  1.0000
  C   C46       1.0  0.8885290337309613  0.5812820561514228  0.4995455125321797  1.0000
  C   C47       1.0  0.1797455682896043  0.49667490175234263  0.5003465704478103  1.0000
  C   C48       1.0  0.8197879880685194  0.5030144330553556  0.4992094653877217  1.0000
  C   C49       1.0  0.994700392671305  0.5501945108323909  0.5001090261764531  1.0000
  C   C50       1.0  0.0048593408952442  0.449356845013746  0.5002497371173645  1.0000
  C   C51       1.0  0.43626237698127573  0.7954378602290361  0.014572079038814  1.0000
  C   C52       1.0  0.4331741377391509  0.8968581029866415  0.012459737002807  1.0000
  C   C53       1.0  0.3648153916017236  0.950068076318253  0.9810542697544591  1.0000
  C   C54       1.0  0.5665040417933297  0.7956828309552363  0.07275359288445321  1.0000
  C   C55       1.0  0.5701659903152319  0.8970554747984137  0.0741662158940954  1.0000
  C   C56       1.0  0.6390135091448528  0.9503973502364572  0.1051038492803613  1.0000
  C   C57       1.0  0.565503240494479  0.20465718461865381  0.0724730292955513  1.0000
  C   C58       1.0  0.569800821396079  0.1032374568939716  0.07395110628431208  1.0000
  C   C59       1.0  0.638886675380064  0.04999925951633342  0.1050063748665124  1.0000
  C   C60       1.0  0.43597796536104744  0.2043966467925316  0.013949279162218896  1.0000
  C   C61       1.0  0.43307000864831474  0.1030165697599585  0.012128141859974998  1.0000
  C   C62       1.0  0.36481856236127186  0.04972017181022889  0.980879672978709  1.0000
  C   C63       1.0  0.5017124570158416  0.948807423027823  0.04318709412593339  1.0000
  C   C64       1.0  0.5016214881419571  0.0512770539989305  0.0430704295487345  1.0000
  C   C65       1.0  0.1115509373052177  0.5828986588793865  0.04400608097414249  1.0000
  C   C66       1.0  0.8894606643351822  0.4200213333215501  0.0447654952551062  1.0000
  C   C67       1.0  0.18042783553453032  0.5045706311735643  0.0440513765138846  1.0000
  C   C68       1.0  0.8204984703203025  0.4982812042230691  0.0447499048240729  1.0000
  C   C69       1.0  0.9955568340712161  0.45107232401536373  0.04446956048487749  1.0000
  C   C70       1.0  0.0054170209325477  0.5519106631917126  0.0442917422893601  1.0000
  S   S1        1.0  0.502277769639015  0.3916228839518041  0.3236949711694237  1.0000
  S   S2        1.0  0.5022814489062667  0.6081961222888734  0.21936194018385888  1.0000
  S   S3        1.0  0.11439400653239319  0.6079316479985052  0.50019389274226  1.0000
  S   S4        1.0  0.8850949924862803  0.39170621214805823  0.4996943615298477  1.0000
  S   S5        1.0  0.1154084456227622  0.39330929141813453  0.0443533810337442  1.0000
  S   S6        1.0  0.885486407635767  0.6095932581198156  0.0444272953770692  1.0000
  Br  Br1       1.0  0.27485602823580274  0.8805759010859475  0.6040807183824413  1.0000
  Br  Br2       1.0  0.2750678309555425  0.12194893887809138  0.6036075010527497  1.0000
  Br  Br3       1.0  0.7274617409791091  0.8783550968583073  0.3970490342197904  1.0000
  Br  Br4       1.0  0.7281581544320802  0.12001092314760337  0.3967789171208906  1.0000
  Br  Br5       1.0  0.4978067051831161  0.7973113075918973  0.8302935424117663  1.0000
  Br  Br6       1.0  0.4975161312493341  0.7974532943634499  0.7125607876138247  1.0000
  Br  Br7       1.0  0.49626885061142906  0.2024197011861304  0.8305134504981879  1.0000
  Br  Br8       1.0  0.4956576431550772  0.2025969150943325  0.7128324902648515  1.0000
  Br  Br9       1.0  0.2763608719578485  0.1204839676340228  0.9396305198184719  1.0000
  Br  Br10      1.0  0.27651970452564  0.8791561338558722  0.9400304819450297  1.0000
  Br  Br11      1.0  0.7286518155580382  0.1209639649402874  0.1453876161731102  1.0000
  Br  Br12      1.0  0.7290478269570642  0.8793905038506935  0.1456039001062592  1.0000
  N   N1        1.0  0.5005724779645603  0.25208733821781953  0.499251806777167  1.0000
  N   N2        1.0  0.4986827442592769  0.7484263932103586  0.4997296078519326  1.0000
  N   N3        1.0  0.5012958555722448  0.7482119924795254  0.0438305409067397  1.0000
  N   N4        1.0  0.5001797788265065  0.25187828861999156  0.0433449911998594  1.0000
  O   O1        1.0  0.5005611113055153  0.4184661045728148  0.5717976825994454  1.0000
  O   O2        1.0  0.4959150590241422  0.5827528284423736  0.5721328257660118  1.0000
  O   O3        1.0  0.33703506919682974  0.5824345150544302  0.499975659868042  1.0000
  O   O4        1.0  0.3424749056464477  0.4174421950556138  0.49934600049636657  1.0000
  O   O5        1.0  0.4995751972144761  0.5827707338817874  0.4267752018547596  1.0000
  O   O6        1.0  0.5037217938611603  0.41775618293993944  0.42522039182315297  1.0000
  O   O7        1.0  0.6620798407722857  0.41767389847626657  0.4983186754451694  1.0000
  O   O8        1.0  0.6573861392525445  0.5826814430724457  0.4990645479348785  1.0000
  O   O9        1.0  0.5014499025740804  0.5812811026830146  0.9713438773777554  1.0000
  O   O10       1.0  0.4970346429473906  0.41700397578563997  0.9709528132490206  1.0000
  O   O11       1.0  0.3380158885276217  0.4188548988641827  0.0436614168156098  1.0000
  O   O12       1.0  0.34284904550676737  0.5838558369390796  0.04419223353975351  1.0000
  O   O13       1.0  0.4999546740263839  0.41696146819490565  0.11633292586552102  1.0000
  O   O14       1.0  0.5034945958448347  0.5819849528143664  0.11783775196268918  1.0000
  O   O15       1.0  0.6625983418187856  0.5836581021356435  0.04478483669021219  1.0000
  O   O16       1.0  0.658263616975141  0.4186755079331021  0.0439246032561442  1.0000
  O   O17       1.0  0.502582299142091  0.6753269508959789  0.33631231126999944  1.0000
  O   O18       1.0  0.5024518832949951  0.3244951901008265  0.20672243961517006  1.0000
  O   O19       1.0  0.14297396535066306  0.32425226048792405  0.5007341070291176  1.0000
  O   O20       1.0  0.8568198557069452  0.6754204574126988  0.4991596774945961  1.0000
  O   O21       1.0  0.1431399924337029  0.6769902596544809  0.0436352789709815  1.0000
  O   O22       1.0  0.8580519905949089  0.3258739864050284  0.04516661969719139  1.0000
