data_image0
_chemical_formula_structural       Na2H20C10N14O4
_chemical_formula_sum              "Na2 H20 C10 N14 O4"
_cell_length_a       6.983789199823132
_cell_length_b       8.253442890086564
_cell_length_c       8.432094374522308
_cell_angle_alpha    92.45003737082547
_cell_angle_beta     91.26306412808759
_cell_angle_gamma    105.22225925588234

_space_group_name_H-M_alt    "P 1"
_space_group_IT_number       1

loop_
  _space_group_symop_operation_xyz
  'x, y, z'

loop_
  _atom_site_type_symbol
  _atom_site_label
  _atom_site_symmetry_multiplicity
  _atom_site_fract_x
  _atom_site_fract_y
  _atom_site_fract_z
  _atom_site_occupancy
  Na  Na1       1.0  0.36382862066211175  0.9139827155824635  0.829276772224567  1.0000
  Na  Na2       1.0  0.636173620034917  0.08601880008500731  0.17072430112295217  1.0000
  H   H1        1.0  0.517222248612626  0.817517805566567  0.515562347595832  1.0000
  H   H2        1.0  0.4827777773880868  0.18248119518956682  0.4844386007654079  1.0000
  H   H3        1.0  0.2894387214443481  0.8176519640669325  0.4967912730382621  1.0000
  H   H4        1.0  0.7105620855139068  0.18234953909530557  0.5032085857461437  1.0000
  H   H5        1.0  0.8149773536640836  0.0019312372906909983  0.8620410362657436  1.0000
  H   H6        1.0  0.18502306349041214  0.9980690206716929  0.13795996051521794  1.0000
  H   H7        1.0  0.7144822848585904  0.835804963825872  0.948421849229028  1.0000
  H   H8        1.0  0.2855195633346312  0.16419528262895264  0.05157798928249239  1.0000
  H   H9        1.0  0.2840898142996621  0.7490528282608723  0.20224821766080228  1.0000
  H   H10       1.0  0.7159102103510335  0.25094616048886564  0.7977515442841676  1.0000
  H   H11       1.0  0.23746728514377224  0.43682338136686394  0.7890379139187045  1.0000
  H   H12       1.0  0.7625331293106825  0.5631768525827283  0.21096071002970967  1.0000
  H   H13       1.0  0.41433243934786645  0.3655945281379616  0.32284311996386345  1.0000
  H   H14       1.0  0.5856679751065883  0.6344057058116305  0.6771555039845438  1.0000
  H   H15       1.0  0.3478881122804438  0.5462233510636666  0.40199185302626  1.0000
  H   H16       1.0  0.652110478631478  0.453775625180839  0.5980066943555967  1.0000
  H   H17       1.0  0.046061575985078214  0.22522474517144533  0.270055021270231  1.0000
  H   H18       1.0  0.9539374087806677  0.7747755122921022  0.7299459473638945  1.0000
  H   H19       1.0  0.9883497584356961  0.3963526825947312  0.37213155364459977  1.0000
  H   H20       1.0  0.011651048522565996  0.6036488205675071  0.6278683051398061  1.0000
  C   C1        1.0  0.2783169625795167  0.6452714060643031  0.11748584886636587  1.0000
  C   C2        1.0  0.721681238528646  0.3547263249803479  0.8825138365120393  1.0000
  C   C3        1.0  0.2516103206066589  0.4832542174389474  0.9122476864380997  1.0000
  C   C4        1.0  0.7483872290702962  0.5167460155129718  0.08775088121664247  1.0000
  C   C5        1.0  0.2993920903514321  0.4341534010978164  0.32125132014515145  1.0000
  C   C6        1.0  0.7006093639879722  0.565845564137959  0.678746097114107  1.0000
  C   C7        1.0  0.09835835268378189  0.3227094101884305  0.3659626565637096  1.0000
  C   C8        1.0  0.9016416733169309  0.6772895905677032  0.6340382917975375  1.0000
  C   C9        1.0  0.10319133588529178  0.23737382675096802  0.5176658127046635  1.0000
  C   C10       1.0  0.8968105123079367  0.7626264197038637  0.48233402580686385  1.0000
  N   N1        1.0  0.25772973693919715  0.6446630238521183  0.9594603393219997  1.0000
  N   N2        1.0  0.7422688553227488  0.3553359643987761  0.040539394476134284  1.0000
  N   N3        1.0  0.2671516811832859  0.38583292572072037  0.031200538469285298  1.0000
  N   N4        1.0  0.7328458684936762  0.614167307231199  0.9687980291854499  1.0000
  N   N5        1.0  0.2853648674007232  0.49231640770674545  0.16187397244850385  1.0000
  N   N6        1.0  0.7146369780924643  0.5076838147352805  0.8381234932304691  1.0000
  N   N7        1.0  0.2577950831872613  0.1880342853247825  0.577409469026527  1.0000
  N   N8        1.0  0.7422071561597507  0.8119672183362924  0.42259041790472196  1.0000
  N   N9        1.0  0.19112170861200892  0.1054642781860196  0.7080320386899925  1.0000
  N   N10       1.0  0.8088805307350028  0.8945372254750624  0.29196784824125627  1.0000
  N   N11       1.0  0.003823833614994487  0.1055084441323331  0.7263376513298849  1.0000
  N   N12       1.0  0.9961780159282511  0.8944918143288875  0.2736633735979196  1.0000
  N   N13       1.0  0.944287314994206  0.18787184250963662  0.6085932122896904  1.0000
  N   N14       1.0  0.055714534549039615  0.8121284159515838  0.391407812638107  1.0000
  O   O1        1.0  0.3915107515944101  0.8020396245486766  0.5742995705742259  1.0000
  O   O2        1.0  0.6084896642100616  0.19796062140731152  0.4257002397904585  1.0000
  O   O3        1.0  0.6971473904369673  0.9479233999281362  0.9241577099420083  1.0000
  O   O4        1.0  0.30285263556374525  0.05207560082799741  0.07584323841923177  1.0000
