data_image0
_chemical_formula_structural       Fe6H6C36O42
_chemical_formula_sum              "Fe6 H6 C36 O42"
_cell_length_a       6.839338367917794
_cell_length_b       15.259251152468062
_cell_length_c       15.219300867562543
_cell_angle_alpha    117.36763171171562
_cell_angle_beta     98.92619449174133
_cell_angle_gamma    98.50281978129304

_space_group_name_H-M_alt    "P 1"
_space_group_IT_number       1

loop_
  _space_group_symop_operation_xyz
  'x, y, z'

loop_
  _atom_site_type_symbol
  _atom_site_label
  _atom_site_symmetry_multiplicity
  _atom_site_fract_x
  _atom_site_fract_y
  _atom_site_fract_z
  _atom_site_occupancy
  Fe  Fe1       1.0  0.4819213568512524  0.2713677575684699  0.5999861906409336  1.0000
  Fe  Fe2       1.0  0.21107811976440866  0.32711620502992383  0.7275126665757199  1.0000
  Fe  Fe3       1.0  0.8823603997993313  0.39814161357261196  0.6711414795306395  1.0000
  Fe  Fe4       1.0  0.532876548529181  0.7367782325357765  0.4100508362181329  1.0000
  Fe  Fe5       1.0  0.7990422714670656  0.6754403668486759  0.2659717410774718  1.0000
  Fe  Fe6       1.0  0.1195798867746517  0.5928073246484116  0.32590823461032414  1.0000
  H   H1        1.0  0.8179707407539779  0.4471615848088675  0.47021320591579047  1.0000
  H   H2        1.0  0.3729678891848137  0.023311582987353998  0.5527798715496317  1.0000
  H   H3        1.0  0.3508208335248924  0.5291964193677644  0.9769845806156425  1.0000
  H   H4        1.0  0.18163929110269805  0.5539123721110287  0.5291659366249775  1.0000
  H   H5        1.0  0.628588277611854  0.976484467166543  0.4465057618067547  1.0000
  H   H6        1.0  0.6542457328578948  0.470260750388995  0.02356919497469075  1.0000
  C   C1        1.0  0.23607789928902173  0.4253363320178778  0.5936129816209785  1.0000
  C   C2        1.0  0.8111780259649636  0.1678646638888495  0.5739006228337047  1.0000
  C   C3        1.0  0.6437015755208932  0.4043000360898431  0.8310531472751279  1.0000
  C   C4        1.0  0.7586800149974593  0.5722609617605984  0.4015031878644991  1.0000
  C   C5        1.0  0.18879062860303716  0.830976163324749  0.42914788903707557  1.0000
  C   C6        1.0  0.3592824965541794  0.6002306097347302  0.17111842486797002  1.0000
  C   C7        1.0  0.3747497415088432  0.4608391789946681  0.5456499936567312  1.0000
  C   C8        1.0  0.9151147834826645  0.0850290260989937  0.5388214321631891  1.0000
  C   C9        1.0  0.830987428371017  0.452768192720221  0.9143692782852637  1.0000
  C   C10       1.0  0.623757369603595  0.5391899502401571  0.4528666969792852  1.0000
  C   C11       1.0  0.08642677711116409  0.9148388926902341  0.4614794695710884  1.0000
  C   C12       1.0  0.17379345272417615  0.5472662635285701  0.0860013262824566  1.0000
  C   C13       1.0  0.5588224675000433  0.4286153489113858  0.5284369298047906  1.0000
  C   C14       1.0  0.13179245174802648  0.09976992880555  0.5709242085420669  1.0000
  C   C15       1.0  0.03281373429064874  0.46990520902028987  0.8997666678110792  1.0000
  C   C16       1.0  0.4406566774256788  0.571771212368347  0.47062053677547777  1.0000
  C   C17       1.0  0.8703170147681901  0.9003338244423631  0.4291624133343745  1.0000
  C   C18       1.0  0.9723548488297593  0.5290617582340289  0.10011357767107404  1.0000
  C   C19       1.0  0.6770361833043166  0.47013434213068456  0.48289424546700843  1.0000
  C   C20       1.0  0.2088427677718414  0.0132801086595649  0.5298070930420167  1.0000
  C   C21       1.0  0.19699863206444232  0.5162388279002244  0.9869722740716613  1.0000
  C   C22       1.0  0.3228350078285871  0.5311208598911036  0.5166433932003045  1.0000
  C   C23       1.0  0.792877193972167  0.9865524592614604  0.4692702050745297  1.0000
  C   C24       1.0  0.8081008006949447  0.48260314058698833  0.013383412260040514  1.0000
  C   C25       1.0  0.21692991899637096  0.0899705509904294  0.3466941505740877  1.0000
  C   C26       1.0  0.12349247612412026  0.2567431565407858  0.9113405386665789  1.0000
  C   C27       1.0  0.8706795645505991  0.6504301592948991  0.7415346900190514  1.0000
  C   C28       1.0  0.7845914881331095  0.9120217721261382  0.6559769776011208  1.0000
  C   C29       1.0  0.8734237478911238  0.743456153903793  0.08803706447344697  1.0000
  C   C30       1.0  0.12969431705285925  0.34607527679301603  0.2561260676439687  1.0000
  C   C31       1.0  0.29331227999266213  0.788523616631835  0.659660290875749  1.0000
  C   C32       1.0  0.5037078597155968  0.870822643486747  0.21101311225211117  1.0000
  C   C33       1.0  0.6303075718309542  0.34190288626767545  0.13026916404304253  1.0000
  C   C34       1.0  0.706119291348159  0.2121601489395601  0.3413924415967243  1.0000
  C   C35       1.0  0.49191881123304176  0.1294265029853463  0.7899874059390655  1.0000
  C   C36       1.0  0.3613162547417942  0.6572156509235256  0.8688192173428746  1.0000
  O   O1        1.0  0.27108456266008574  0.35418833183145193  0.6134018176667908  1.0000
  O   O2        1.0  0.9171164404986526  0.2580922884887542  0.6448933410317038  1.0000
  O   O3        1.0  0.6582113321589347  0.38394357032164084  0.7400085327312595  1.0000
  O   O4        1.0  0.7156616559460643  0.6379064856783714  0.3756962751041114  1.0000
  O   O5        1.0  0.07976113879128371  0.7397203290401677  0.3648379629772194  1.0000
  O   O6        1.0  0.34040297923062457  0.6273847659228551  0.2625247568613318  1.0000
  O   O7        1.0  0.0834502821658062  0.4620781119528842  0.6158331595680551  1.0000
  O   O8        1.0  0.6213011094577184  0.1533857969687702  0.5369049418230674  1.0000
  O   O9        1.0  0.46887060405067865  0.38220602781886737  0.845777064971891  1.0000
  O   O10       1.0  0.9132510686734819  0.5356115062927813  0.38219371871630864  1.0000
  O   O11       1.0  0.3806161154222564  0.8481786662719273  0.46494204094072705  1.0000
  O   O12       1.0  0.5341320406880214  0.6196810886989823  0.15464565116400306  1.0000
  O   O13       1.0  0.6268122716996698  0.3620050161029411  0.5521337165641854  1.0000
  O   O14       1.0  0.2659293480370692  0.1895140807202225  0.637326932882047  1.0000
  O   O15       1.0  0.07619169339049137  0.4455365539685516  0.8094163561883647  1.0000
  O   O16       1.0  0.3733699633646381  0.637979792760639  0.4450138922179789  1.0000
  O   O17       1.0  0.7369665724002985  0.8094590757196302  0.36357379426790704  1.0000
  O   O18       1.0  0.9298867121191279  0.5545261993417085  0.19109354212433524  1.0000
  O   O19       1.0  0.17402708208013004  0.0068958836183057  0.2768421067758595  1.0000
  O   O20       1.0  0.15993949577448763  0.26983262102421424  0.9950429690314876  1.0000
  O   O21       1.0  0.902471015603183  0.7207030106819446  0.7284498707701134  1.0000
  O   O22       1.0  0.8269488532118172  0.9951288706872033  0.7256270967595881  1.0000
  O   O23       1.0  0.8318557243719765  0.7299452711949925  0.004304975316053146  1.0000
  O   O24       1.0  0.10269684123227309  0.2751861894563135  0.26836784755205667  1.0000
  O   O25       1.0  0.2602558007664086  0.17373313435980003  0.4159223542294654  1.0000
  O   O26       1.0  0.08741181039018635  0.24238446059722205  0.826982475391759  1.0000
  O   O27       1.0  0.8401574391105484  0.5806489637079296  0.7557561376144335  1.0000
  O   O28       1.0  0.7414918132408345  0.8281701039665561  0.5867099293478404  1.0000
  O   O29       1.0  0.9151099307344168  0.7580233894841868  0.17248106205673966  1.0000
  O   O30       1.0  0.1559008191809923  0.41670354302095797  0.24293621498938484  1.0000
  O   O31       1.0  0.14927283750678538  0.7875888527787892  0.6057102813096193  1.0000
  O   O32       1.0  0.36080492439302964  0.820283072905653  0.21421265272269355  1.0000
  O   O33       1.0  0.5397959913141008  0.39641511912435584  0.18082881693804606  1.0000
  O   O34       1.0  0.8500378436124123  0.2128974225338283  0.39527873505696925  1.0000
  O   O35       1.0  0.6366045726630246  0.18270493970898366  0.7914436410930178  1.0000
  O   O36       1.0  0.4526454256477236  0.6045787915125587  0.816830768271508  1.0000
  O   O37       1.0  0.43733704904011705  0.7903344129920383  0.714656580264375  1.0000
  O   O38       1.0  0.6455505880043615  0.9216824037980016  0.20698283719966065  1.0000
  O   O39       1.0  0.7195568813374962  0.2862996739714987  0.07948949720822178  1.0000
  O   O40       1.0  0.5625850402830821  0.21046527383560937  0.28621229939990667  1.0000
  O   O41       1.0  0.34845682959684154  0.0758313823536483  0.7894904415358539  1.0000
  O   O42       1.0  0.2714929231956375  0.7111616891270386  0.9210693642535546  1.0000
