data_image0
_chemical_formula_structural       Cd2H52C74N6O12
_chemical_formula_sum              "Cd2 H52 C74 N6 O12"
_cell_length_a       11.689467403415318
_cell_length_b       12.271194636840802
_cell_length_c       12.379541246953346
_cell_angle_alpha    79.21926793804114
_cell_angle_beta     81.06260706397154
_cell_angle_gamma    63.14713425998347

_space_group_name_H-M_alt    "P 1"
_space_group_IT_number       1

loop_
  _space_group_symop_operation_xyz
  'x, y, z'

loop_
  _atom_site_type_symbol
  _atom_site_label
  _atom_site_symmetry_multiplicity
  _atom_site_fract_x
  _atom_site_fract_y
  _atom_site_fract_z
  _atom_site_occupancy
  Cd  Cd1       1.0  0.11517537375163998  0.6734205376848836  0.16503921236845537  1.0000
  Cd  Cd2       1.0  0.8848287393555622  0.3265771446252259  0.8349636411204102  1.0000
  H   H1        1.0  0.11900590208693267  0.6545778996475137  0.8008969306016809  1.0000
  H   H2        1.0  0.880992131690313  0.34541982140829935  0.19910683516416583  1.0000
  H   H3        1.0  0.18218194895038653  0.5362784931492685  0.6433667986818393  1.0000
  H   H4        1.0  0.8178157531178554  0.46372382439034265  0.3566361833439231  1.0000
  H   H5        1.0  0.3559732734611458  0.5432292458048167  0.5014575889648754  1.0000
  H   H6        1.0  0.6440213471654063  0.4567721914421341  0.4985435952960415  1.0000
  H   H7        1.0  0.19699166217088757  0.3037495825283472  0.11877202360714281  1.0000
  H   H8        1.0  0.8030072456420285  0.6962500022751001  0.8812272327992048  1.0000
  H   H9        1.0  0.369075360655252  0.8810824087529171  0.3245482540803906  1.0000
  H   H10       1.0  0.6309243943624239  0.11891718959316933  0.6754484483168071  1.0000
  H   H11       1.0  0.33143158869618367  0.9130646117859413  0.12508469296910354  1.0000
  H   H12       1.0  0.6685633833799616  0.0869340855414507  0.8749145117869404  1.0000
  H   H13       1.0  0.3057015214405894  0.6562804311212319  0.32800734191283004  1.0000
  H   H14       1.0  0.6943021834944931  0.3437200419824222  0.671991027923923  1.0000
  H   H15       1.0  0.514400556124258  0.665263043686295  0.33241177750687717  1.0000
  H   H16       1.0  0.48560069477958484  0.33474293304517033  0.6675891962009574  1.0000
  H   H17       1.0  0.5836706090107028  0.6375190300402381  0.9833094951642067  1.0000
  H   H18       1.0  0.41633359167954603  0.36248419652561376  0.016688300168276285  1.0000
  H   H19       1.0  0.37467377895187337  0.6247947882903517  0.9942107377211117  1.0000
  H   H20       1.0  0.6253299330735231  0.3752056784540515  0.005788440010263727  1.0000
  H   H21       1.0  0.7965350343018474  0.5296897876853419  0.0487679279285089  1.0000
  H   H22       1.0  0.20347204986270379  0.47030512538141517  0.9512341708688725  1.0000
  H   H23       1.0  0.6022583164119767  0.8128070735432402  0.26286678481099557  1.0000
  H   H24       1.0  0.3977441204959505  0.18719431388781518  0.7371332265223886  1.0000
  H   H25       1.0  0.8123944347537915  0.8217944838864425  0.2629162256404598  1.0000
  H   H26       1.0  0.18760973910554668  0.1782068924744138  0.7370835250423582  1.0000
  H   H27       1.0  0.052748459532288905  0.9527327697170592  0.17925761176772426  1.0000
  H   H28       1.0  0.947248745250441  0.0472686700023388  0.8207407578334838  1.0000
  H   H29       1.0  0.996127780307127  0.8071625000807929  0.5717077834295948  1.0000
  H   H30       1.0  0.003867355815188516  0.19284354719260216  0.4282900630820876  1.0000
  H   H31       1.0  0.030684970371346806  0.6817468335171242  0.42501625869706333  1.0000
  H   H32       1.0  0.9693118616908409  0.31825736519957804  0.5749816667251508  1.0000
  H   H33       1.0  0.022551500165398905  0.09004779235380059  0.314310579205916  1.0000
  H   H34       1.0  0.9774444689810484  0.9099582811807352  0.6856830975073649  1.0000
  H   H35       1.0  0.24101713275935308  0.12599521917351814  0.02523723609743909  1.0000
  H   H36       1.0  0.7589796172797492  0.8740053045701758  0.9747613684469487  1.0000
  H   H37       1.0  0.3303193361917776  0.13259134917173301  0.5867083149642555  1.0000
  H   H38       1.0  0.6696855066455213  0.8674027035042615  0.4132886241645082  1.0000
  H   H39       1.0  0.4625332120551207  0.675845172610231  0.516831246840461  1.0000
  H   H40       1.0  0.5374597126315591  0.32415811319341975  0.4831698585099389  1.0000
  H   H41       1.0  0.4862113293492951  0.8199323957886552  0.6128155869324772  1.0000
  H   H42       1.0  0.513786724168547  0.1800671818313972  0.3871854155884051  1.0000
  H   H43       1.0  0.41331841627729926  0.9528276466728726  0.7615146751608536  1.0000
  H   H44       1.0  0.5866778790181826  0.04717196109512398  0.2384841643267208  1.0000
  H   H45       1.0  0.9976505941807545  0.5522133135163259  0.058349251785216466  1.0000
  H   H46       1.0  0.0023539539294716834  0.4477834282052413  0.941656130005427  1.0000
  H   H47       1.0  0.3694324020713752  0.9592415957143601  0.4885083905473735  1.0000
  H   H48       1.0  0.6305728474076987  0.0407515418100743  0.5114878453046714  1.0000
  H   H49       1.0  0.17079781752322973  0.9415925597938472  0.9694124800243814  1.0000
  H   H50       1.0  0.8291994156207637  0.058408854488554596  0.030589121155323112  1.0000
  H   H51       1.0  0.20922179215632747  0.439698669491385  0.4490913886019783  1.0000
  H   H52       1.0  0.7907800330521227  0.5602944456587126  0.5509110238135692  1.0000
  C   C1        1.0  0.14785514219595078  0.7800642525443282  0.9453512200497087  1.0000
  C   C2        1.0  0.852146433326574  0.219937134062576  0.05464972950358061  1.0000
  C   C3        1.0  0.21912930390642069  0.8049983175489784  0.8409608247196374  1.0000
  C   C4        1.0  0.7808705559356356  0.1950030610503788  0.15904280916809196  1.0000
  C   C5        1.0  0.2711775062872447  0.8893983335392195  0.8385180050297195  1.0000
  C   C6        1.0  0.7288236074013456  0.1106021434512314  0.1614823715721272  1.0000
  C   C7        1.0  0.25318571368165976  0.7346646995573138  0.7506502132251853  1.0000
  C   C8        1.0  0.7468110307974741  0.2653339549036389  0.2493527703534113  1.0000
  C   C9        1.0  0.19351806266138272  0.6596767733571839  0.7385221214135527  1.0000
  C   C10       1.0  0.8064774137905957  0.3403227954311775  0.261482503661675  1.0000
  C   C11       1.0  0.22924159553500803  0.5936320752753447  0.6501031684184824  1.0000
  C   C12       1.0  0.7707551489441329  0.40636657918561536  0.3498998151601214  1.0000
  C   C13       1.0  0.32716363345195987  0.5979280285906442  0.5693377805295654  1.0000
  C   C14       1.0  0.6728305734425107  0.4020743301671033  0.430663299113455  1.0000
  C   C15       1.0  0.1982603201871028  0.4263191438156185  0.2786959360881768  1.0000
  C   C16       1.0  0.8017411393911188  0.5736767239725326  0.7213068400429989  1.0000
  C   C17       1.0  0.2395950736622865  0.2969524292802533  0.3327838445032967  1.0000
  C   C18       1.0  0.7604038215003542  0.703045292599704  0.6672189830426376  1.0000
  C   C19       1.0  0.26107005809740264  0.1966553531471789  0.2751052244301988  1.0000
  C   C20       1.0  0.7389300286292765  0.8033396487151098  0.7248922617070833  1.0000
  C   C21       1.0  0.2358554911896746  0.21135802929704536  0.1632918194178217  1.0000
  C   C22       1.0  0.7641446507291789  0.788638797333249  0.8367069429476147  1.0000
  C   C23       1.0  0.3097809591212055  0.0733127535228988  0.3327291795302969  1.0000
  C   C24       1.0  0.6902192450801364  0.9266858915161506  0.6672716669579232  1.0000
  C   C25       1.0  0.333983547885275  0.9729683114593968  0.27733154121808906  1.0000
  C   C26       1.0  0.6660200340151832  0.027026649184748005  0.7226678473019278  1.0000
  C   C27       1.0  0.311795272930965  0.9905716115318199  0.16774290369394143  1.0000
  C   C28       1.0  0.6882023653244431  0.009430763241020703  0.8322528072801987  1.0000
  C   C29       1.0  0.2635197746517761  0.27114685037149405  0.4455262214094873  1.0000
  C   C30       1.0  0.7364816763057789  0.7288508994178926  0.5544705598982347  1.0000
  C   C31       1.0  0.3699106483205555  0.6528760395410771  0.2533879971331389  1.0000
  C   C32       1.0  0.6300848336913845  0.3471253985300252  0.7466122489078729  1.0000
  C   C33       1.0  0.48497398701580635  0.6594743131788903  0.25525718528720626  1.0000
  C   C34       1.0  0.51503277099971  0.34052706565440616  0.7447397507358886  1.0000
  C   C35       1.0  0.5636675980890687  0.6568984792429405  0.15723347578881425  1.0000
  C   C36       1.0  0.4363382985410523  0.34310289876621175  0.842764398454193  1.0000
  C   C37       1.0  0.5252162435497995  0.6414590656455488  0.06160159296687337  1.0000
  C   C38       1.0  0.4747840568552491  0.3585432416480074  0.9384001901884177  1.0000
  C   C39       1.0  0.4085654750619197  0.6351846414865961  0.06715170553969325  1.0000
  C   C40       1.0  0.5914408904924571  0.36481763977975856  0.9328475495493791  1.0000
  C   C41       1.0  0.683049883233636  0.6696943021078497  0.15606985028348666  1.0000
  C   C42       1.0  0.31695466334624456  0.3303043152557025  0.8439303445783254  1.0000
  C   C43       1.0  0.7951860604705344  0.5971530263523306  0.09561656246973634  1.0000
  C   C44       1.0  0.20481512259085113  0.40284926268763144  0.9043867061495235  1.0000
  C   C45       1.0  0.6880955363171706  0.7525762067593862  0.216986698075317  1.0000
  C   C46       1.0  0.311909443735388  0.24742334565760868  0.7830108381594344  1.0000
  C   C47       1.0  0.8040610444734926  0.7583711737116656  0.2170985114146973  1.0000
  C   C48       1.0  0.19594435640146907  0.24162745083528145  0.7828999373325802  1.0000
  C   C49       1.0  0.04036426603452977  0.9244409067742012  0.26745071941952864  1.0000
  C   C50       1.0  0.9596346954402151  0.07556237843923701  0.7325446262861492  1.0000
  C   C51       1.0  0.007881244059511495  0.9613750152041192  0.4575589218182189  1.0000
  C   C52       1.0  0.9921125404822108  0.03863014706566759  0.5424360583834442  1.0000
  C   C53       1.0  0.008369849499708034  0.8448646713688673  0.4863209653821699  1.0000
  C   C54       1.0  0.9916245001699837  0.15514505641263546  0.5136763323326223  1.0000
  C   C55       1.0  0.02716284973976692  0.7734985973341326  0.40467503989333414  1.0000
  C   C56       1.0  0.9728356230701182  0.2265019280578643  0.5953216882112429  1.0000
  C   C57       1.0  0.023093741223029  0.0007560570231604003  0.3444661910268678  1.0000
  C   C58       1.0  0.9769000645896425  0.999249086168888  0.6555312128586621  1.0000
  C   C59       1.0  0.26100210423827963  0.1115392135480775  0.11120753221464952  1.0000
  C   C60       1.0  0.7389954945359345  0.8884594480962706  0.8887937052494196  1.0000
  C   C61       1.0  0.3114071089174928  0.14843001640869605  0.5004218933878093  1.0000
  C   C62       1.0  0.6885960253296588  0.8515640219005007  0.4995785379700237  1.0000
  C   C63       1.0  0.38596169419061965  0.6712904674048803  0.5777813076666048  1.0000
  C   C64       1.0  0.6140347312297934  0.32871464646337506  0.4222173210323277  1.0000
  C   C65       1.0  0.3497045219353084  0.7418218579465974  0.6662764033948675  1.0000
  C   C66       1.0  0.6502901893349886  0.2581813722721265  0.33373009656733643  1.0000
  C   C67       1.0  0.4081357132334348  0.8196031152815593  0.6736910050547068  1.0000
  C   C68       1.0  0.5918601485893689  0.1803955574329876  0.32631049305992127  1.0000
  C   C69       1.0  0.36845066854867525  0.8934614343824663  0.7554138050499333  1.0000
  C   C70       1.0  0.6315491077399501  0.1065381448858815  0.2445853210311313  1.0000
  C   C71       1.0  0.9069531116639524  0.6080862288890643  0.10133699524502758  1.0000
  C   C72       1.0  0.09305231048195135  0.39191237658014455  0.898663877186124  1.0000
  C   C73       1.0  0.3336523121790052  0.052944745718136205  0.4454011137420437  1.0000
  C   C74       1.0  0.6663491245979216  0.9470530167897521  0.5545940517764265  1.0000
  N   N1        1.0  0.044326127602069144  0.8115306837266019  0.29655551599817903  1.0000
  N   N2        1.0  0.9556724485018435  0.18847349756065063  0.7034429566680913  1.0000
  N   N3        1.0  0.3308148836514987  0.6431215617025359  0.16065688071046225  1.0000
  N   N4        1.0  0.669190531404091  0.3568770501259166  0.8393431838260668  1.0000
  N   N5        1.0  0.9117566716525118  0.6863659543551678  0.16138293291923134  1.0000
  N   N6        1.0  0.0882461931681249  0.31363449884659644  0.8386187988213081  1.0000
  O   O1        1.0  0.1896287703615727  0.4559958862474787  0.1752804107191466  1.0000
  O   O2        1.0  0.8103697039786651  0.5440027635025189  0.8247215043142617  1.0000
  O   O3        1.0  0.17220831128563668  0.5103280355803221  0.34119627189073753  1.0000
  O   O4        1.0  0.8277875024353067  0.48966880600697493  0.6588047578903584  1.0000
  O   O5        1.0  0.1392854812266293  0.6781944907264332  0.9700819758015768  1.0000
  O   O6        1.0  0.8607195287175387  0.32180316061158715  0.02992397894050926  1.0000
  O   O7        1.0  0.1078672435233301  0.8580345561849327  0.015840009577118515  1.0000
  O   O8        1.0  0.8921308241751403  0.1419650087166175  0.9841626087330156  1.0000
  O   O9        1.0  0.236648747527873  0.9642539717773463  0.9158550173347921  1.0000
  O   O10       1.0  0.763351497685008  0.03574651074820421  0.08414548959234476  1.0000
  O   O11       1.0  0.24510228457762645  0.3594059421168794  0.5053489265617372  1.0000
  O   O12       1.0  0.7549004359374366  0.6405890177031212  0.4946514001781921  1.0000
