data_image0
_chemical_formula_structural       Zn2H28C26N2Cl2O8
_chemical_formula_sum              "Zn2 H28 C26 N2 Cl2 O8"
_cell_length_a       9.535656759052577
_cell_length_b       10.85592400123167
_cell_length_c       10.911251662766832
_cell_angle_alpha    89.61350379060396
_cell_angle_beta     89.61701198335406
_cell_angle_gamma    90.93688618425858

_space_group_name_H-M_alt    "P 1"
_space_group_IT_number       1

loop_
  _space_group_symop_operation_xyz
  'x, y, z'

loop_
  _atom_site_type_symbol
  _atom_site_label
  _atom_site_symmetry_multiplicity
  _atom_site_fract_x
  _atom_site_fract_y
  _atom_site_fract_z
  _atom_site_occupancy
  Zn  Zn1       1.0  0.6470748852282854  0.49927513741379675  0.5024544735063045  1.0000
  Zn  Zn2       1.0  0.35438657889866937  0.5008574885183492  0.5006515420143387  1.0000
  H   H1        1.0  0.3940589731321325  0.9219460115705476  0.30437616672617906  1.0000
  H   H2        1.0  0.6277816726858562  0.3442617928662983  0.8821860114228527  1.0000
  H   H3        1.0  0.4470604405409376  0.3078794169821961  0.9005209626545536  1.0000
  H   H4        1.0  0.12663331471595282  0.35794412375531703  0.3712873833162078  1.0000
  H   H5        1.0  0.8770601441745356  0.3501086689700089  0.3809269440553963  1.0000
  H   H6        1.0  0.12272272912132819  0.5088733885961291  0.3102952599727544  1.0000
  H   H7        1.0  0.8736357890182092  0.4970459514076283  0.3109136906959549  1.0000
  H   H8        1.0  0.12209475343127713  0.3274452721515573  0.5908160574731554  1.0000
  H   H9        1.0  0.8725018159679154  0.3287319280234442  0.5976136980960334  1.0000
  H   H10       1.0  0.12494292966867704  0.6602577863380008  0.6056562969513166  1.0000
  H   H11       1.0  0.8762212588090819  0.66414401946183  0.5997875841702722  1.0000
  H   H12       1.0  0.1297908194089956  0.6841940706991423  0.44541763892269154  1.0000
  H   H13       1.0  0.8808900240891973  0.6795163963856156  0.4387829978528686  1.0000
  H   H14       1.0  0.12644493999942344  0.45642887579570174  0.6893879966238289  1.0000
  H   H15       1.0  0.8771949812702715  0.4605431103871354  0.6922122613588826  1.0000
  H   H16       1.0  0.628930017247363  0.08753166638299352  0.31731370864959973  1.0000
  H   H17       1.0  0.2543436251335295  0.06665191207503803  0.483760571014379  1.0000
  H   H18       1.0  0.7446860208402556  0.9340065233596352  0.5041637668349707  1.0000
  H   H19       1.0  0.37029003711861463  0.9130298603433432  0.6692625204387851  1.0000
  H   H20       1.0  0.6040588784798543  0.07941418001891523  0.6823666825894463  1.0000
  H   H21       1.0  0.7068757277970475  0.5873220535027315  0.1074540074396282  1.0000
  H   H22       1.0  0.28156340667055707  0.4495085267326645  0.1083476196525766  1.0000
  H   H23       1.0  0.5632663303733025  0.6870189571208274  0.10282416430060691  1.0000
  H   H24       1.0  0.3188064190665614  0.6079744538824912  0.12078748870881381  1.0000
  H   H25       1.0  0.585270361114766  0.6875470869099943  0.8890319460898793  1.0000
  H   H26       1.0  0.32335364237027875  0.6308501136313326  0.9068654191537888  1.0000
  H   H27       1.0  0.707966850857865  0.5673950227391487  0.8933051027113097  1.0000
  H   H28       1.0  0.2685359588629908  0.47579127265510124  0.8957153961938856  1.0000
  C   C1        1.0  0.5055242130746437  0.49702514273336373  0.2626858347219497  1.0000
  C   C2        1.0  0.4931874944486765  0.12493998504381665  0.49408096373239363  1.0000
  C   C3        1.0  0.6020117924758212  0.5985246088790177  0.0691583931166022  1.0000
  C   C4        1.0  0.35273776362241455  0.523131417804109  0.0758525847123366  1.0000
  C   C5        1.0  0.6050110869520822  0.5957027571422914  0.927764108150278  1.0000
  C   C6        1.0  0.3494988571762221  0.5366322356926645  0.9349237791976323  1.0000
  C   C7        1.0  0.5472282829674242  0.3714145139618807  0.06715123904374562  1.0000
  C   C8        1.0  0.502650549872456  0.49708817717216663  0.12148462239518662  1.0000
  C   C9        1.0  0.4928504601168058  0.5037403982181061  0.8809202333561855  1.0000
  C   C10       1.0  0.5303835464062631  0.37355508271688354  0.9261603648463534  1.0000
  C   C11       1.0  0.08129101534786541  0.4492833208188998  0.3840888424720887  1.0000
  C   C12       1.0  0.9191530045170355  0.4445878522689101  0.38660621049165667  1.0000
  C   C13       1.0  0.08098808235976661  0.42019602751521035  0.6045353467720673  1.0000
  C   C14       1.0  0.9186085803128137  0.4214752155171412  0.6071392310306507  1.0000
  C   C15       1.0  0.08340497106375011  0.6263611684803935  0.5183170773702983  1.0000
  C   C16       1.0  0.9214842097063211  0.6257705580352351  0.5159144220416607  1.0000
  C   C17       1.0  0.4946754570439893  0.26149641955639424  0.5000670369439035  1.0000
  C   C18       1.0  0.49451333840178796  0.5041148388870839  0.7405544729486166  1.0000
  C   C19       1.0  0.5048440006185829  0.738880332105275  0.49314214931940364  1.0000
  C   C20       1.0  0.5721862514756779  0.046935026478955394  0.3955004208161981  1.0000
  C   C21       1.0  0.36296399392364986  0.0359712811555823  0.4878064380031759  1.0000
  C   C22       1.0  0.4407467343058402  0.9584041961858106  0.3883029697636644  1.0000
  C   C23       1.0  0.5061859473932557  0.875699156055781  0.4911778527935767  1.0000
  C   C24       1.0  0.6361550673115063  0.9647398663262411  0.49911407486814596  1.0000
  C   C25       1.0  0.427149261370019  0.9539322949619307  0.5911526978428084  1.0000
  C   C26       1.0  0.5582603773974384  0.042113160174984905  0.5984101812724419  1.0000
  N   N1        1.0  0.1353745234114854  0.4989509970943756  0.5018725935293489  1.0000
  N   N2        1.0  0.8662365665816056  0.4974501434301075  0.5034849276037646  1.0000
  Cl  Cl1       1.0  0.7282139635466862  0.3384171924906241  0.10436942331160991  1.0000
  Cl  Cl2       1.0  0.44308347364056294  0.2456373299167538  0.1316887309452355  1.0000
  O   O1        1.0  0.6204385242635696  0.5255773497912343  0.3140986717744881  1.0000
  O   O2        1.0  0.3907959138564295  0.47027666061818957  0.3169709138207821  1.0000
  O   O3        1.0  0.6125404200214889  0.3149280559642805  0.47817480160046694  1.0000
  O   O4        1.0  0.38082116462283716  0.31452058114615516  0.5288124957504506  1.0000
  O   O5        1.0  0.6097070728969526  0.47581987098880074  0.6893658012960843  1.0000
  O   O6        1.0  0.3822038886841598  0.5325939328130999  0.6856328225528188  1.0000
  O   O7        1.0  0.6170608412798445  0.6851823831994466  0.5245369666477729  1.0000
  O   O8        1.0  0.38920682325634465  0.6857032087651121  0.4652823485132487  1.0000
