data_image0
_chemical_formula_structural       Gd4H32C36O32
_chemical_formula_sum              "Gd4 H32 C36 O32"
_cell_length_a       5.843824766554853
_cell_length_b       10.230074026693883
_cell_length_c       19.505406715345153
_cell_angle_alpha    81.29726821588886
_cell_angle_beta     81.390608148589
_cell_angle_gamma    73.4014388193707

_space_group_name_H-M_alt    "P 1"
_space_group_IT_number       1

loop_
  _space_group_symop_operation_xyz
  'x, y, z'

loop_
  _atom_site_type_symbol
  _atom_site_label
  _atom_site_symmetry_multiplicity
  _atom_site_fract_x
  _atom_site_fract_y
  _atom_site_fract_z
  _atom_site_occupancy
  Gd  Gd1       1.0  0.9593304029368284  0.6934862347674695  0.03114928393808483  1.0000
  Gd  Gd2       1.0  0.6839885724888287  0.8065728811626585  0.46879887923793734  1.0000
  Gd  Gd3       1.0  0.040671685533539115  0.3065107321160453  0.9688501402610398  1.0000
  Gd  Gd4       1.0  0.31601219402082864  0.19342821076514843  0.5312013920368983  1.0000
  H   H1        1.0  0.1610105524155046  0.5808362050799827  0.2727715650056908  1.0000
  H   H2        1.0  0.01490490872463129  0.9192115977929589  0.22707237832415925  1.0000
  H   H3        1.0  0.8389957002053092  0.4191474478385119  0.7272307396331926  1.0000
  H   H4        1.0  0.9850811382322107  0.0807977437205096  0.7729295406449239  1.0000
  H   H5        1.0  0.43093527475090093  0.4735713388630104  0.36680024482063095  1.0000
  H   H6        1.0  0.2720552455317389  0.0261757624830423  0.13311509917318895  1.0000
  H   H7        1.0  0.5690834278711492  0.5264194693658268  0.6331996901053002  1.0000
  H   H8        1.0  0.7279452346588402  0.9738222214571337  0.8668836693532569  1.0000
  H   H9        1.0  0.8554883095723159  0.3464341007841655  0.33434983454986883  1.0000
  H   H10       1.0  0.5369940310649001  0.1532716208825278  0.1656371331532186  1.0000
  H   H11       1.0  0.14453415213206722  0.6535659014577533  0.6656466918826709  1.0000
  H   H12       1.0  0.4630130464234766  0.8467243579897143  0.8343647214795382  1.0000
  H   H13       1.0  0.0013201782759324915  0.3098441633194681  0.21101629047910106  1.0000
  H   H14       1.0  0.522272763798405  0.1901550275610759  0.28893212818014297  1.0000
  H   H15       1.0  0.9986969351838231  0.6901588985011244  0.7889787807668895  1.0000
  H   H16       1.0  0.47772257039014954  0.8098470872859166  0.7110678397424479  1.0000
  H   H17       1.0  0.5015935848751674  0.759977474419749  0.9600019480678694  1.0000
  H   H18       1.0  0.22152290803220653  0.7400598140938256  0.5400270663273118  1.0000
  H   H19       1.0  0.4984095504057463  0.24001947564635628  0.03999645246832278  1.0000
  H   H20       1.0  0.7784679605436226  0.25994328035573483  0.4599699593301737  1.0000
  H   H21       1.0  0.6510059941706958  0.6096154072926722  0.9489857613991646  1.0000
  H   H22       1.0  0.2099895364674753  0.8903423150345019  0.5510723760219775  1.0000
  H   H23       1.0  0.34899149859795386  0.39037747404388773  0.051015215370526334  1.0000
  H   H24       1.0  0.7900112720804204  0.10965979522304539  0.44892731933570934  1.0000
  H   H25       1.0  0.5825044811174963  0.7949711088297847  0.1523650408838436  1.0000
  H   H26       1.0  0.5295477163710417  0.7050712747418048  0.34768466067861686  1.0000
  H   H27       1.0  0.41749687375642025  0.20502077481370407  0.8476377747324975  1.0000
  H   H28       1.0  0.47045965538497125  0.29493183243864957  0.6523131625340853  1.0000
  H   H29       1.0  0.43780326237641976  0.8126847828373586  0.08626779717405243  1.0000
  H   H30       1.0  0.33645507795140633  0.6874367105947813  0.4137765526911394  1.0000
  H   H31       1.0  0.5621923009497755  0.18731019529271006  0.9137356903371269  1.0000
  H   H32       1.0  0.6635548227802421  0.3125623077223736  0.5862226302827552  1.0000
  C   C1        1.0  0.6645611068897496  0.4232495822942184  0.1726202076282989  1.0000
  C   C2        1.0  0.26018028061996284  0.0769741041670642  0.32731620779586024  1.0000
  C   C3        1.0  0.3354397436963768  0.5767535462930766  0.8273789118122395  1.0000
  C   C4        1.0  0.739812646733384  0.9230331443721622  0.6726834396983037  1.0000
  C   C5        1.0  0.42768819512594536  0.5021188790542368  0.18994834620959014  1.0000
  C   C6        1.0  0.11954139895203762  0.9980964373151621  0.30994215220709975  1.0000
  C   C7        1.0  0.5723176753474989  0.4978770636370129  0.8100513015862632  1.0000
  C   C8        1.0  0.8804429175845884  0.0019128764260116988  0.6900580717565461  1.0000
  C   C9        1.0  0.3457912308354808  0.5210075613145762  0.26013674234186374  1.0000
  C   C10       1.0  0.12709318655850427  0.9790645189686417  0.23975890600816285  1.0000
  C   C11       1.0  0.6542134706869834  0.4789873533651273  0.739862889784149  1.0000
  C   C12       1.0  0.8728961229704169  0.020945816921546602  0.7602409813048966  1.0000
  C   C13       1.0  0.4970363006965855  0.46400083134239617  0.31208404930630007  1.0000
  C   C14       1.0  0.27357926624461026  0.03584346889653029  0.1878303254840574  1.0000
  C   C15       1.0  0.5029783447722308  0.5359951093055885  0.6879154854356884  1.0000
  C   C16       1.0  0.7264200141256867  0.9641596849168791  0.8121703294508792  1.0000
  C   C17       1.0  0.7346487485926545  0.39001945748787387  0.294243743163591  1.0000
  C   C18       1.0  0.4193414108323593  0.1098078668175901  0.2057014657430828  1.0000
  C   C19       1.0  0.2653650602567767  0.6099815916262443  0.7057539356555792  1.0000
  C   C20       1.0  0.5806630155399551  0.8901911560889956  0.7942979897957158  1.0000
  C   C21       1.0  0.8172293220893962  0.3692120655778481  0.22488004538971054  1.0000
  C   C22       1.0  0.41132307936861423  0.130825327461352  0.2750619419296286  1.0000
  C   C23       1.0  0.1827828784802537  0.6307900005929311  0.775116977756788  1.0000
  C   C24       1.0  0.588671250047625  0.8691778225327841  0.7249384737387388  1.0000
  C   C25       1.0  0.7726602875185479  0.3921527912523858  0.10026483152622502  1.0000
  C   C26       1.0  0.26468548120255525  0.10805752690090739  0.399693227721734  1.0000
  C   C27       1.0  0.22734160987813143  0.6078503205175069  0.8997332642513811  1.0000
  C   C28       1.0  0.7353194646007569  0.8919394774366866  0.6003084830698172  1.0000
  C   C29       1.0  0.26265743959957194  0.5676810567279202  0.13580330643977592  1.0000
  C   C30       1.0  0.9657206248372039  0.9326218480930065  0.3640528211967081  1.0000
  C   C31       1.0  0.7373434378815845  0.4323138638143149  0.864196678006664  1.0000
  C   C32       1.0  0.034264960452972726  0.06737510605961458  0.6359458054472  1.0000
  C   C33       1.0  0.8839252459565612  0.019059222255101805  0.982039708497311  1.0000
  C   C34       1.0  0.8850480215944432  0.4809437423863728  0.5179990645018364  1.0000
  C   C35       1.0  0.11604731991458572  0.9809275565058468  0.01796514269238968  1.0000
  C   C36       1.0  0.11492815374069237  0.5190840442381771  0.48199949408802206  1.0000
  O   O1        1.0  0.7854870898792183  0.27689396182003634  0.08095391915191649  1.0000
  O   O2        1.0  0.14280134860256066  0.22323741648695972  0.41906148514404856  1.0000
  O   O3        1.0  0.21451464333880935  0.7231070867911598  0.9190437132100726  1.0000
  O   O4        1.0  0.8571866349913719  0.7767750342872333  0.5809420163289403  1.0000
  O   O5        1.0  0.0581326967498655  0.6490169368703674  0.15160234759535027  1.0000
  O   O6        1.0  0.8581706874956581  0.8513583986513638  0.3482508516621366  1.0000
  O   O7        1.0  0.9418616752875052  0.35096258081912174  0.8483984719236518  1.0000
  O   O8        1.0  0.14183544240183485  0.1486488600725835  0.6517494338761978  1.0000
  O   O9        1.0  0.33108482775116244  0.542683324486596  0.07167810715399274  1.0000
  O   O10       1.0  0.9450734791331286  0.9575848798811395  0.428192783189239  1.0000
  O   O11       1.0  0.6689231704330609  0.45730958257899357  0.9283244515672778  1.0000
  O   O12       1.0  0.05492036891606485  0.042419296851449  0.5718075683934458  1.0000
  O   O13       1.0  0.781706627896043  0.9267183774687099  0.9823009715652731  1.0000
  O   O14       1.0  0.6907313267756192  0.5732557984537792  0.5177435650222223  1.0000
  O   O15       1.0  0.21828247144171092  0.0732868667727544  0.017701795333536635  1.0000
  O   O16       1.0  0.30930219064465114  0.42673601306340453  0.4822548965363325  1.0000
  O   O17       1.0  0.8150394859155486  0.14359734250062672  0.9544499171282368  1.0000
  O   O18       1.0  0.9133283664495195  0.3563998027795066  0.5456195273465739  1.0000
  O   O19       1.0  0.1849423705787103  0.8564088703885347  0.045549236162962393  1.0000
  O   O20       1.0  0.08668759303144206  0.6435879925036047  0.4543846944881409  1.0000
  O   O21       1.0  0.6644848929266522  0.699841372377371  0.9592315419950947  1.0000
  O   O22       1.0  0.3236980601895996  0.8001742114919922  0.5406358302654796  1.0000
  O   O23       1.0  0.3355206071512454  0.3001494256667456  0.04076775488666585  1.0000
  O   O24       1.0  0.6762991725721007  0.19983200444626453  0.4593635289939543  1.0000
  O   O25       1.0  0.8742881714324398  0.4758016312214579  0.06042604188924383  1.0000
  O   O26       1.0  0.41033227606644834  0.024454426949887403  0.4395113253533509  1.0000
  O   O27       1.0  0.1257146046218555  0.5241973904120414  0.9395733338940316  1.0000
  O   O28       1.0  0.5896583554231754  0.9755517838960158  0.5604877148839905  1.0000
  O   O29       1.0  0.5966544307410047  0.7723666845900395  0.10505885359663138  1.0000
  O   O30       1.0  0.4738689672983727  0.7276642256279756  0.39498891560339194  1.0000
  O   O31       1.0  0.40334451729769727  0.22763033274569713  0.8949436415912898  1.0000
  O   O32       1.0  0.5261388858246862  0.27233785481402617  0.6050089716949928  1.0000
