data_image0
_chemical_formula_structural       Sm4Cu6H60C48N12O48
_chemical_formula_sum              "Sm4 Cu6 H60 C48 N12 O48"
_cell_length_a       13.392907759928216
_cell_length_b       13.392905320699695
_cell_length_c       14.599715747000065
_cell_angle_alpha    89.99999980787764
_cell_angle_beta     89.99999052278099
_cell_angle_gamma    120.00010748361996

_space_group_name_H-M_alt    "P 1"
_space_group_IT_number       1

loop_
  _space_group_symop_operation_xyz
  'x, y, z'

loop_
  _atom_site_type_symbol
  _atom_site_label
  _atom_site_symmetry_multiplicity
  _atom_site_fract_x
  _atom_site_fract_y
  _atom_site_fract_z
  _atom_site_occupancy
  Sm  Sm1       1.0  0.666667398957685  0.333335111370033  0.3317016112221793  1.0000
  Sm  Sm2       1.0  0.33333212395064055  0.6666645632806479  0.16829845395035645  1.0000
  Sm  Sm3       1.0  0.3333356824721394  0.6666698764104667  0.6682985996035882  1.0000
  Sm  Sm4       1.0  0.6666676861837715  0.33333025582162884  0.8317024418205391  1.0000
  Cu  Cu1       1.0  0.49999930071950877  0.5000002538946617  0.5000014753027457  1.0000
  Cu  Cu2       1.0  0.500001207008424  1.421775742467564e-06  0.4999987375780606  1.0000
  Cu  Cu3       1.0  0.9999995047804546  0.4999997802877232  0.5000000672273757  1.0000
  Cu  Cu4       1.0  0.9999994454842352  0.4999997512536821  0.9999988429912178  1.0000
  Cu  Cu5       1.0  0.49999949365119556  0.9999985684536128  2.0125392268e-06  1.0000
  Cu  Cu6       1.0  0.500000850261124  0.5000001093529605  0.9999988811767792  1.0000
  H   H1        1.0  0.6390698282011018  0.677453012298841  0.5823715607981654  1.0000
  H   H2        1.0  0.32254938489575136  0.9616160850609814  0.5823715838034429  1.0000
  H   H3        1.0  0.03838212258491324  0.3609313558429292  0.582371607974295  1.0000
  H   H4        1.0  0.9616190333958843  0.3225491313270015  0.9176253250817368  1.0000
  H   H5        1.0  0.3609315134446049  0.038383281654937214  0.9176294817939378  1.0000
  H   H6        1.0  0.6774521036744263  0.6390691702946114  0.9176260304279964  1.0000
  H   H7        1.0  0.3609308131618931  0.32254694889627433  0.4176313898071768  1.0000
  H   H8        1.0  0.677452434219184  0.0383841917131278  0.4176265721879132  1.0000
  H   H9        1.0  0.9616173410271004  0.6390682897736679  0.4176279179069268  1.0000
  H   H10       1.0  0.03838129238889123  0.6774496521167634  0.0823728309097405  1.0000
  H   H11       1.0  0.6390703056696839  0.9616169951188595  0.08237415375615599  1.0000
  H   H12       1.0  0.3225492843541318  0.36093153756591784  0.0823728105082324  1.0000
  H   H13       1.0  0.8311481250850791  0.6942826355953997  0.5264622383618871  1.0000
  H   H14       1.0  0.3057163414385897  0.136863314789629  0.5264643356151524  1.0000
  H   H15       1.0  0.8631370608432648  0.16885099002737278  0.5264663477472524  1.0000
  H   H16       1.0  0.13686547375658617  0.30571864495727397  0.9735360657259733  1.0000
  H   H17       1.0  0.16885226210538246  0.8631359625561361  0.9735381158268197  1.0000
  H   H18       1.0  0.6942842073168408  0.8311465242117251  0.9735360209958157  1.0000
  H   H19       1.0  0.1688498451966965  0.3057155166908245  0.4735379724642995  1.0000
  H   H20       1.0  0.6942839843461857  0.8631354686541428  0.47353382037631764  1.0000
  H   H21       1.0  0.13686251827618892  0.8311470467511057  0.47353386307881346  1.0000
  H   H22       1.0  0.8631348520281111  0.6942801384864554  0.0264627752103479  1.0000
  H   H23       1.0  0.8311492414303672  0.13686313646615395  0.026463464888770695  1.0000
  H   H24       1.0  0.3057156873813156  0.1688526903183387  0.0264648747750584  1.0000
  H   H25       1.0  0.7403807146185246  0.7132223882108663  0.4475216671957937  1.0000
  H   H26       1.0  0.2867758041828452  0.027154941630449528  0.4475230745474121  1.0000
  H   H27       1.0  0.9728418189759583  0.25961985533857784  0.4475230211962681  1.0000
  H   H28       1.0  0.027155305165116918  0.2867770982889938  0.05247704584061099  1.0000
  H   H29       1.0  0.2596194989883785  0.9728425047805798  0.0524797650468756  1.0000
  H   H30       1.0  0.7132210623110997  0.7403761468734303  0.0524763066358602  1.0000
  H   H31       1.0  0.25961874899333287  0.286777257405653  0.552479228575109  1.0000
  H   H32       1.0  0.7132256993533166  0.9728441573920396  0.5524750814439727  1.0000
  H   H33       1.0  0.027158075722283643  0.7403793591915288  0.5524771896297621  1.0000
  H   H34       1.0  0.9728450206194952  0.7132216851547002  0.9475224800405471  1.0000
  H   H35       1.0  0.7403781557142111  0.027154469753817502  0.9475238705035522  1.0000
  H   H36       1.0  0.2867792634735126  0.25962263657026347  0.9475232192453049  1.0000
  H   H37       1.0  0.6871495903573436  0.6055381627903176  0.7033061037236834  1.0000
  H   H38       1.0  0.3944600875511954  0.08161042877397764  0.7033061282299469  1.0000
  H   H39       1.0  0.91838951560284  0.312852082311764  0.7033067722112634  1.0000
  H   H40       1.0  0.08161445206970812  0.3944651216399961  0.7966915306362736  1.0000
  H   H41       1.0  0.31284809977328376  0.9183892221134614  0.7966956204925494  1.0000
  H   H42       1.0  0.6055358054914283  0.6871474808806824  0.7966908044760286  1.0000
  H   H43       1.0  0.3128501042694651  0.39445826514999976  0.2966954769920562  1.0000
  H   H44       1.0  0.6055377672232254  0.9183893323504079  0.2966927127065517  1.0000
  H   H45       1.0  0.08160994800925901  0.6871475633048758  0.2966920687251146  1.0000
  H   H46       1.0  0.9183869359589286  0.6055355862205689  0.20330662535511118  1.0000
  H   H47       1.0  0.6871516794169424  0.08161160125449378  0.2033087000025375  1.0000
  H   H48       1.0  0.394463658120671  0.3128521647359577  0.2033080364603563  1.0000
  H   H49       1.0  0.7400369933692234  0.5380041674956929  0.6311608597223568  1.0000
  H   H50       1.0  0.4619987338771382  0.20203131025684237  0.6311608823372481  1.0000
  H   H51       1.0  0.7979662785217845  0.2599654087625326  0.6311615413857083  1.0000
  H   H52       1.0  0.20203285969770957  0.4619987304256625  0.8688360764571712  1.0000
  H   H53       1.0  0.25996482945821253  0.7979685050404084  0.8688401803211576  1.0000
  H   H54       1.0  0.5380031135210717  0.7400335989193751  0.8688374195457199  1.0000
  H   H55       1.0  0.25996451016661143  0.4619949315266325  0.3688400360483968  1.0000
  H   H56       1.0  0.538001160821182  0.7979679042733067  0.3688386435439455  1.0000
  H   H57       1.0  0.20203223835389408  0.7400307035991887  0.368837984495606  1.0000
  H   H58       1.0  0.7979670350007667  0.5380004841045647  0.1311620795343345  1.0000
  H   H59       1.0  0.7400385984938396  0.20203165622568514  0.1311627702839715  1.0000
  H   H60       1.0  0.4619982745074013  0.2599671089411189  0.1311621063353527  1.0000
  C   C1        1.0  0.7358349318595502  0.5531837382004454  0.4331090588289257  1.0000
  C   C2        1.0  0.446809602411058  0.18265286728689736  0.4331056577007287  1.0000
  C   C3        1.0  0.81733875982642  0.26414725773851444  0.4331056290680023  1.0000
  C   C4        1.0  0.18265085443282927  0.44681028280426466  0.0668882727895834  1.0000
  C   C5        1.0  0.26415328328773335  0.8173449470175529  0.0668916897665639  1.0000
  C   C6        1.0  0.5531949949113585  0.7358506862884724  0.0668937228615007  1.0000
  C   C7        1.0  0.2641630384220692  0.4468144140856936  0.5668925218869418  1.0000
  C   C8        1.0  0.5531902922874183  0.8173463472433298  0.5668924982907768  1.0000
  C   C9        1.0  0.18266058827808251  0.7358539967161731  0.5668938968132194  1.0000
  C   C10       1.0  0.8173484936718373  0.5531909716505085  0.9331098832019576  1.0000
  C   C11       1.0  0.7358459802527761  0.18265191200922715  0.9331098909492113  1.0000
  C   C12       1.0  0.44680383754310093  0.2641466038248766  0.9331058030197781  1.0000
  C   C13       1.0  0.7455879946758659  0.6510370720154127  0.4935061239865348  1.0000
  C   C14       1.0  0.34896122875363733  0.09454876246859809  0.49350684150928  1.0000
  C   C15       1.0  0.9054487824088542  0.25441016493358865  0.49350748329744215  1.0000
  C   C16       1.0  0.09454955639449747  0.3489621068194779  0.006491898560355499  1.0000
  C   C17       1.0  0.25441216530011734  0.9054500917650402  0.006494623843821  1.0000
  C   C18       1.0  0.6510359700393596  0.7455862304512312  0.006491854430741701  1.0000
  C   C19       1.0  0.2544111533572109  0.34896139584948577  0.5064947717844035  1.0000
  C   C20       1.0  0.6510398436962249  0.9054507676403459  0.5064913144821332  1.0000
  C   C21       1.0  0.0945507967106849  0.7455878718449255  0.5064920425837798  1.0000
  C   C22       1.0  0.9054495916389841  0.6510363610456193  0.9935055724863703  1.0000
  C   C23       1.0  0.7455884760629559  0.09454986943011792  0.9935076418166844  1.0000
  C   C24       1.0  0.3489631779938804  0.25441223741374586  0.9935076714505087  1.0000
  C   C25       1.0  0.6667840955375227  0.5523437077472906  0.6411953071975843  1.0000
  C   C26       1.0  0.44765615068946124  0.11443766203883851  0.6411953257323333  1.0000
  C   C27       1.0  0.8855610093060451  0.3332187683157245  0.6411959763346715  1.0000
  C   C28       1.0  0.1144407261083345  0.4476576494836877  0.8588036961004234  1.0000
  C   C29       1.0  0.3332155125432906  0.8855614410689013  0.8588057324271858  1.0000
  C   C30       1.0  0.5523429587575708  0.6667818610885661  0.8588022918670217  1.0000
  C   C31       1.0  0.33321783908461095  0.4476549601885792  0.35880558857313355  1.0000
  C   C32       1.0  0.5523425662575577  0.8855612369126361  0.3588035152041087  1.0000
  C   C33       1.0  0.11443696097589412  0.6667793839705779  0.3588028646018273  1.0000
  C   C34       1.0  0.8855606619202238  0.5523430583768419  0.14119514483580528  1.0000
  C   C35       1.0  0.6667861910635652  0.11444044454302124  0.14119721817807118  1.0000
  C   C36       1.0  0.44765725151969354  0.33321853119328176  0.14119586412445528  1.0000
  C   C37       1.0  0.5608107972412101  0.4354225274014992  0.6599217077599847  1.0000
  C   C38       1.0  0.564577811759321  0.12538536781583787  0.6599223936912892  1.0000
  C   C39       1.0  0.8746129554485975  0.43919341737379364  0.6599237386135215  1.0000
  C   C40       1.0  0.1253941044603267  0.5645841364898061  0.8400731931257468  1.0000
  C   C41       1.0  0.4391860889499595  0.874608463930336  0.8400738528317717  1.0000
  C   C42       1.0  0.4354152463936388  0.5608106254239759  0.8400731694645173  1.0000
  C   C43       1.0  0.4391903907159219  0.5645753938692408  0.34007850306595333  1.0000
  C   C44       1.0  0.4354201585225399  0.8746127844704219  0.3400771321900534  1.0000
  C   C45       1.0  0.12538501483342684  0.5608047349125443  0.34007441737813326  1.0000
  C   C46       1.0  0.8746077146544523  0.4354161402842323  0.1599263327552976  1.0000
  C   C47       1.0  0.5608143213982403  0.12539471494106638  0.1599270429390458  1.0000
  C   C48       1.0  0.5645841017108639  0.439190629030712  0.15992635641670458  1.0000
  N   N1        1.0  0.6520535041748161  0.6108572762543075  0.561001965945259  1.0000
  N   N2        1.0  0.38914375624052167  0.04119503321254571  0.5610019883651489  1.0000
  N   N3        1.0  0.958804454735109  0.34794741151863934  0.5610019435987468  1.0000
  N   N4        1.0  0.04119585380410484  0.3891429955508769  0.938996359126719  1.0000
  N   N5        1.0  0.34794618681154105  0.958804341731941  0.9389990731380351  1.0000
  N   N6        1.0  0.6108584215215702  0.6520523071289973  0.9389949446506661  1.0000
  N   N7        1.0  0.3479463905231769  0.38914193827568505  0.4390002997153033  1.0000
  N   N8        1.0  0.6108577472955546  0.9588040658099003  0.4389968525710728  1.0000
  N   N9        1.0  0.041194693298123974  0.6520510563463374  0.43899758228251073  1.0000
  N   N10       1.0  0.9588040408943784  0.6108562189793502  0.061001796864786684  1.0000
  N   N11       1.0  0.652054885637675  0.04119518837668321  0.0610045624121227  1.0000
  N   N12       1.0  0.38914147317691333  0.34794690740122997  0.061003211340839386  1.0000
  O   O1        1.0  0.6439163783348723  0.4549670016138806  0.4407578453065071  1.0000
  O   O2        1.0  0.5450331516129696  0.18894897763325963  0.4407544292273897  1.0000
  O   O3        1.0  0.8110436681444072  0.35608037588280445  0.44076125767337265  1.0000
  O   O4        1.0  0.18894944752620554  0.5450328787594001  0.05924086274057319  1.0000
  O   O5        1.0  0.35608350854819576  0.8110452485094015  0.05924153382793659  1.0000
  O   O6        1.0  0.45495854350113535  0.6439115326669552  0.0592394721290574  1.0000
  O   O7        1.0  0.3560824541190117  0.5450302884991914  0.5592464751886652  1.0000
  O   O8        1.0  0.45496898308108075  0.8110524768926339  0.5592409869845695  1.0000
  O   O9        1.0  0.1889536709796431  0.643915420900086  0.5592403230425518  1.0000
  O   O10       1.0  0.8110492694209698  0.4549660201921525  0.9407566083061809  1.0000
  O   O11       1.0  0.6439142616620758  0.18895011718699103  0.9407607318328033  1.0000
  O   O12       1.0  0.5450406045320975  0.3560869351980216  0.9407600537522002  1.0000
  O   O13       1.0  0.8158438877740155  0.5723931362650063  0.3776018075641829  1.0000
  O   O14       1.0  0.4276050270498787  0.2434467145201609  0.3776052632905831  1.0000
  O   O15       1.0  0.756550425508614  0.1841548755636566  0.3776086631364564  1.0000
  O   O16       1.0  0.2434509946149249  0.4276068324085074  0.12239551330051768  1.0000
  O   O17       1.0  0.18415877886690188  0.7565527490063388  0.1223968863665732  1.0000
  O   O18       1.0  0.5723920723720399  0.8158361254036778  0.1223934317488258  1.0000
  O   O19       1.0  0.1841536514216245  0.4276054471077514  0.6223970333723514  1.0000
  O   O20       1.0  0.572394752140923  0.7565541088480643  0.6223942625906104  1.0000
  O   O21       1.0  0.24344915361084002  0.8158431612148221  0.6223915476896025  1.0000
  O   O22       1.0  0.7565511400788769  0.5723946221172727  0.8776019577459664  1.0000
  O   O23       1.0  0.8158403691661746  0.24344571885855967  0.8776040094043652  1.0000
  O   O24       1.0  0.4276079378337912  0.1841614802883883  0.8776060941323678  1.0000
  O   O25       1.0  0.4752965275308157  0.3975294968269196  0.6050083165494229  1.0000
  O   O26       1.0  0.6024701587608805  0.07776396836077744  0.605004883426922  1.0000
  O   O27       1.0  0.9222416486248834  0.5247085726907484  0.605006227058432  1.0000
  O   O28       1.0  0.07776202713468917  0.6024692531289589  0.8949927590084883  1.0000
  O   O29       1.0  0.5247095484043102  0.9222437530739142  0.8949940934500162  1.0000
  O   O30       1.0  0.39753306666519  0.4752899481138543  0.8949947899443346  1.0000
  O   O31       1.0  0.5247042293397758  0.6024688555301554  0.3949939491110754  1.0000
  O   O32       1.0  0.3975329226692642  0.922241019419886  0.39499258761947686  1.0000
  O   O33       1.0  0.07775675274326946  0.47528914850906284  0.3949932988228824  1.0000
  O   O34       1.0  0.9222378675636307  0.3975299614011902  0.10500676687270531  1.0000
  O   O35       1.0  0.4752937640401386  0.0777580170302201  0.10500954209995679  1.0000
  O   O36       1.0  0.6024668280332083  0.5247092664163377  0.10500405099201518  1.0000
  O   O37       1.0  0.5616903259875062  0.3789313574710108  0.7288346934539405  1.0000
  O   O38       1.0  0.621060338981188  0.18274387364260758  0.7288367445605674  1.0000
  O   O39       1.0  0.8172516835154797  0.43831480760604796  0.7288339887474818  1.0000
  O   O40       1.0  0.18274833546728794  0.6210649892396489  0.7711663674880214  1.0000
  O   O41       1.0  0.4383124802516464  0.8172556346837111  0.7711670321088063  1.0000
  O   O42       1.0  0.37893323983330185  0.5616855160216973  0.7711732021975736  1.0000
  O   O43       1.0  0.43831281733018584  0.6210616217778978  0.271162777592501  1.0000
  O   O44       1.0  0.37893519123368  0.8172492520581899  0.2711668909900382  1.0000
  O   O45       1.0  0.18274361568507666  0.561681535771278  0.2711634822995421  1.0000
  O   O46       1.0  0.8172549769774022  0.3789367808646063  0.2288352132274198  1.0000
  O   O47       1.0  0.561690801249597  0.18275213968657775  0.22883180882724471  1.0000
  O   O48       1.0  0.6210656771848165  0.4383161695194032  0.22882700862852798  1.0000
