data_image0
_chemical_formula_structural       Cd2H24C32N8O10
_chemical_formula_sum              "Cd2 H24 C32 N8 O10"
_cell_length_a       9.014598693884036
_cell_length_b       9.942285090809351
_cell_length_c       11.19624388140128
_cell_angle_alpha    91.44229368910506
_cell_angle_beta     98.38138367372316
_cell_angle_gamma    107.72868651847422

_space_group_name_H-M_alt    "P 1"
_space_group_IT_number       1

loop_
  _space_group_symop_operation_xyz
  'x, y, z'

loop_
  _atom_site_type_symbol
  _atom_site_label
  _atom_site_symmetry_multiplicity
  _atom_site_fract_x
  _atom_site_fract_y
  _atom_site_fract_z
  _atom_site_occupancy
  Cd  Cd1       1.0  0.5092083134725058  0.5846174933306187  0.7173943454464792  1.0000
  Cd  Cd2       1.0  0.49079572028739443  0.4153829227897958  0.282608519566196  1.0000
  H   H1        1.0  0.7247321485712916  0.234155579526707  0.5347035994292212  1.0000
  H   H2        1.0  0.27526733729342817  0.7658444216045834  0.46529244363085104  1.0000
  H   H3        1.0  0.48912791128987726  0.8626432263025235  0.8127179346856083  1.0000
  H   H4        1.0  0.5108626704246008  0.13735711636837783  0.18727611521264012  1.0000
  H   H5        1.0  0.9056113156083968  0.6478610245153149  0.7333699108589897  1.0000
  H   H6        1.0  0.09440224264000818  0.3521370010204805  0.2666323181548123  1.0000
  H   H7        1.0  0.5286388538881894  0.6533226288053983  0.020155370672810587  1.0000
  H   H8        1.0  0.47136569635103603  0.34668399422615437  0.9798440656064712  1.0000
  H   H9        1.0  0.7442975039911417  0.7299821683238007  0.48051310176249024  1.0000
  H   H10       1.0  0.2556894819060389  0.2700045202781993  0.5194865785175793  1.0000
  H   H11       1.0  0.46407555122169003  0.10671519176469249  0.8295448253355673  1.0000
  H   H12       1.0  0.5359153350926961  0.8932861612766915  0.17044480927865643  1.0000
  H   H13       1.0  0.10052225202658596  0.7066043345139476  0.18368106324160038  1.0000
  H   H14       1.0  0.899477791420942  0.2933937070986587  0.8163212762285568  1.0000
  H   H15       1.0  0.27706624040528277  0.6929964912587322  0.03488322039459039  1.0000
  H   H16       1.0  0.7229459969972112  0.3070098006319881  0.9651278836611041  1.0000
  H   H17       1.0  0.7935021015630567  0.989404349288243  0.4318038147221017  1.0000
  H   H18       1.0  0.20648237795538193  0.010581018493454102  0.5681866054592959  1.0000
  H   H19       1.0  0.7594169037249401  0.683878212177049  0.1814509063046188  1.0000
  H   H20       1.0  0.2405875977226017  0.3161325343562567  0.8185476839097703  1.0000
  H   H21       1.0  0.3075580835173141  0.5343694412411037  0.48857854460473493  1.0000
  H   H22       1.0  0.6924446984276643  0.46563914275527185  0.5114233773219752  1.0000
  H   H23       1.0  0.22738063910369988  0.563498306835008  0.602187097920563  1.0000
  H   H24       1.0  0.7726249726465753  0.43651258149425587  0.3978169911495613  1.0000
  C   C1        1.0  0.5916231159492042  0.18226511750003027  0.6838586451766844  1.0000
  C   C2        1.0  0.40837525333724056  0.8177347507879276  0.3161327915847423  1.0000
  C   C3        1.0  0.6750451947834009  0.15423219681236588  0.5950479833026492  1.0000
  C   C4        1.0  0.32495373836140123  0.8457657030042827  0.4049488573117729  1.0000
  C   C5        1.0  0.5626547500393358  0.32181585763829185  0.6959801460936319  1.0000
  C   C6        1.0  0.437342185517835  0.6781828853411156  0.3040128847673174  1.0000
  C   C7        1.0  0.6849218578120359  0.017185453705742797  0.584970375699065  1.0000
  C   C8        1.0  0.3150710435039485  0.9828109774342764  0.41502837751890803  1.0000
  C   C9        1.0  0.5397810795684209  0.9429953448346496  0.7530750457337092  1.0000
  C   C10       1.0  0.460211730439724  0.05700932435625108  0.24692112279741  1.0000
  C   C11       1.0  0.9462522465960321  0.6633474233650744  0.8305967441835664  1.0000
  C   C12       1.0  0.053755226870300994  0.3366315485429254  0.16940716396366182  1.0000
  C   C13       1.0  0.9016282934758948  0.6845225982310411  0.03979497982477645  1.0000
  C   C14       1.0  0.0983755646451954  0.3154685157522295  0.9602095298163107  1.0000
  C   C15       1.0  0.8459323146618588  0.6672297498065658  0.9132851056904272  1.0000
  C   C16       1.0  0.1540766329359187  0.3327679502664295  0.086719226941554  1.0000
  C   C17       1.0  0.20762352806275428  0.6576005435988533  0.7888343634857691  1.0000
  C   C18       1.0  0.7923869849742998  0.3424076465882634  0.211172978317812  1.0000
  C   C19       1.0  0.6170233856313629  0.912010866662115  0.6612526984938611  1.0000
  C   C20       1.0  0.3829705834712059  0.08798982082299742  0.3387498149578789  1.0000
  C   C21       1.0  0.6462287915828996  0.6621246085443744  0.0028196455619706883  1.0000
  C   C22       1.0  0.35377700419570596  0.33787385556384203  0.9971816263603515  1.0000
  C   C23       1.0  0.7136807994689107  0.8098910360090058  0.531516064619197  1.0000
  C   C24       1.0  0.28630352598624853  0.1901026593498827  0.46848069644612184  1.0000
  C   C25       1.0  0.5266633986270011  0.07794740711732828  0.7618521037838591  1.0000
  C   C26       1.0  0.47332571311759597  0.9220559158415114  0.2381409090348683  1.0000
  C   C27       1.0  0.10195796657173155  0.6732916839034856  0.8767153070468439  1.0000
  C   C28       1.0  0.8980534574397298  0.32671143363367616  0.12329476194768316  1.0000
  C   C29       1.0  0.05762516030689102  0.6956476158602171  0.08666427930467083  1.0000
  C   C30       1.0  0.9423723502470482  0.3043450888619148  0.913340356816633  1.0000
  C   C31       1.0  0.15553878937549828  0.6886237701145744  0.0031286950944461973  1.0000
  C   C32       1.0  0.8444689112702336  0.31137803700105593  0.9968817884160048  1.0000
  N   N1        1.0  0.6856241127649129  0.6529442732519327  0.8941213876727616  1.0000
  N   N2        1.0  0.31438342620576526  0.3470522657019827  0.1058809688304407  1.0000
  N   N3        1.0  0.6365920131623284  0.78471888740129  0.6250266802444102  1.0000
  N   N4        1.0  0.3634002866420404  0.2152795659258401  0.3749720244630268  1.0000
  N   N5        1.0  0.7473496384570453  0.948349714516631  0.5052546486669769  1.0000
  N   N6        1.0  0.25264643978028545  0.0516459167776446  0.4947435950323468  1.0000
  N   N7        1.0  0.7715469620496123  0.682614569579563  0.09257824361461789  1.0000
  N   N8        1.0  0.22845850543956917  0.31738697184940184  0.9074230272985278  1.0000
  O   O1        1.0  0.45671091190050106  0.3313798633845266  0.7565230671453449  1.0000
  O   O2        1.0  0.5432857692611107  0.6686177976033462  0.24346723854300484  1.0000
  O   O3        1.0  0.2866125942924711  0.50162540922706  0.5697513700041981  1.0000
  O   O4        1.0  0.7133907466479812  0.49838526713133274  0.43024886181108707  1.0000
  O   O5        1.0  0.1618777766935366  0.6641148201642721  0.6769131662499817  1.0000
  O   O6        1.0  0.8381370612208628  0.33589265825727205  0.32309380954821176  1.0000
  O   O7        1.0  0.6432880131025202  0.42793090323904437  0.6456160184505891  1.0000
  O   O8        1.0  0.35670914060960957  0.5720730273283862  0.3543771064039092  1.0000
  O   O9        1.0  0.3371184779207042  0.6352651646306099  0.8333963162168417  1.0000
  O   O10       1.0  0.662888161213985  0.3647323771873019  0.1666095145027597  1.0000
