data_image0
_chemical_formula_structural       Dy4P4H60C84N4O44
_chemical_formula_sum              "Dy4 P4 H60 C84 N4 O44"
_cell_length_a       11.572723568712421
_cell_length_b       14.970895586031698
_cell_length_c       17.451431689003492
_cell_angle_alpha    89.99994605276765
_cell_angle_beta     90.00004956228028
_cell_angle_gamma    91.32367758799913

_space_group_name_H-M_alt    "P 1"
_space_group_IT_number       1

loop_
  _space_group_symop_operation_xyz
  'x, y, z'

loop_
  _atom_site_type_symbol
  _atom_site_label
  _atom_site_symmetry_multiplicity
  _atom_site_fract_x
  _atom_site_fract_y
  _atom_site_fract_z
  _atom_site_occupancy
  Dy  Dy1       1.0  0.9225327393992016  0.9056675852013356  0.9254070677152768  1.0000
  Dy  Dy2       1.0  0.5774675995789805  0.5943332487639663  0.4254068565288164  1.0000
  Dy  Dy3       1.0  0.07746698629066628  0.09433336205948711  0.07459271797520019  1.0000
  Dy  Dy4       1.0  0.42253210749172604  0.4056670303566676  0.5745929291619232  1.0000
  P   P1        1.0  0.6655673587612155  0.7496182212975809  0.9226955317758011  1.0000
  P   P2        1.0  0.8344320940114328  0.7503819463998269  0.4226959147205562  1.0000
  P   P3        1.0  0.3344323483094911  0.25038205782304596  0.07730425391493868  1.0000
  P   P4        1.0  0.1655684585717481  0.24961766562174145  0.57730501700847  1.0000
  H   H1        1.0  0.8923734625420958  0.36306390007381845  0.1716421869389606  1.0000
  H   H2        1.0  0.6076249223607133  0.13693597540269312  0.6716418618287392  1.0000
  H   H3        1.0  0.1076262445282481  0.6369363790471214  0.8283570257328918  1.0000
  H   H4        1.0  0.39237390195955146  0.86306363453631  0.3283573508431274  1.0000
  H   H5        1.0  0.8144891669981504  0.005738479751713  0.7778527442028673  1.0000
  H   H6        1.0  0.6855102174004628  0.4942612826113831  0.2778522718567231  1.0000
  H   H7        1.0  0.1855105028345889  0.9942604630882241  0.2221476145072856  1.0000
  H   H8        1.0  0.31449035380114754  0.5057389975509919  0.7221475138342652  1.0000
  H   H9        1.0  0.7433717450330377  0.9951638163969106  0.8538810434737413  1.0000
  H   H10       1.0  0.7566276014159854  0.5048357571227342  0.35388043415821346  1.0000
  H   H11       1.0  0.25662794341887  0.0048357945832223  0.14611931523614888  1.0000
  H   H12       1.0  0.24337210565472128  0.49516452199789274  0.6461193515325261  1.0000
  H   H13       1.0  0.5992884558698605  0.8891547010629919  0.022978442974100195  1.0000
  H   H14       1.0  0.9007113888343738  0.6108472335726346  0.5229794528179781  1.0000
  H   H15       1.0  0.4007130725573943  0.1108489208430186  0.9770196236591459  1.0000
  H   H16       1.0  0.09928826237883467  0.3891510411274196  0.47702033287355755  1.0000
  H   H17       1.0  0.410174562207956  0.9596035378971876  0.049937180048431194  1.0000
  H   H18       1.0  0.08982438392332877  0.5403974420303826  0.5499380687591753  1.0000
  H   H19       1.0  0.5898260276120907  0.04039741040599409  0.9500614596045053  1.0000
  H   H20       1.0  0.9101752859086787  0.4596015008101729  0.4500611439132101  1.0000
  H   H21       1.0  0.2387858041637543  0.7721337499526725  0.8994044747118082  1.0000
  H   H22       1.0  0.2612143956347309  0.7278648509890786  0.3994036878756688  1.0000
  H   H23       1.0  0.7612147111807276  0.22786452578881713  0.10059588399886368  1.0000
  H   H24       1.0  0.7387853114359756  0.2721354281315485  0.600596097815071  1.0000
  H   H25       1.0  0.42594116952711397  0.7017299895424925  0.8703089496209344  1.0000
  H   H26       1.0  0.0740598945587223  0.7982699799930798  0.37030857175711424  1.0000
  H   H27       1.0  0.5740601913312985  0.2982676190986949  0.1296948472035808  1.0000
  H   H28       1.0  0.9259398683713015  0.20173230354659205  0.6296940790272743  1.0000
  H   H29       1.0  0.533219998341579  0.665335767546928  0.0492491384392011  1.0000
  H   H30       1.0  0.9667807812129822  0.8346674761757383  0.5492488592961067  1.0000
  H   H31       1.0  0.46677972734792644  0.3346651797142001  0.9507500742323814  1.0000
  H   H32       1.0  0.03321980860815899  0.16533347212651958  0.4507514994135065  1.0000
  H   H33       1.0  0.5825256595644959  0.5440930364197455  0.1406520175453636  1.0000
  H   H34       1.0  0.917476081994387  0.9559094419646214  0.6406516122356505  1.0000
  H   H35       1.0  0.41747493025592053  0.45590791188313057  0.8593471951264675  1.0000
  H   H36       1.0  0.08252450782675422  0.04409150633764369  0.3593487464739553  1.0000
  H   H37       1.0  0.9167584990427214  0.5226986830621954  0.0351432998731269  1.0000
  H   H38       1.0  0.5832404225580702  0.9773005648960547  0.5351444049329572  1.0000
  H   H39       1.0  0.08324207215888892  0.4773015971001798  0.9648564858178617  1.0000
  H   H40       1.0  0.4167583831441276  0.022698376901829  0.4648565267958418  1.0000
  H   H41       1.0  0.8701034266678744  0.6443970550126538  0.9441746728769688  1.0000
  H   H42       1.0  0.629896016242128  0.8556017533180549  0.4441759997373253  1.0000
  H   H43       1.0  0.12989626178329416  0.3556025559680903  0.055824539795146684  1.0000
  H   H44       1.0  0.37010451772151487  0.1443971905636232  0.5558243589730765  1.0000
  H   H45       1.0  0.7118125779277304  0.8242653887233472  0.7755952628251421  1.0000
  H   H46       1.0  0.7881866873661564  0.6757349370775926  0.2755956795808672  1.0000
  H   H47       1.0  0.2881871105234453  0.17573422225739674  0.22440394984697318  1.0000
  H   H48       1.0  0.21181305694324945  0.324266678323113  0.7244046791282344  1.0000
  H   H49       1.0  0.6681388704773567  0.7680414783911543  0.642591285653779  1.0000
  H   H50       1.0  0.8318602253034014  0.731958990362635  0.1425916820066462  1.0000
  H   H51       1.0  0.33186083659298043  0.23195880072978528  0.3574079270180732  1.0000
  H   H52       1.0  0.16813948176803  0.26804128875738087  0.8574092497218686  1.0000
  H   H53       1.0  0.5523018785366602  0.5155176309430729  0.7350840524201914  1.0000
  H   H54       1.0  0.947699908899281  0.9844820733844983  0.23508431114065326  1.0000
  H   H55       1.0  0.4477003836880725  0.48448131502271946  0.2649151602529329  1.0000
  H   H56       1.0  0.05230066230232919  0.0155182067778767  0.7649154745503282  1.0000
  H   H57       1.0  0.5957325894830701  0.5695023860335622  0.8675843468227527  1.0000
  H   H58       1.0  0.9042676571813999  0.9304978419392212  0.3675846242758495  1.0000
  H   H59       1.0  0.40426882722991303  0.43049722703067056  0.1324148658498601  1.0000
  H   H60       1.0  0.09573204988966919  0.06950243718110728  0.6324157344337777  1.0000
  C   C1        1.0  0.5244908894599689  0.7905574204185158  0.9457434406046731  1.0000
  C   C2        1.0  0.9755103395678401  0.7094433927308968  0.4457433643894859  1.0000
  C   C3        1.0  0.47551142862371876  0.2094435299666202  0.054258064143212395  1.0000
  C   C4        1.0  0.024491077146606696  0.2905562203321068  0.5542581403586766  1.0000
  C   C5        1.0  0.5197931681219004  0.8626329488623413  0.9971076773338651  1.0000
  C   C6        1.0  0.9802072994769161  0.6373691443193366  0.49710766202559137  1.0000
  C   C7        1.0  0.4802082858294198  0.13736800048228304  0.0028915353382145993  1.0000
  C   C8        1.0  0.0197915620813163  0.3626318019003563  0.5028909776268546  1.0000
  C   C9        1.0  0.4143742311574172  0.9020275612915113  0.0119603776273181  1.0000
  C   C10       1.0  0.0856246293338359  0.5979721231735198  0.5119606444089229  1.0000
  C   C11       1.0  0.5856272227942654  0.09797338805280018  0.9880394080636493  1.0000
  C   C12       1.0  0.9143741577484619  0.4020261504847866  0.48803914128236414  1.0000
  C   C13       1.0  0.31323269794382474  0.8700619521956412  0.9761477302612819  1.0000
  C   C14       1.0  0.18676590864058076  0.629937900458934  0.4761475529084862  1.0000
  C   C15       1.0  0.6867696015192308  0.12993833005053548  0.023851482411309598  1.0000
  C   C16       1.0  0.8132311874182387  0.3700617073962675  0.5238522327817776  1.0000
  C   C17       1.0  0.3179976532152081  0.7965540593490347  0.9266532547650215  1.0000
  C   C18       1.0  0.18200171718302016  0.7034445112621128  0.4266558804042901  1.0000
  C   C19       1.0  0.6820046462485864  0.2034462228965168  0.07334710394535189  1.0000
  C   C20       1.0  0.8179979340320072  0.2965537634363997  0.5733467703816828  1.0000
  C   C21       1.0  0.42314589769946304  0.7569886210681743  0.9109577404600414  1.0000
  C   C22       1.0  0.0768543540618793  0.7430113037365659  0.4109568358118167  1.0000
  C   C23       1.0  0.5768554817762918  0.24300965571475067  0.0890431912697593  1.0000
  C   C24       1.0  0.9231445074974474  0.2569896424822034  0.5890435228972989  1.0000
  C   C25       1.0  0.20082855558856488  0.9165410133882614  0.9877260989781291  1.0000
  C   C26       1.0  0.29916918300242656  0.5834581576398746  0.4877260235388192  1.0000
  C   C27       1.0  0.7991702501125387  0.08345792841054592  0.0122731136940075  1.0000
  C   C28       1.0  0.7008305240679178  0.41654212148106495  0.5122731891330331  1.0000
  C   C29       1.0  0.6977581344159987  0.6618162114683201  0.9901943364972681  1.0000
  C   C30       1.0  0.8022414043839489  0.8381838836810258  0.49019520310602616  1.0000
  C   C31       1.0  0.30224070852342777  0.3381840666108714  0.0098048761743357  1.0000
  C   C32       1.0  0.19775828406832113  0.16181572729879426  0.5098057286227587  1.0000
  C   C33       1.0  0.6171276360833743  0.6339518746472095  0.045824814258537606  1.0000
  C   C34       1.0  0.8828731018692508  0.8660500364749666  0.545825607752306  1.0000
  C   C35       1.0  0.3828720709869628  0.36604840447373016  0.954174398413315  1.0000
  C   C36       1.0  0.1171274879522528  0.1339509118269859  0.45417532397619437  1.0000
  C   C37       1.0  0.6442750510328209  0.5660717416701644  0.09699600926357019  1.0000
  C   C38       1.0  0.8557257521361805  0.9339301144541138  0.5969950133254187  1.0000
  C   C39       1.0  0.35572465603788567  0.43392853745046983  0.9030037764271697  1.0000
  C   C40       1.0  0.1442748190657994  0.06607016570795568  0.40300534538445726  1.0000
  C   C41       1.0  0.7518657577433812  0.5253460487358482  0.0927167514545033  1.0000
  C   C42       1.0  0.7481349841152535  0.9746538075663265  0.5927173800640304  1.0000
  C   C43       1.0  0.24813481345859145  0.47465423142622126  0.9072836072553726  1.0000
  C   C44       1.0  0.25186470433665414  0.025345803413799193  0.4072829786458598  1.0000
  C   C45       1.0  0.8329237345686022  0.554061952725334  0.037523583667009995  1.0000
  C   C46       1.0  0.6670769369472466  0.9459379628979221  0.5375253350890077  1.0000
  C   C47       1.0  0.16707599112090316  0.4459389945358011  0.9624756290045794  1.0000
  C   C48       1.0  0.3329236156359272  0.0540616491236463  0.46247559664001864  1.0000
  C   C49       1.0  0.8064171585772825  0.6219690447402966  0.9864651767728532  1.0000
  C   C50       1.0  0.6935823754701714  0.8780310544169011  0.4864665219885326  1.0000
  C   C51       1.0  0.1935825484930618  0.3780312343806428  0.0135340358989993  1.0000
  C   C52       1.0  0.3064173129820986  0.12196855656291918  0.5135344097402523  1.0000
  C   C53       1.0  0.7772081825564497  0.45139255208930246  0.1470693492679089  1.0000
  C   C54       1.0  0.7227910537788844  0.0486080189796851  0.6470697344743  1.0000
  C   C55       1.0  0.22279325277643378  0.5486077291145149  0.8529310094422158  1.0000
  C   C56       1.0  0.2772069064108393  0.9513915899172644  0.35293005121621224  1.0000
  C   C57       1.0  0.6536124071857258  0.7006862823664263  0.829153079559937  1.0000
  C   C58       1.0  0.846387790498639  0.7993139869119827  0.3291540028463942  1.0000
  C   C59       1.0  0.3463881267775547  0.2993126615155645  0.1708467061315773  1.0000
  C   C60       1.0  0.15361278070334086  0.20068629325008658  0.6708463558634747  1.0000
  C   C61       1.0  0.6764631203682112  0.756888535789649  0.7661708382449604  1.0000
  C   C62       1.0  0.8235361142954574  0.7431111320001946  0.2661717938414511  1.0000
  C   C63       1.0  0.3235365680822325  0.2431110751917132  0.23382722838937298  1.0000
  C   C64       1.0  0.17646184589499814  0.25688847689613675  0.7338291378868362  1.0000
  C   C65       1.0  0.6523083498908804  0.725956337528558  0.6926301726100519  1.0000
  C   C66       1.0  0.8476916737955235  0.7740440784848273  0.19263111705451758  1.0000
  C   C67       1.0  0.3476913571798264  0.2740439415920761  0.307369613080688  1.0000
  C   C68       1.0  0.15230889740572448  0.2259562016778531  0.8073680956175835  1.0000
  C   C69       1.0  0.6045818607092102  0.639956816882666  0.68194167233748  1.0000
  C   C70       1.0  0.8954172293659468  0.8600416051567379  0.1819420016311923  1.0000
  C   C71       1.0  0.3954178091227972  0.3600421259578894  0.31805754033489814  1.0000
  C   C72       1.0  0.10458332321723418  0.13995800686483045  0.8180589300978339  1.0000
  C   C73       1.0  0.586156165301709  0.5830396671959762  0.7446861123692371  1.0000
  C   C74       1.0  0.9138447888603096  0.916960693909715  0.24468640624110088  1.0000
  C   C75       1.0  0.41384525141128137  0.4169599458682569  0.25531310030336846  1.0000
  C   C76       1.0  0.08615576372250189  0.08303891811215887  0.7553139524690378  1.0000
  C   C77       1.0  0.6108558757063277  0.6132476145572524  0.8183969650627602  1.0000
  C   C78       1.0  0.8891451723999209  0.8867526673239182  0.3183972691895534  1.0000
  C   C79       1.0  0.38914554100666265  0.3867519985069876  0.18160224760985236  1.0000
  C   C80       1.0  0.11085451605234907  0.11324694365590199  0.6816036625392313  1.0000
  C   C81       1.0  0.5721339570986287  0.6093533593894093  0.6032329468341826  1.0000
  C   C82       1.0  0.9278659526509258  0.8906471527085598  0.1032332699901417  1.0000
  C   C83       1.0  0.427867459614724  0.3906462536745181  0.3967668388573173  1.0000
  C   C84       1.0  0.0721346371698459  0.1093537955940107  0.8967665157005839  1.0000
  N   N1        1.0  0.020161361720362  0.7789041767159333  0.8179612346663346  1.0000
  N   N2        1.0  0.4798379073868659  0.7210958469993825  0.3179611515176788  1.0000
  N   N3        1.0  0.9798365984697239  0.22109543218071073  0.18203912404305808  1.0000
  N   N4        1.0  0.5201626638147445  0.2789044331629923  0.6820386341733098  1.0000
  O   O1        1.0  0.7524830116795298  0.826051445265449  0.9232662526079737  1.0000
  O   O2        1.0  0.7475164418208705  0.6739487218182347  0.4232672205344058  1.0000
  O   O3        1.0  0.24751667677164588  0.17394816571530208  0.0767329600641418  1.0000
  O   O4        1.0  0.25248326525019843  0.3260515573020868  0.5767331381752214  1.0000
  O   O5        1.0  0.204719943328314  0.9903124353846023  0.0244051061742923  1.0000
  O   O6        1.0  0.2952789702614282  0.5096885719857197  0.5244044182915033  1.0000
  O   O7        1.0  0.7952789182310125  0.0096885108341738  0.9755952525348235  1.0000
  O   O8        1.0  0.7047216009405517  0.49031170817634967  0.4755959404183727  1.0000
  O   O9        1.0  0.11107132381457058  0.8797217568514384  0.9592447572823559  1.0000
  O   O10       1.0  0.3889289708697844  0.6202774479137004  0.45924470350557556  1.0000
  O   O11       1.0  0.8889300928984197  0.12027785621279459  0.040754455390249696  1.0000
  O   O12       1.0  0.6110715630938655  0.3797214959679777  0.5407556552048263  1.0000
  O   O13       1.0  0.7092627294163589  0.4268548315103189  0.198244510672076  1.0000
  O   O14       1.0  0.7907348438801021  0.07314568247173273  0.6982454879877835  1.0000
  O   O15       1.0  0.2907369590355415  0.5731447794698141  0.8017558480378142  1.0000
  O   O16       1.0  0.20926138804890118  0.9268539243408042  0.3017560167589011  1.0000
  O   O17       1.0  0.8785909487648809  0.41413158755673857  0.13462113099868836  1.0000
  O   O18       1.0  0.621408290323984  0.0858696650321562  0.63462085502983  1.0000
  O   O19       1.0  0.12141046794810957  0.5858680255074943  0.8653780816739172  1.0000
  O   O20       1.0  0.3785905712346107  0.914131281187231  0.3653783576415107  1.0000
  O   O21       1.0  0.6000441632590493  0.6583059501095648  0.5465596478650241  1.0000
  O   O22       1.0  0.8999530446291784  0.8416932834956014  0.0465594215587046  1.0000
  O   O23       1.0  0.39995466106157807  0.3416936598291258  0.45344013782573  1.0000
  O   O24       1.0  0.1000449341804455  0.15830699354091848  0.9534415101693198  1.0000
  O   O25       1.0  0.517998003229053  0.5347495434600089  0.5964822259300675  1.0000
  O   O26       1.0  0.9820009779275765  0.9652489704319434  0.0964813737915549  1.0000
  O   O27       1.0  0.4820008024724132  0.46524939833848583  0.40351755976095666  1.0000
  O   O28       1.0  0.018000438785406896  0.03475064263228938  0.9035178388810577  1.0000
  O   O29       1.0  0.971772698687516  0.7518066721680939  0.8796194965992682  1.0000
  O   O30       1.0  0.5282275633156671  0.7481935428693304  0.3796197059557471  1.0000
  O   O31       1.0  0.0282269897640219  0.24819293881234467  0.1203802890917345  1.0000
  O   O32       1.0  0.4717730078859431  0.25180673729304454  0.6203800797352343  1.0000
  O   O33       1.0  0.009004745656987704  0.8608514131221199  0.8000205499767785  1.0000
  O   O34       1.0  0.49099363645440514  0.6391486288337729  0.30002111242689017  1.0000
  O   O35       1.0  0.9909932145327358  0.1391481957748297  0.1999792357137338  1.0000
  O   O36       1.0  0.5090060706166639  0.36085165028654836  0.6999792462827371  1.0000
  O   O37       1.0  0.07787964587333107  0.7272674799069704  0.7770735092142189  1.0000
  O   O38       1.0  0.42211958974212377  0.772733255894444  0.2770739243219467  1.0000
  O   O39       1.0  0.9221191970661023  0.2727327981722211  0.22292570345738477  1.0000
  O   O40       1.0  0.577879253197679  0.2272670221844422  0.7229258613685444  1.0000
  O   O41       1.0  0.8000367373189476  0.9653271951517793  0.8220154913249687  1.0000
  O   O42       1.0  0.6999634326484097  0.5346724136587752  0.32201482545917764  1.0000
  O   O43       1.0  0.1999638152638639  0.0346724168700945  0.1779848673851703  1.0000
  O   O44       1.0  0.3000362744219344  0.4653278654621643  0.6779843872126746  1.0000
