data_image0
_chemical_formula_structural       KMnH16C12I3O15
_chemical_formula_sum              "K1 Mn1 H16 C12 I3 O15"
_cell_length_a       5.817573860276726
_cell_length_b       9.070174216348427
_cell_length_c       10.924095806003123
_cell_angle_alpha    93.55811654391512
_cell_angle_beta     92.06169020520797
_cell_angle_gamma    96.27778052211464

_space_group_name_H-M_alt    "P 1"
_space_group_IT_number       1

loop_
  _space_group_symop_operation_xyz
  'x, y, z'

loop_
  _atom_site_type_symbol
  _atom_site_label
  _atom_site_symmetry_multiplicity
  _atom_site_fract_x
  _atom_site_fract_y
  _atom_site_fract_z
  _atom_site_occupancy
  K   K1        1.0  0.8255899029885045  0.040510758948563805  0.42508176782185814  1.0000
  Mn  Mn1       1.0  0.4399032101437968  0.1395839910560355  0.15983623439216643  1.0000
  H   H1        1.0  0.8872675050154228  0.0449157911579263  0.12526578696652993  1.0000
  H   H2        1.0  0.9181453580305146  0.6745483584037829  0.33150755996306464  1.0000
  H   H3        1.0  0.22652635495555978  0.4134708564743548  0.24186182283497712  1.0000
  H   H4        1.0  0.09216371264368207  0.38437499844544476  0.43047855522706874  1.0000
  H   H5        1.0  0.954985501517456  0.08020109893339371  0.7220302688357381  1.0000
  H   H6        1.0  0.6519603112205132  0.13847892084942967  0.9296176892584924  1.0000
  H   H7        1.0  0.2820939860342051  0.17557560055715263  0.39256822349275927  1.0000
  H   H8        1.0  0.3141864013995389  0.9992017965836343  0.3817216163814481  1.0000
  H   H9        1.0  0.7378438787563226  0.8358406729761967  0.011153664188420016  1.0000
  H   H10       1.0  0.9633344772991064  0.692107975613311  0.12866153646820075  1.0000
  H   H11       1.0  0.6372775947117261  0.5249781351234046  0.05716629422776981  1.0000
  H   H12       1.0  0.5364143527991203  0.5481286637684805  0.3317670723067323  1.0000
  H   H13       1.0  0.25544667061425497  0.46974790108755843  0.6129231583609214  1.0000
  H   H14       1.0  0.9792202508368675  0.32931937856822197  0.7301804411066471  1.0000
  H   H15       1.0  0.3198786581402047  0.04307675179140349  0.819919282500493  1.0000
  H   H16       1.0  0.3318069914711402  0.38256891658598147  0.8519532610820163  1.0000
  C   C1        1.0  0.4415424991896728  0.801475082005723  0.11881882675625381  1.0000
  C   C2        1.0  0.6981172956716295  0.8436821383401423  0.10961442441991663  1.0000
  C   C3        1.0  0.8039034130589756  0.7178181471090922  0.1717264778548611  1.0000
  C   C4        1.0  0.61045617791099  0.5873623028818643  0.1441466771200197  1.0000
  C   C5        1.0  0.5670116905074636  0.48217551208434634  0.2468452001122543  1.0000
  C   C6        1.0  0.7787256886339337  0.39880901492686144  0.2700673271676095  1.0000
  C   C7        1.0  0.49312126730445976  0.3065514967019496  0.610130935799603  1.0000
  C   C8        1.0  0.2476757550725353  0.3482099608926958  0.5934340371490026  1.0000
  C   C9        1.0  0.12105978566653873  0.26962300975407777  0.6963057783620316  1.0000
  C   C10       1.0  0.3129853926798631  0.1462460371856764  0.8782362679667982  1.0000
  C   C11       1.0  0.3190036593834122  0.2768321548395675  0.795638735748611  1.0000
  C   C12       1.0  0.08555746197462348  0.126488731096309  0.9463020800379881  1.0000
  I   I1        1.0  0.6962078002581437  0.7273103551008759  0.6776590692372508  1.0000
  I   I2        1.0  0.05020283685175288  0.6623264010179568  0.8501060613064128  1.0000
  I   I3        1.0  0.32162706078461406  0.7775135910382358  0.4973871574045248  1.0000
  O   O1        1.0  0.2935219976312169  0.887762059864876  0.12155570736579342  1.0000
  O   O2        1.0  0.3924692469616673  0.6552755047621589  0.12683391317515463  1.0000
  O   O3        1.0  0.7496646828975031  0.9891532236638836  0.163052940276728  1.0000
  O   O4        1.0  0.8436628416422636  0.7581178607234875  0.2988531695866997  1.0000
  O   O5        1.0  0.37138967376429116  0.3765782251731906  0.2128568115013891  1.0000
  O   O6        1.0  0.9669859256024155  0.4751214910908531  0.31080167407068876  1.0000
  O   O7        1.0  0.7553306854455285  0.2601362595176083  0.24630285838176752  1.0000
  O   O8        1.0  0.6358386789679429  0.29714833787660677  0.5319947940265024  1.0000
  O   O9        1.0  0.5336357404569797  0.2760674871227523  0.7281687901910345  1.0000
  O   O10       1.0  0.15960580458680343  0.3044644244469268  0.4733442213732745  1.0000
  O   O11       1.0  0.040532542848936294  0.12147161409770751  0.6525136253575354  1.0000
  O   O12       1.0  0.5040521983227749  0.1677772040961401  0.9659384776428867  1.0000
  O   O13       1.0  0.0992039497886807  0.13770242796128676  0.0632048164423296  1.0000
  O   O14       1.0  0.8986353203189809  0.09815110712947471  0.882113057091388  1.0000
  O   O15       1.0  0.3073834530495603  0.0889324665047795  0.33514827089530297  1.0000
