data_image0
_chemical_formula_structural       Cd2H48C66N16O12
_chemical_formula_sum              "Cd2 H48 C66 N16 O12"
_cell_length_a       10.770675228147955
_cell_length_b       13.453900174918138
_cell_length_c       15.912412288921196
_cell_angle_alpha    88.60877944226644
_cell_angle_beta     89.06292258340586
_cell_angle_gamma    64.75119637411395

_space_group_name_H-M_alt    "P 1"
_space_group_IT_number       1

loop_
  _space_group_symop_operation_xyz
  'x, y, z'

loop_
  _atom_site_type_symbol
  _atom_site_label
  _atom_site_symmetry_multiplicity
  _atom_site_fract_x
  _atom_site_fract_y
  _atom_site_fract_z
  _atom_site_occupancy
  Cd  Cd1       1.0  0.6232219548606964  0.9800902026415629  0.7418999622417458  1.0000
  Cd  Cd2       1.0  0.37677513010262226  0.0199110472485344  0.2580996587406972  1.0000
  H   H1        1.0  0.5094134801667494  0.225825102923899  0.6694790350582593  1.0000
  H   H2        1.0  0.49059754041157055  0.7741743371149713  0.33052486773696893  1.0000
  H   H3        1.0  0.48542403163236253  0.33115717459075  0.5339115806578362  1.0000
  H   H4        1.0  0.5145903123488154  0.668843026812418  0.46609163606093756  1.0000
  H   H5        1.0  0.653691847436157  0.02109699884341149  0.40648786178940094  1.0000
  H   H6        1.0  0.3463038768755594  0.9789050955199842  0.5935130109532523  1.0000
  H   H7        1.0  0.6726772054347308  0.9275281807788501  0.5478831865384419  1.0000
  H   H8        1.0  0.32731936384665516  0.0724722656509158  0.4521170888653998  1.0000
  H   H9        1.0  0.5829875346965991  0.187464758245298  0.3222202500493694  1.0000
  H   H10       1.0  0.4170164248771186  0.8125339592920471  0.6777818675914489  1.0000
  H   H11       1.0  0.6741810102812521  0.4386656944178426  0.4073071735682419  1.0000
  H   H12       1.0  0.32582108651772757  0.5613330252856059  0.592691195019526  1.0000
  H   H13       1.0  0.786715074587562  0.5649866051783262  0.384792627920433  1.0000
  H   H14       1.0  0.2132860893175135  0.435012119924501  0.6152044945002118  1.0000
  H   H15       1.0  0.7613518906500121  0.6655259925215589  0.24896057898900636  1.0000
  H   H16       1.0  0.23864706914032033  0.3344752206718766  0.7510377641712507  1.0000
  H   H17       1.0  0.49588519577607576  0.540698977266544  0.0768985950601291  1.0000
  H   H18       1.0  0.5041140917954579  0.4592997888492576  0.9231004335421105  1.0000
  H   H19       1.0  0.37166323209119423  0.42426993220419007  0.1032595400806642  1.0000
  H   H20       1.0  0.6283378363569769  0.5757271719459779  0.8967388806310694  1.0000
  H   H21       1.0  0.39026750744795885  0.32843222085005397  0.2425419924138126  1.0000
  H   H22       1.0  0.6097400168921114  0.6715631641233768  0.7574576527271901  1.0000
  H   H23       1.0  0.803312544781505  0.6727154899663149  0.1235253184276672  1.0000
  H   H24       1.0  0.19668496492645463  0.327284929482488  0.8764730613462675  1.0000
  H   H25       1.0  0.49671245018795673  0.7464012612779527  0.9776256564987661  1.0000
  H   H26       1.0  0.5032837003749293  0.2535999983278359  0.0223733466759626  1.0000
  H   H27       1.0  0.46474847852756795  0.8676518040268631  0.8494684584690404  1.0000
  H   H28       1.0  0.5352486064357576  0.13234944586322683  0.1505311625134098  1.0000
  H   H29       1.0  0.8143168194133069  0.9101079189554325  0.9016685363846904  1.0000
  H   H30       1.0  0.18567703760406568  0.08989419052303299  0.09833047238312528  1.0000
  H   H31       1.0  0.8587244984052661  0.7934922826199794  0.0328541172719738  1.0000
  H   H32       1.0  0.14127436894123238  0.2065073009881573  0.9671442674605615  1.0000
  H   H33       1.0  0.5920507129381534  0.16070154053725363  0.8832709121967779  1.0000
  H   H34       1.0  0.40794969392148767  0.8393004750334541  0.1167286510686196  1.0000
  H   H35       1.0  0.6895673162637338  0.29319761976254444  0.9200129189137982  1.0000
  H   H36       1.0  0.310433932552506  0.7068027565071662  0.079987303731599  1.0000
  H   H37       1.0  0.9916693964304102  0.1513248630407702  0.723903601267331  1.0000
  H   H38       1.0  0.008329888128052822  0.8486739117076708  0.27609668405371923  1.0000
  H   H39       1.0  0.8849621560020111  0.021673669698166996  0.6969382735349399  1.0000
  H   H40       1.0  0.11503670682488826  0.978325926858929  0.3030619962758152  1.0000
  H   H41       1.0  0.9889843241743748  0.3076670305196743  0.7956358220691725  1.0000
  H   H42       1.0  0.011017349386506248  0.692332515308756  0.204363159367702  1.0000
  H   H43       1.0  0.9110754714642083  0.5022884144287049  0.781997288022154  1.0000
  H   H44       1.0  0.0889248474711978  0.4977119586077448  0.21800043173730194  1.0000
  H   H45       1.0  0.8965987228733352  0.35261670735572176  0.056720269695191  1.0000
  H   H46       1.0  0.10340024294313117  0.6473844885724417  0.9432755600274445  1.0000
  H   H47       1.0  0.022831290564461437  0.6268817828289386  0.8012554120844868  1.0000
  H   H48       1.0  0.9771686126655155  0.3731193947508943  0.19873977872705234  1.0000
  C   C1        1.0  0.5414657794483303  0.18360046449556927  0.6098521833065362  1.0000
  C   C2        1.0  0.45854244094174873  0.8163989960577424  0.3901486093467311  1.0000
  C   C3        1.0  0.527885600683959  0.2417599392701177  0.5348190819694949  1.0000
  C   C4        1.0  0.4721240637623578  0.7582403322930988  0.46518418750772367  1.0000
  C   C5        1.0  0.5693560850903692  0.18371379455130213  0.4595803425411589  1.0000
  C   C6        1.0  0.43064984024766767  0.8162865201909996  0.5404210840646044  1.0000
  C   C7        1.0  0.622213213157778  0.068728468930999  0.463794837930834  1.0000
  C   C8        1.0  0.37778606838761436  0.9312703144500742  0.5362067041090268  1.0000
  C   C9        1.0  0.6328848354057897  0.016713743125720288  0.5416458590649497  1.0000
  C   C10       1.0  0.3671154775034823  0.9832866471760082  0.45835437413213487  1.0000
  C   C11       1.0  0.5609711578117781  0.23916792504229525  0.378114871553933  1.0000
  C   C12       1.0  0.4390345826385839  0.7608291305294087  0.6218866381963792  1.0000
  C   C13       1.0  0.5232564085898516  0.39235873267244176  0.29452011454741006  1.0000
  C   C14       1.0  0.476749759618208  0.6076374838253358  0.7054788972755757  1.0000
  C   C15       1.0  0.5894245201233944  0.4643635531206982  0.2823373125159634  1.0000
  C   C16       1.0  0.41057265728376546  0.5356393263546905  0.7176622668942086  1.0000
  C   C17       1.0  0.6666136107396027  0.4810774084607061  0.3471150664142755  1.0000
  C   C18       1.0  0.3333870359770047  0.5189205174981096  0.6528833387871628  1.0000
  C   C19       1.0  0.7289421309964939  0.5513022298123217  0.33426456428444595  1.0000
  C   C20       1.0  0.2710595380447814  0.4486973289650535  0.6657363022306482  1.0000
  C   C21       1.0  0.7171486017647056  0.6065771912942138  0.2567371159966926  1.0000
  C   C22       1.0  0.28284974989985295  0.3934215888535989  0.7432619231572346  1.0000
  C   C23       1.0  0.644721268787464  0.5905273913882353  0.1904375684542572  1.0000
  C   C24       1.0  0.3552794673599066  0.4094721727885187  0.8095620518937138  1.0000
  C   C25       1.0  0.5785005529603495  0.5183709616027768  0.20228098902124  1.0000
  C   C26       1.0  0.42149967051815923  0.4816277904810135  0.7977180290293049  1.0000
  C   C27       1.0  0.5021906829822458  0.49996585251055575  0.1376833370197588  1.0000
  C   C28       1.0  0.497810804184425  0.5000304384635895  0.8623163559210808  1.0000
  C   C29       1.0  0.43509368345373634  0.4336007567215886  0.15232790486563627  1.0000
  C   C30       1.0  0.5649120615162246  0.5663962859011633  0.8476717198064563  1.0000
  C   C31       1.0  0.44566623320339  0.3789453087658714  0.23036008022293689  1.0000
  C   C32       1.0  0.5543389990977019  0.6210509217639099  0.7696389421517367  1.0000
  C   C33       1.0  0.7084688056590736  0.6882024730070384  0.08967725198477439  1.0000
  C   C34       1.0  0.29152776663537583  0.31179796479009536  0.9103217667002566  1.0000
  C   C35       1.0  0.681425492691332  0.7593603340315056  0.015184317741464799  1.0000
  C   C36       1.0  0.3185761808695489  0.24063921179691758  0.9848146636954098  1.0000
  C   C37       1.0  0.5679407072086562  0.7825092609947432  0.9630633325659659  1.0000
  C   C38       1.0  0.4320572197112683  0.21749034959435679  0.03693694779648379  1.0000
  C   C39       1.0  0.550299196012965  0.8489362916824489  0.8922322622414993  1.0000
  C   C40       1.0  0.44969507670984404  0.15106501325262658  0.107769275474233  1.0000
  C   C41       1.0  0.7457104838735518  0.8731442060450477  0.9214584543483753  1.0000
  C   C42       1.0  0.2542870258344081  0.1268562134037552  0.0785399254255523  1.0000
  C   C43       1.0  0.7704045486065639  0.8077775253179097  0.9937245055717483  1.0000
  C   C44       1.0  0.22959229499326736  0.19222781850039178  0.006276901834070303  1.0000
  C   C45       1.0  0.6819888064581646  0.1601606868285472  0.8505246840122922  1.0000
  C   C46       1.0  0.3180082739855621  0.8398405760105022  0.1494768220483778  1.0000
  C   C47       1.0  0.735226607846215  0.2340633544574615  0.8703774459788816  1.0000
  C   C48       1.0  0.2647732848380287  0.7659378533366024  0.1296221433484988  1.0000
  C   C49       1.0  0.8473610943717131  0.233582721624451  0.8238758863204223  1.0000
  C   C50       1.0  0.1526391276002527  0.7664160347756592  0.1761237600895313  1.0000
  C   C51       1.0  0.9024166550697359  0.15625650651141854  0.7599778931157033  1.0000
  C   C52       1.0  0.09758459374651118  0.8437438697582988  0.24002232952968677  1.0000
  C   C53       1.0  0.8441823207559978  0.08401731412489971  0.7451544975474036  1.0000
  C   C54       1.0  0.15581612033933118  0.9159831042408441  0.25484575675305626  1.0000
  C   C55       1.0  0.9076231918907993  0.31037856144111947  0.839628280685865  1.0000
  C   C56       1.0  0.09237618963110363  0.689621829943668  0.1603700779846875  1.0000
  C   C57       1.0  0.9285828650291917  0.4493448122652167  0.9119071769069295  1.0000
  C   C58       1.0  0.07141525431107716  0.5506580359128891  0.08808987851392659  1.0000
  C   C59       1.0  0.9467235000903428  0.5097674550736355  0.8442587527240945  1.0000
  C   C60       1.0  0.053278365890882626  0.4902353283437932  0.1557370037711934  1.0000
  C   C61       1.0  0.9674123690820409  0.46395746691198525  0.9949828513539741  1.0000
  C   C62       1.0  0.03258963527310508  0.5360396232061645  0.005015558806064702  1.0000
  C   C63       1.0  0.9473448964244754  0.4063375455806621  0.06575943969104969  1.0000
  C   C64       1.0  0.05265416183583939  0.5936652799328002  0.9342363484593009  1.0000
  C   C65       1.0  0.008804517418305163  0.5817091779886494  0.8556094596704257  1.0000
  C   C66       1.0  0.9911958000105727  0.4182911993641197  0.1443888884484394  1.0000
  N   N1        1.0  0.593362352301881  0.07272281371714227  0.6135497009194564  1.0000
  N   N2        1.0  0.4066398279017349  0.9272775614695161  0.3864523962524657  1.0000
  N   N3        1.0  0.5345219685798311  0.34165728161301706  0.3733270463711591  1.0000
  N   N4        1.0  0.4654834471024004  0.6583422124036885  0.6266725212183601  1.0000
  N   N5        1.0  0.6248290230406681  0.6475096493762608  0.11376140541899818  1.0000
  N   N6        1.0  0.37516712752221787  0.35249161022952785  0.8862375977557376  1.0000
  N   N7        1.0  0.6382161072396854  0.8930862167401086  0.8711100095343411  1.0000
  N   N8        1.0  0.36177816698965864  0.10691508387864698  0.1288908998219895  1.0000
  N   N9        1.0  0.7351670702861525  0.08615792925751009  0.789062795060687  1.0000
  N   N10       1.0  0.2648328193850206  0.9138432871691861  0.2109380509855114  1.0000
  N   N11       1.0  0.870925432046995  0.3748483699672391  0.9028174777648201  1.0000
  N   N12       1.0  0.12907310601177366  0.6251536650348511  0.0971808498851416  1.0000
  N   N13       1.0  0.3263851502405827  0.0945127306410498  0.7662359353421307  1.0000
  N   N14       1.0  0.6736142237486504  0.9054876823253225  0.23376556512545218  1.0000
  N   N15       1.0  0.8150715213852847  0.770046712526529  0.6819384267641766  1.0000
  N   N16       1.0  0.18492008048399103  0.2299489455216275  0.3180664246307927  1.0000
  O   O1        1.0  0.4082976897805039  0.1339196389463595  0.7913045840577622  1.0000
  O   O2        1.0  0.5917022013972043  0.8660815731640171  0.20869563362901997  1.0000
  O   O3        1.0  0.37865898876327025  0.9990310524851083  0.7334281252410051  1.0000
  O   O4        1.0  0.6213376729619496  0.0009710235299564999  0.26657210859055885  1.0000
  O   O5        1.0  0.19954163799698674  0.1478896197911297  0.7734355218786959  1.0000
  O   O6        1.0  0.8004581501911404  0.8521099929481861  0.226569135896213  1.0000
  O   O7        1.0  0.8618700422956846  0.8357720757785073  0.7101958698280058  1.0000
  O   O8        1.0  0.13811703707473544  0.1642341826890501  0.289798715630937  1.0000
  O   O9        1.0  0.6825296918890588  0.8073132562219312  0.6757247996415856  1.0000
  O   O10       1.0  0.31746038777300356  0.1926727289891375  0.3242935072862778  1.0000
  O   O11       1.0  0.8913874882466144  0.6749274000455261  0.6615451788637045  1.0000
  O   O12       1.0  0.10861272769921733  0.3250713736198563  0.338456980983878  1.0000
