data_image0
_chemical_formula_structural       Cd2H28C28N16O4
_chemical_formula_sum              "Cd2 H28 C28 N16 O4"
_cell_length_a       8.482104646007144
_cell_length_b       8.710442049414338
_cell_length_c       11.15504003970895
_cell_angle_alpha    95.7252545765049
_cell_angle_beta     89.99994313782521
_cell_angle_gamma    89.9998671442085

_space_group_name_H-M_alt    "P 1"
_space_group_IT_number       1

loop_
  _space_group_symop_operation_xyz
  'x, y, z'

loop_
  _atom_site_type_symbol
  _atom_site_label
  _atom_site_symmetry_multiplicity
  _atom_site_fract_x
  _atom_site_fract_y
  _atom_site_fract_z
  _atom_site_occupancy
  Cd  Cd1       1.0  2.0350446306000003e-06  2.9390149335995126e-06  0.5000015276033523  1.0000
  Cd  Cd2       1.0  0.5000011565549087  0.4999983037374848  0.4999995731773126  1.0000
  H   H1        1.0  0.6333954067220517  0.08129275337432056  0.5557911391257662  1.0000
  H   H2        1.0  0.866598715802752  0.5812977379243021  0.5557971472475102  1.0000
  H   H3        1.0  0.3666033695329459  0.9187026714189128  0.4442052333206731  1.0000
  H   H4        1.0  0.13339888148878032  0.4187035135298629  0.4442050201694413  1.0000
  H   H5        1.0  0.4157383291079384  0.019137848885236498  0.6921410218283554  1.0000
  H   H6        1.0  0.08425513643941682  0.5191446488266961  0.6921473791809304  1.0000
  H   H7        1.0  0.5842580892478183  0.9808540856996828  0.3078524119425125  1.0000
  H   H8        1.0  0.9157436398056477  0.48085545850458533  0.3078556030275336  1.0000
  H   H9        1.0  0.760718847711381  0.797811667655793  0.90275209637506  1.0000
  H   H10       1.0  0.7392766609919121  0.2978169538293541  0.9027592900912536  1.0000
  H   H11       1.0  0.23927992854564917  0.2021825937337454  0.09724329651248097  1.0000
  H   H12       1.0  0.26071857838991264  0.7021877589153716  0.09724312447705326  1.0000
  H   H13       1.0  0.9636472680033491  0.8665582259527722  0.7563768201260428  1.0000
  H   H14       1.0  0.5363482634800222  0.3665558823970159  0.756380937422982  1.0000
  H   H15       1.0  0.036350329285014006  0.13344646750700656  0.2436238000901909  1.0000
  H   H16       1.0  0.46364933381065043  0.6334465131786543  0.24362041520190295  1.0000
  H   H17       1.0  0.23639374109628628  0.8985689028350377  0.7912617566928546  1.0000
  H   H18       1.0  0.2636022156665235  0.39856366137262705  0.7912601113887019  1.0000
  H   H19       1.0  0.7636050351438968  0.10143693474486776  0.2087380487307584  1.0000
  H   H20       1.0  0.7363930237228118  0.6014341480786882  0.20874360323008287  1.0000
  H   H21       1.0  0.2845655230267852  0.051565085815170185  0.899423039034005  1.0000
  H   H22       1.0  0.21543467013277257  0.5515657613465733  0.8994243746152719  1.0000
  H   H23       1.0  0.7154379690333954  0.9484338195425153  0.10057537491140776  1.0000
  H   H24       1.0  0.7845652850629321  0.4484355093870106  0.10057958715152887  1.0000
  H   H25       1.0  0.2011618422226888  0.8787435949589832  0.9476377466610726  1.0000
  H   H26       1.0  0.29883985530075563  0.3787394439739771  0.9476379447903225  1.0000
  H   H27       1.0  0.7988404708810608  0.12125876204679287  0.05236001725965879  1.0000
  H   H28       1.0  0.7011600998975213  0.6212583943950845  0.05236846135267826  1.0000
  C   C1        1.0  0.6570346134663084  0.017924404701936694  0.6333182434168165  1.0000
  C   C2        1.0  0.8429595621986437  0.5179271178393918  0.633322314762573  1.0000
  C   C3        1.0  0.3429653417399194  0.982072173852515  0.36667821141247703  1.0000
  C   C4        1.0  0.15703803509347133  0.4820741239736818  0.3666789554789033  1.0000
  C   C5        1.0  0.535635459171779  0.983979130516154  0.7103382837268555  1.0000
  C   C6        1.0  0.9643586688218306  0.48398500444055503  0.7103417583950531  1.0000
  C   C7        1.0  0.4643621381313921  0.016015150156945896  0.2896589035122047  1.0000
  C   C8        1.0  0.035638928467065505  0.5160174200583963  0.2896622857562717  1.0000
  C   C9        1.0  0.5699335847321763  0.9028876711342091  0.8092227317064058  1.0000
  C   C10       1.0  0.9300653274884071  0.4028936543487659  0.8092289303145319  1.0000
  C   C11       1.0  0.4300675494328417  0.09710541720778557  0.1907707844456468  1.0000
  C   C12       1.0  0.06993580665648841  0.5971099335497312  0.19077609339402093  1.0000
  C   C13       1.0  0.7267024992824674  0.8603616821937122  0.8270671162645796  1.0000
  C   C14       1.0  0.7732929558867456  0.3603668597318758  0.8270715863049247  1.0000
  C   C15       1.0  0.2732950980207037  0.1396325984793947  0.17293007097448043  1.0000
  C   C16       1.0  0.22670582036008827  0.6396332186761243  0.17292870437709237  1.0000
  C   C17       1.0  0.8408204082900214  0.899114293708237  0.7460610379396114  1.0000
  C   C18       1.0  0.6591738788189475  0.39911743114069503  0.7460654510684605  1.0000
  C   C19       1.0  0.15917836796148782  0.10088344825128809  0.2539363964491343  1.0000
  C   C20       1.0  0.3408237184702756  0.6008861181975788  0.25393598393984007  1.0000
  C   C21       1.0  0.44445410847963274  0.8614565865833936  0.8956674991932231  1.0000
  C   C22       1.0  0.055544161095070904  0.3614634088667614  0.8956704630654357  1.0000
  C   C23       1.0  0.5555470256850656  0.13853537691927897  0.1043286261018608  1.0000
  C   C24       1.0  0.9444510782841179  0.6385424769227441  0.10433382823724456  1.0000
  C   C25       1.0  0.28132353646379477  0.9249124808550563  0.883239729704556  1.0000
  C   C26       1.0  0.21867577465203422  0.42491316169338217  0.8832430246572186  1.0000
  C   C27       1.0  0.7186764187395341  0.07508640522458879  0.11675688989156188  1.0000
  C   C28       1.0  0.7813218226377218  0.5750881186840571  0.11676183428617995  1.0000
  N   N1        1.0  0.8367085282958798  0.8494506216059106  0.36369885922439943  1.0000
  N   N2        1.0  0.6632946254047598  0.349439875317941  0.3636995883354288  1.0000
  N   N3        1.0  0.16329732165979044  0.1505552256067944  0.6363018433713492  1.0000
  N   N4        1.0  0.3367100456106727  0.6505555976738435  0.6363012699856297  1.0000
  N   N5        1.0  0.7273300669268821  0.7852560584906243  0.40273372307891714  1.0000
  N   N6        1.0  0.7726779074194355  0.2852508632624263  0.40273834943122466  1.0000
  N   N7        1.0  0.27267578303345635  0.21474745227360606  0.5972641232235532  1.0000
  N   N8        1.0  0.22732558463779645  0.7147480903007233  0.5972645503915928  1.0000
  N   N9        1.0  0.6136071602600098  0.7265296199317816  0.43876672823785157  1.0000
  N   N10       1.0  0.8864009095668948  0.22653459027982584  0.43877647443679274  1.0000
  N   N11       1.0  0.38639868970907554  0.27346922757659087  0.5612263026535658  1.0000
  N   N12       1.0  0.11360376143571933  0.7734678727752068  0.5612311584131149  1.0000
  N   N13       1.0  0.8071659941619416  0.9758556481106524  0.6502600742840342  1.0000
  N   N14       1.0  0.6928305889756317  0.4758575336315898  0.6502625788700555  1.0000
  N   N15       1.0  0.1928374978999585  0.024140969004022794  0.3497399692455118  1.0000
  N   N16       1.0  0.3071681872709392  0.5241436792568235  0.3497359998444124  1.0000
  O   O1        1.0  0.4786885822002561  0.780356627845904  0.976595600846366  1.0000
  O   O2        1.0  0.021310957956117704  0.2803612517491985  0.9766011238331771  1.0000
  O   O3        1.0  0.5213113730114927  0.21963647013856047  0.02339881248172299  1.0000
  O   O4        1.0  0.978684281417813  0.7196469801298803  0.023406920938256776  1.0000
