data_image0
_chemical_formula_structural       Ni2H20C20N16
_chemical_formula_sum              "Ni2 H20 C20 N16"
_cell_length_a       7.9863643305213206
_cell_length_b       9.2190772001029
_cell_length_c       10.03409454250069
_cell_angle_alpha    84.6653077652512
_cell_angle_beta     66.6874092555834
_cell_angle_gamma    66.0152322995535

_space_group_name_H-M_alt    "P 1"
_space_group_IT_number       1

loop_
  _space_group_symop_operation_xyz
  'x, y, z'

loop_
  _atom_site_type_symbol
  _atom_site_label
  _atom_site_symmetry_multiplicity
  _atom_site_fract_x
  _atom_site_fract_y
  _atom_site_fract_z
  _atom_site_occupancy
  Ni  Ni1       1.0  0.7000059815405065  0.5219056358212626  0.4786420101221793  1.0000
  Ni  Ni2       1.0  0.29994680007064284  0.4781749600486905  0.5214229980583128  1.0000
  H   H1        1.0  0.6013417271333521  0.5620941799965921  0.8027706648204928  1.0000
  H   H2        1.0  0.3987157141050729  0.43767481443282447  0.19711600298825976  1.0000
  H   H3        1.0  0.7012784398620084  0.3922655951437974  0.9914594665512767  1.0000
  H   H4        1.0  0.29894291097556897  0.6075821938183664  0.008417783965199996  1.0000
  H   H5        1.0  0.9056605603601895  0.1005573431564315  0.9274532204682302  1.0000
  H   H6        1.0  0.09481025553336055  0.8993327475123535  0.07239888640486206  1.0000
  H   H7        1.0  0.9914585542483177  0.9869782081598398  0.6803868427374838  1.0000
  H   H8        1.0  0.008590336891749895  0.012788522951531402  0.3195834290932993  1.0000
  H   H9        1.0  0.8809589997666193  0.1740481376000744  0.503024442628984  1.0000
  H   H10       1.0  0.11891555183521521  0.8256254708436613  0.49699364238889393  1.0000
  H   H11       1.0  0.5174340917794423  0.8689074195986562  0.4619703099273664  1.0000
  H   H12       1.0  0.4825595613412616  0.13109099775768127  0.5380959464402225  1.0000
  H   H13       1.0  0.49677187064482814  0.06526306441568862  0.27405805406493766  1.0000
  H   H14       1.0  0.5032416456887745  0.9348132375890188  0.7260370968944798  1.0000
  H   H15       1.0  0.6608099586966103  0.9615404050383773  0.009249082788677754  1.0000
  H   H16       1.0  0.3390909402368365  0.038585323500889494  0.990850235142041  1.0000
  H   H17       1.0  0.828085728474903  0.6656891181847799  0.9481142982327668  1.0000
  H   H18       1.0  0.17149580643314982  0.3344378596789993  0.051926685193933494  1.0000
  H   H19       1.0  0.8383443277947717  0.48675899305129633  0.1514992711693708  1.0000
  H   H20       1.0  0.16138885396446048  0.5132984341787932  0.8485031157998081  1.0000
  C   C1        1.0  0.6881118639045384  0.43399005397264995  0.7799743855850209  1.0000
  C   C2        1.0  0.312022930933864  0.5657926865111023  0.21994163021495444  1.0000
  C   C3        1.0  0.743548320938416  0.3395268369736115  0.8842556739375594  1.0000
  C   C4        1.0  0.2566706455005202  0.6603149693563852  0.11562583160301189  1.0000
  C   C5        1.0  0.8565591454132502  0.1765290888091613  0.8489400733895849  1.0000
  C   C6        1.0  0.14375124376288545  0.8232965965172808  0.15093207040268913  1.0000
  C   C7        1.0  0.9054410718612828  0.11404979824143169  0.7108804859114528  1.0000
  C   C8        1.0  0.09469055250321659  0.8857364895097815  0.2890282456554161  1.0000
  C   C9        1.0  0.8448206923833012  0.21652786736141394  0.6126433599050928  1.0000
  C   C10       1.0  0.1551718824365693  0.7832265097128044  0.3873207391936475  1.0000
  C   C11       1.0  0.5845218463594435  0.8297864085106357  0.34668285243652264  1.0000
  C   C12       1.0  0.4154424705450309  0.17027984486244213  0.6533458898657756  1.0000
  C   C13       1.0  0.5735363249838982  0.9380534515587017  0.24087752006150964  1.0000
  C   C14       1.0  0.4264497809192989  0.06202857493165939  0.759189861431807  1.0000
  C   C15       1.0  0.663304089172108  0.8800593340516227  0.09505667432048881  1.0000
  C   C16       1.0  0.3366101868676097  0.1200352905520177  0.9049873156393247  1.0000
  C   C17       1.0  0.7576286929450832  0.7157074344747798  0.06078961003657212  1.0000
  C   C18       1.0  0.24213181121020705  0.2843921034498464  0.9392543803035664  1.0000
  C   C19       1.0  0.7633817020818583  0.6156690852742486  0.17328865675141714  1.0000
  C   C20       1.0  0.23645257679884682  0.3844010228009722  0.8267277453998076  1.0000
  N   N1        1.0  0.7404134441030192  0.3746353830072238  0.6449785693745085  1.0000
  N   N2        1.0  0.25963433930370894  0.6251575380416412  0.35494892669476735  1.0000
  N   N3        1.0  0.6796283072269133  0.6712958037591362  0.3139283121995434  1.0000
  N   N4        1.0  0.3203482294945132  0.3287334615533908  0.6860898243183797  1.0000
  N   N5        1.0  0.39089304291742605  0.6313370588701163  0.5923202404703005  1.0000
  N   N6        1.0  0.6090072258071828  0.3690098256340661  0.40780700940560893  1.0000
  N   N7        1.0  0.300174372485735  0.7127871812213938  0.7058532054859725  1.0000
  N   N8        1.0  0.6998125265300884  0.2876510709610188  0.29424693447033684  1.0000
  N   N9        1.0  0.2092935928747011  0.7936068933638367  0.8153316826536212  1.0000
  N   N10       1.0  0.7907815609485384  0.2069011486578347  0.18470682391185275  1.0000
  N   N11       1.0  0.743754583931654  0.6866437845983596  0.5741844258407981  1.0000
  N   N12       1.0  0.2565612517187361  0.31362834446199633  0.4254311757394619  1.0000
  N   N13       1.0  0.8769167334931394  0.6481354887516559  0.6134689503052968  1.0000
  N   N14       1.0  0.1230274722168261  0.3519247118278557  0.38658755559585256  1.0000
  N   N15       1.0  0.9931609146904208  0.3873110278460175  0.34422429645309177  1.0000
  N   N16       1.0  0.00649095201311662  0.6124204638809517  0.6561805817971518  1.0000
