data_image0
_chemical_formula_structural       Zn2H32C38N8O10
_chemical_formula_sum              "Zn2 H32 C38 N8 O10"
_cell_length_a       5.691039887040383
_cell_length_b       9.972910034140694
_cell_length_c       15.850495914443046
_cell_angle_alpha    98.4489629250539
_cell_angle_beta     100.0359429237307
_cell_angle_gamma    102.82119692247728

_space_group_name_H-M_alt    "P 1"
_space_group_IT_number       1

loop_
  _space_group_symop_operation_xyz
  'x, y, z'

loop_
  _atom_site_type_symbol
  _atom_site_label
  _atom_site_symmetry_multiplicity
  _atom_site_fract_x
  _atom_site_fract_y
  _atom_site_fract_z
  _atom_site_occupancy
  Zn  Zn1       1.0  0.6395729955000962  0.08894694400395052  0.6621578860457973  1.0000
  Zn  Zn2       1.0  0.3604379185534582  0.9110625253087862  0.3378424418145158  1.0000
  H   H1        1.0  0.17219464320105263  0.13824975465024641  0.5979406648825146  1.0000
  H   H2        1.0  0.8278080874881227  0.8617522560807063  0.4020572023330615  1.0000
  H   H3        1.0  0.31603575481165785  0.29191493365429716  0.7254424272112485  1.0000
  H   H4        1.0  0.6839755675314124  0.7080903161759409  0.27455315886733433  1.0000
  H   H5        1.0  0.10691195840643532  0.38976555223194964  0.5211709016324305  1.0000
  H   H6        1.0  0.8930793294866746  0.6102352613155091  0.4788304794843867  1.0000
  H   H7        1.0  0.32295418580974194  0.37918936446369134  0.6111382579797462  1.0000
  H   H8        1.0  0.6770405712126575  0.6208197727193934  0.3888602766093925  1.0000
  H   H9        1.0  0.6064495711060331  0.4382975176796649  0.003068531294239644  1.0000
  H   H10       1.0  0.39353390348480843  0.5616822529568283  0.9969242302403173  1.0000
  H   H11       1.0  0.33902025308633194  0.8728738470290126  0.8170826494729865  1.0000
  H   H12       1.0  0.6609524869964504  0.12710274217286613  0.18291855824413258  1.0000
  H   H13       1.0  0.27815256715085473  0.6048491350094384  0.6937100738569626  1.0000
  H   H14       1.0  0.721869145891894  0.3951593897841832  0.30628336039965376  1.0000
  H   H15       1.0  0.06064408124694149  0.6175610018466459  0.6051884736154634  1.0000
  H   H16       1.0  0.9393876142059627  0.3824550173928429  0.394807550600909  1.0000
  H   H17       1.0  0.3722620193910088  0.011767826763474397  0.9668470330122501  1.0000
  H   H18       1.0  0.6277054309774996  0.9882127340354998  0.03314908700068029  1.0000
  H   H19       1.0  0.30466843018800926  0.44308664147135346  0.8650260335350168  1.0000
  H   H20       1.0  0.6953048290199249  0.556904448588554  0.1349726372758795  1.0000
  H   H21       1.0  0.6017820000001919  0.6186275399305219  0.6026219234945458  1.0000
  H   H22       1.0  0.39824051975855906  0.38138013225697154  0.3973822242289841  1.0000
  H   H23       1.0  0.3884818851051506  0.631886467996722  0.5120655961350735  1.0000
  H   H24       1.0  0.6115645723421111  0.36812152077786936  0.48793016170669995  1.0000
  H   H25       1.0  0.04075986902515877  0.9054910150136448  0.6916096604556116  1.0000
  H   H26       1.0  0.95925269798974  0.09451031307872881  0.30839893736588647  1.0000
  H   H27       1.0  0.12267640929516692  0.4247221179785187  0.22216523185903714  1.0000
  H   H28       1.0  0.8772866908838994  0.5752626841035281  0.7778416656661733  1.0000
  H   H29       1.0  0.41486172984379976  0.2692112060635879  0.20790244620717857  1.0000
  H   H30       1.0  0.5851113837136809  0.7307664399602772  0.7920995072070838  1.0000
  H   H31       1.0  0.32731504577102305  0.11128366084488311  0.5236128831567157  1.0000
  H   H32       1.0  0.6726868348262441  0.8887162643007257  0.47638538097275057  1.0000
  C   C1        1.0  0.09152925218144502  0.11279460232575642  0.9217130027210344  1.0000
  C   C2        1.0  0.9084568792401979  0.8872060381593128  0.07828358439833485  1.0000
  C   C3        1.0  0.922743910046556  0.12056094197626524  0.8471869825861373  1.0000
  C   C4        1.0  0.07723895853082045  0.8794313187559272  0.1528086744445645  1.0000
  C   C5        1.0  0.943914869055007  0.2878567574053577  0.0129749488866508  1.0000
  C   C6        1.0  0.0560792656997293  0.7121379069783275  0.9870280109168731  1.0000
  C   C7        1.0  0.7585626007791433  0.21175085250774117  0.8544280725580716  1.0000
  C   C8        1.0  0.24142441468125495  0.7882571311613945  0.1455723462541698  1.0000
  C   C9        1.0  0.4426155447134406  0.2950847660896941  0.7860163149208785  1.0000
  C   C10       1.0  0.5573982930905217  0.7049320168010524  0.213983567894914  1.0000
  C   C11       1.0  0.7674604138275285  0.2933898456852333  0.9361292087584302  1.0000
  C   C12       1.0  0.2325601616689638  0.7065990796505374  0.0638732342106323  1.0000
  C   C13       1.0  0.1064573628666423  0.19970127628968737  0.005478031652906207  1.0000
  C   C14       1.0  0.8935318819022413  0.800284925712653  0.9945207215666442  1.0000
  C   C15       1.0  0.16031969600147278  0.41980883558002796  0.5928889684185846  1.0000
  C   C16       1.0  0.8396809008286039  0.5801961803599482  0.4071045828978086  1.0000
  C   C17       1.0  0.4998516283980479  0.8126026514212868  0.6156985598216663  1.0000
  C   C18       1.0  0.5001599935095343  0.18741010059191862  0.38431155836277486  1.0000
  C   C19       1.0  0.9461086661511046  0.3419942076325739  0.6276193298836077  1.0000
  C   C20       1.0  0.05389573331964198  0.6580318917247111  0.3723901356177136  1.0000
  C   C21       1.0  0.6007924649974044  0.3773468205816144  0.9398152092275749  1.0000
  C   C22       1.0  0.3992090765060041  0.6226520383891341  0.060181679768689406  1.0000
  C   C23       1.0  0.22277845522580006  0.9434317969733785  0.8285410151116324  1.0000
  C   C24       1.0  0.7772179852922109  0.05655981543690561  0.1714631134107876  1.0000
  C   C25       1.0  0.22537415235382244  0.5783345665636406  0.6220101698437616  1.0000
  C   C26       1.0  0.774644774027884  0.42167187419205737  0.3779860497559681  1.0000
  C   C27       1.0  0.2423768684803633  0.020458019396620796  0.910399949601924  1.0000
  C   C28       1.0  0.7576147894748643  0.9795292098216566  0.0895952725773768  1.0000
  C   C29       1.0  0.43731945679115825  0.3790238993842223  0.8645171185391047  1.0000
  C   C30       1.0  0.5626771985729634  0.6209758714047453  0.1354776104650313  1.0000
  C   C31       1.0  0.4337609797025124  0.6550259169596159  0.5839019548634211  1.0000
  C   C32       1.0  0.5662762418499909  0.3449819579646771  0.4160975624556897  1.0000
  C   C33       1.0  0.0540841025289184  0.960961456370143  0.7575161858222329  1.0000
  C   C34       1.0  0.9459198775466077  0.039035472919316305  0.24248702364246807  1.0000
  C   C35       1.0  0.11551838987367087  0.3602852213029522  0.1589896288716943  1.0000
  C   C36       1.0  0.8844586049491667  0.639705903073626  0.8410067828249977  1.0000
  C   C37       1.0  0.2803549818783821  0.27439039536857024  0.1508718708599588  1.0000
  C   C38       1.0  0.7196268260415337  0.7255957286475622  0.8491307711519482  1.0000
  N   N1        1.0  0.9079990010126056  0.04686730680846551  0.7670323943982353  1.0000
  N   N2        1.0  0.09199533959317553  0.9531325684095651  0.2329716468317571  1.0000
  N   N3        1.0  0.5980738675067486  0.21355054642359764  0.7810965665379612  1.0000
  N   N4        1.0  0.40192486151588  0.7864544523580507  0.21889811433553058  1.0000
  N   N5        1.0  0.9498073502450027  0.3678664900687494  0.09054237498502002  1.0000
  N   N6        1.0  0.05017822723667106  0.6321249258627689  0.909462236519438  1.0000
  N   N7        1.0  0.2775630941283254  0.1952489545319764  0.07535608957799408  1.0000
  N   N8        1.0  0.7224240893897047  0.8047496081732106  0.9246391354621081  1.0000
  O   O1        1.0  0.3164799801270277  0.1038963391328522  0.5852935838623237  1.0000
  O   O2        1.0  0.6835120551494498  0.8961013211069828  0.41470443060596546  1.0000
  O   O3        1.0  0.4254274676999402  0.8622942677326296  0.6810346884491735  1.0000
  O   O4        1.0  0.5745911840690425  0.13770698089447816  0.3189617085962055  1.0000
  O   O5        1.0  0.6374797812962925  0.8948985888529465  0.5779029620574575  1.0000
  O   O6        1.0  0.36253564926842324  0.1051182860191489  0.422100826689693  1.0000
  O   O7        1.0  0.9240122489127458  0.207043719542682  0.620472907484583  1.0000
  O   O8        1.0  0.07597273068257941  0.792973667932074  0.37953383465689666  1.0000
  O   O9        1.0  0.804591791624496  0.4045077664728609  0.6590986663163247  1.0000
  O   O10       1.0  0.1954365709205348  0.5955156925742955  0.3409122608119262  1.0000
