data_image0
_chemical_formula_structural       Mg6H18C42S6O18
_chemical_formula_sum              "Mg6 H18 C42 S6 O18"
_cell_length_a       6.877533913127279
_cell_length_b       25.738648607546317
_cell_length_c       25.722496249910176
_cell_angle_alpha    119.2800202801982
_cell_angle_beta     95.10710118246347
_cell_angle_gamma    95.06839285802491

_space_group_name_H-M_alt    "P 1"
_space_group_IT_number       1

loop_
  _space_group_symop_operation_xyz
  'x, y, z'

loop_
  _atom_site_type_symbol
  _atom_site_label
  _atom_site_symmetry_multiplicity
  _atom_site_fract_x
  _atom_site_fract_y
  _atom_site_fract_z
  _atom_site_occupancy
  Mg  Mg1       1.0  0.6007378260411327  0.6690187354950367  0.2935853455387444  1.0000
  Mg  Mg2       1.0  0.30704688604884467  0.7066085912625439  0.3756052041122329  1.0000
  Mg  Mg3       1.0  0.9317946009251512  0.6245811066769633  0.33109935687107145  1.0000
  Mg  Mg4       1.0  0.653411348256185  0.3200974436715213  0.6990515694797067  1.0000
  Mg  Mg5       1.0  0.9543662460305882  0.3011167690110526  0.6208064230260034  1.0000
  Mg  Mg6       1.0  0.33324332364488646  0.37928504981069017  0.6800826111695315  1.0000
  H   H1        1.0  0.3967963133433868  0.8460703281824208  0.3675704481547867  1.0000
  H   H2        1.0  0.02866917675317636  0.6323645264699493  0.4782979629460938  1.0000
  H   H3        1.0  0.5512449205652885  0.521534672182206  0.15406041592252256  1.0000
  H   H4        1.0  0.10063835219135346  0.8751855538727258  0.4522408422446986  1.0000
  H   H5        1.0  0.6488312830606232  0.5479881759372063  0.4231390551570441  1.0000
  H   H6        1.0  0.22637220531516525  0.5764235765430783  0.12479289858251966  1.0000
  H   H7        1.0  0.9518332086214014  0.9639387105906465  0.4624628722666984  1.0000
  H   H8        1.0  0.4892409322901585  0.5377004898271238  0.5015680068186937  1.0000
  H   H9        1.0  0.9886640942373788  0.4977811613354747  0.035992627443476956  1.0000
  H   H10       1.0  0.8776209818199587  0.153019264579207  0.558708384052558  1.0000
  H   H11       1.0  0.3173061268519176  0.4413705905860397  0.5940835193414172  1.0000
  H   H12       1.0  0.7240487769895834  0.4059007064241413  0.8470920412818258  1.0000
  H   H13       1.0  0.1504352257077954  0.13256531592701754  0.513251141992761  1.0000
  H   H14       1.0  0.635306229642154  0.4866732374038918  0.6191533601352431  1.0000
  H   H15       1.0  0.017364925395909763  0.38055770488056595  0.8674678890522215  1.0000
  H   H16       1.0  0.3178119153116583  0.0451539289511587  0.4531352344939066  1.0000
  H   H17       1.0  0.8621826661725152  0.5466501459385356  0.5916590769292753  1.0000
  H   H18       1.0  0.27204124384572737  0.4075850939775307  0.9547711126814916  1.0000
  C   C1        1.0  0.6671034450010609  0.9099964546756353  0.413433002834438  1.0000
  C   C2        1.0  0.2532068894700075  0.5866109833733263  0.49651275037179937  1.0000
  C   C3        1.0  0.7575821414982116  0.5031435098918919  0.09001413929294698  1.0000
  C   C4        1.0  0.5514150614128112  0.8532894010050001  0.3867888364813864  1.0000
  C   C5        1.0  0.16437731841534745  0.6132679888796347  0.4664374773022216  1.0000
  C   C6        1.0  0.6986719087333243  0.5333812969048495  0.1467967749956216  1.0000
  C   C7        1.0  0.632932637465771  0.802701732625465  0.38097016666275596  1.0000
  C   C8        1.0  0.2522128485365585  0.6192396677378299  0.4218314925998072  1.0000
  C   C9        1.0  0.8308989507700204  0.5781269784843063  0.19739786034659798  1.0000
  C   C10       1.0  0.8386630982048902  0.8111390556766767  0.40337852563167326  1.0000
  C   C11       1.0  0.4357878170632858  0.5969146177122086  0.40795251260772847  1.0000
  C   C12       1.0  0.028278030127488328  0.5919260401239228  0.1889261911906956  1.0000
  C   C13       1.0  0.9458944128371274  0.869918752754373  0.43432602873080134  1.0000
  C   C14       1.0  0.5119427430257983  0.5659399541042659  0.4357674630795854  1.0000
  C   C15       1.0  0.07678045698970949  0.56389261534855  0.13009337560515627  1.0000
  C   C16       1.0  0.8639941360386416  0.9192877595698477  0.4399750510281705  1.0000
  C   C17       1.0  0.4239816460067942  0.5602053034731185  0.47939577247028337  1.0000
  C   C18       1.0  0.9454252948434316  0.5201615180915481  0.08069864789799645  1.0000
  C   C19       1.0  0.9479357883896142  0.7608215698392086  0.39150227303262836  1.0000
  C   C20       1.0  0.5569222392756074  0.6087901791115726  0.3695195748032774  1.0000
  C   C21       1.0  0.18764386656026494  0.6304536740705232  0.23925248998065746  1.0000
  C   C22       1.0  0.6094337154581096  0.0943280094317771  0.5009432564025573  1.0000
  C   C23       1.0  0.10640577632843667  0.4989998795863144  0.5931545534176407  1.0000
  C   C24       1.0  0.5145024508033486  0.40647485348501505  0.9056576729445708  1.0000
  C   C25       1.0  0.717358791928241  0.1475895831406291  0.5485295032204788  1.0000
  C   C26       1.0  0.16713452863197634  0.45148387833368997  0.5988343605728444  1.0000
  C   C27       1.0  0.5692559838851706  0.4010549716389277  0.8524946640861301  1.0000
  C   C28       1.0  0.6242260314900746  0.19733844116831997  0.5842072268087505  1.0000
  C   C29       1.0  0.03883227745173902  0.41585567884209235  0.6129370369167544  1.0000
  C   C30       1.0  0.4265356334629544  0.38712217124680853  0.8028055197837247  1.0000
  C   C31       1.0  0.41438987934929367  0.19171225373425224  0.5695706694286926  1.0000
  C   C32       1.0  0.843567153720464  0.4305141367122334  0.6220246058384189  1.0000
  C   C33       1.0  0.2223149595308413  0.377991696848909  0.8083851030403507  1.0000
  C   C34       1.0  0.3096693059525464  0.1358517522618499  0.5234644942842266  1.0000
  C   C35       1.0  0.7844572925345901  0.4765307455023518  0.6122465506762181  1.0000
  C   C36       1.0  0.1733209606999253  0.3874926591533382  0.864171503153564  1.0000
  C   C37       1.0  0.4022375699433951  0.0872018258987737  0.48947962141001966  1.0000
  C   C38       1.0  0.9106640336674586  0.5104378126917484  0.5974932218721845  1.0000
  C   C39       1.0  0.31446089790578213  0.4020135192570395  0.9127661241980787  1.0000
  C   C40       1.0  0.3045613177132935  0.24273301160138766  0.5965153169500323  1.0000
  C   C41       1.0  0.70716942577738  0.4035738822948716  0.6460915078380082  1.0000
  C   C42       1.0  0.061651751476183764  0.3540927787235191  0.7573784836861036  1.0000
  S   S1        1.0  0.750346833847061  0.0427256098009963  0.45084383854063487  1.0000
  S   S2        1.0  0.2973974392245111  0.548956202953498  0.5916727098741957  1.0000
  S   S3        1.0  0.707048643623402  0.40788362824539354  0.9571025258780068  1.0000
  S   S4        1.0  0.5592318613732558  0.9636409697815509  0.40077207070858367  1.0000
  S   S5        1.0  0.15677071778970483  0.5990664990966081  0.5626375500201418  1.0000
  S   S6        1.0  0.5956007517574378  0.4369624539103327  0.03636408825335736  1.0000
  O   O1        1.0  0.13095834532899886  0.7701784644920195  0.4120327039716898  1.0000
  O   O2        1.0  0.7195038630619877  0.5882718705788648  0.358311179664497  1.0000
  O   O3        1.0  0.36132159461048025  0.6415979371883794  0.22991756677371458  1.0000
  O   O4        1.0  0.8545714481901783  0.7064599028532258  0.357184508192006  1.0000
  O   O5        1.0  0.497663793596459  0.643087063973411  0.3494894332642885  1.0000
  O   O6        1.0  0.14838377843290115  0.6506741188948268  0.2936456377156062  1.0000
  O   O7        1.0  0.5159392426879207  0.7490748023420011  0.3532389868832411  1.0000
  O   O8        1.0  0.16308118522802317  0.646999543269466  0.39595860384796566  1.0000
  O   O9        1.0  0.7674860855559588  0.6041758782314873  0.25107739225305886  1.0000
  O   O10       1.0  0.12358468977341631  0.23789862406336232  0.5764652767248677  1.0000
  O   O11       1.0  0.5461839102301694  0.42363011088647806  0.6613374994390993  1.0000
  O   O12       1.0  0.8854793152477214  0.33890819619450946  0.7621907843343718  1.0000
  O   O13       1.0  0.3961390601800119  0.2936749189872145  0.6408221592226439  1.0000
  O   O14       1.0  0.7547910586049015  0.3593116757589456  0.6526934275914228  1.0000
  O   O15       1.0  0.10245664106114559  0.3475303029439729  0.7064664501947107  1.0000
  O   O16       1.0  0.7373072308196242  0.24729111937478615  0.6289061847906793  1.0000
  O   O17       1.0  0.10751302047467699  0.3711802666982464  0.6181258787376435  1.0000
  O   O18       1.0  0.489745608121936  0.3821242741190646  0.7529459463463013  1.0000
