data_image0
_chemical_formula_structural       Zn4H36C66S4N18O12
_chemical_formula_sum              "Zn4 H36 C66 S4 N18 O12"
_cell_length_a       19.965979698534973
_cell_length_b       19.88592621416708
_cell_length_c       19.599155574981303
_cell_angle_alpha    68.2459811904421
_cell_angle_beta     74.73935481170447
_cell_angle_gamma    112.16568329146203

_space_group_name_H-M_alt    "P 1"
_space_group_IT_number       1

loop_
  _space_group_symop_operation_xyz
  'x, y, z'

loop_
  _atom_site_type_symbol
  _atom_site_label
  _atom_site_symmetry_multiplicity
  _atom_site_fract_x
  _atom_site_fract_y
  _atom_site_fract_z
  _atom_site_occupancy
  Zn  Zn1       1.0  0.11447959577946429  0.6002826978783348  0.0036440387850121044  1.0000
  Zn  Zn2       1.0  0.9061995091695608  0.4060160807799847  0.0056144354069402646  1.0000
  Zn  Zn3       1.0  0.005125103732062555  0.6147102097546624  0.891595693891162  1.0000
  Zn  Zn4       1.0  0.0032567021487465674  0.3863869423334024  0.12106241376281453  1.0000
  H   H1        1.0  0.20792788972489265  0.8142060520895386  0.9625643634436615  1.0000
  H   H2        1.0  0.4906204228019036  0.3664958982398404  0.23220850776520052  1.0000
  H   H3        1.0  0.634754538457969  0.639486950363427  0.0628575284732733  1.0000
  H   H4        1.0  0.36613095085478164  0.36444115474268574  0.22983715232244611  1.0000
  H   H5        1.0  0.19386386130724284  0.060538846405229704  0.9579583363831504  1.0000
  H   H6        1.0  0.10171177919777101  0.20423214605020232  0.7704299442410519  1.0000
  H   H7        1.0  0.1806257962422677  0.17916256192091143  0.9589022329368361  1.0000
  H   H8        1.0  0.11763275074323323  0.08702425103631133  0.7678539232627841  1.0000
  H   H9        1.0  0.7438875152045696  0.21191671958353453  0.11792079226565728  1.0000
  H   H10       1.0  0.2579854798770072  0.6083421261673365  0.8764000668603344  1.0000
  H   H11       1.0  0.8785380549127597  0.6477735235730934  0.9990536829070181  1.0000
  H   H12       1.0  0.025807516025018573  0.41242654970832154  0.8470385461976306  1.0000
  H   H13       1.0  0.1339996484758998  0.3604713821643699  0.18798747727444018  1.0000
  H   H14       1.0  0.8630345011697143  0.3595969284830858  0.26856204983902643  1.0000
  H   H15       1.0  0.9503709380665127  0.6297084345377968  0.7405084626982518  1.0000
  H   H16       1.0  0.748816825602752  0.37129015295563766  0.14365104829357733  1.0000
  H   H17       1.0  0.28396989317244  0.634966660156536  0.020778113303521282  1.0000
  H   H18       1.0  0.8569534289399243  0.1826763720822342  0.27895567274202193  1.0000
  H   H19       1.0  0.13258177100654214  0.6424672566904093  0.7281179039733987  1.0000
  H   H20       1.0  0.7836638153620825  0.5627049726541103  0.4726154551078281  1.0000
  H   H21       1.0  0.9264406222214776  0.42192350833597203  0.5635161222653977  1.0000
  H   H22       1.0  0.9323149802877567  0.7548536024351477  0.39479180075633014  1.0000
  H   H23       1.0  0.7110197976935098  0.40704448926160103  0.6235299426438844  1.0000
  H   H24       1.0  0.7785513987543311  0.23182443527780092  0.6448239969375464  1.0000
  H   H25       1.0  0.0055234572845748  0.6614994859581033  0.1824773451879837  1.0000
  H   H26       1.0  0.07220860112524019  0.6972452570065998  0.08369348062124261  1.0000
  H   H27       1.0  0.8486177041229793  0.3024150449962377  0.9182151972602169  1.0000
  H   H28       1.0  0.8163430707375028  0.3219642442680808  0.845556091102786  1.0000
  H   H29       1.0  0.9770503815010657  0.8583683239168496  0.8686898229390893  1.0000
  H   H30       1.0  0.0752295738588629  0.20681610309253526  0.014189992035021222  1.0000
  H   H31       1.0  0.9991532824602063  0.5777870827180537  0.41204432896329024  1.0000
  H   H32       1.0  0.49750320211825994  0.9152206739118186  0.35034793581275653  1.0000
  H   H33       1.0  0.5130323990734098  0.7915297362973989  0.613558290544944  1.0000
  H   H34       1.0  0.3732318285530525  0.7881949325481373  0.4790936063604506  1.0000
  H   H35       1.0  0.6372724186730777  0.9186537775601522  0.4848127355537459  1.0000
  H   H36       1.0  0.5101757098640078  0.6373984206072479  0.06071493172882474  1.0000
  C   C1        1.0  0.166971068856455  0.797787698240299  0.9364468363503777  1.0000
  C   C2        1.0  0.9351951911821175  0.5391746390142984  0.4595723347274046  1.0000
  C   C3        1.0  0.81524918016369  0.5311039406693964  0.4926085313026861  1.0000
  C   C4        1.0  0.8951214412602014  0.45350272996006424  0.542677817355248  1.0000
  C   C5        1.0  0.8881884196674648  0.49823346748090114  0.3059186493694029  1.0000
  C   C6        1.0  0.8653267454214202  0.48373485760991036  0.7216998942628481  1.0000
  C   C7        1.0  0.8193540596668215  0.41379683039079407  0.5296098291201757  1.0000
  C   C8        1.0  0.890913601304014  0.5707641706305397  0.5062230338078068  1.0000
  C   C9        1.0  0.8600660146776422  0.500082147713087  0.44322881493596367  1.0000
  C   C10       1.0  0.8505879917319135  0.48430316230970066  0.5923016521646289  1.0000
  C   C11       1.0  0.8690670853538053  0.5033610922553465  0.36765772481119546  1.0000
  C   C12       1.0  0.03896467479880528  0.395222881153714  0.8991366311432216  1.0000
  C   C13       1.0  0.8516857170337531  0.48028131938465185  0.6655076674108928  1.0000
  C   C14       1.0  0.4313568325624075  0.8165093575927999  0.47992537700848475  1.0000
  C   C15       1.0  0.5793987863475537  0.889370093979956  0.48377052507273544  1.0000
  C   C16       1.0  0.7830055603970649  0.21901803317238938  0.1474401115790017  1.0000
  C   C17       1.0  0.2160398304727025  0.6128876956854938  0.8518234771928094  1.0000
  C   C18       1.0  0.43384246353162587  0.7819769515440101  0.5559143035849773  1.0000
  C   C19       1.0  0.5757611964977515  0.9270771289653155  0.4089538203971443  1.0000
  C   C20       1.0  0.5100051629662232  0.8183097000136997  0.55565922138927  1.0000
  C   C21       1.0  0.500815607763066  0.8876003263843943  0.407976149152411  1.0000
  C   C22       1.0  0.36085243756392055  0.7187047154378376  0.6315834361034833  1.0000
  C   C23       1.0  0.770373161316563  0.1595087953475556  0.2242305809477543  1.0000
  C   C24       1.0  0.6445787560058065  0.0052386735875984  0.3392773852939825  1.0000
  C   C25       1.0  0.7031580151055579  0.0762717471131964  0.2837183261326289  1.0000
  C   C26       1.0  0.29785317501218606  0.6743858845559388  0.6976090905511471  1.0000
  C   C27       1.0  0.5756169799349564  0.5795172813119508  0.099950982138033  1.0000
  C   C28       1.0  0.4250167737388538  0.4246064153288034  0.1938726955673218  1.0000
  C   C29       1.0  0.5716838185880847  0.5030391040503447  0.14683978948470164  1.0000
  C   C30       1.0  0.42964019803539355  0.5006316172081428  0.14431994154195857  1.0000
  C   C31       1.0  0.4945414236046375  0.42577958618167616  0.19522968616880826  1.0000
  C   C32       1.0  0.5061706854791767  0.5783383110278778  0.09860899021665402  1.0000
  C   C33       1.0  0.644376364882838  0.5038020610748576  0.13927939039579945  1.0000
  C   C34       1.0  0.22627351513181532  0.6371242470072644  0.7706460992713605  1.0000
  C   C35       1.0  0.36053165659796355  0.4992997215041086  0.13755702623121382  1.0000
  C   C36       1.0  0.3026716144578501  0.4988356165183276  0.12731620422432852  1.0000
  C   C37       1.0  0.7085570488967363  0.5052889664106246  0.122254719995091  1.0000
  C   C38       1.0  0.16606467540128014  0.15840433586087238  0.9176413648881834  1.0000
  C   C39       1.0  0.13058026977545006  0.10707686890197722  0.8100380861246564  1.0000
  C   C40       1.0  0.8594332445842954  0.5810058615777366  0.027449944290523793  1.0000
  C   C41       1.0  0.15891916714573281  0.4274407889762416  0.14553101031116714  1.0000
  C   C42       1.0  0.13786928768224269  0.19839775599348292  0.8663636162050424  1.0000
  C   C43       1.0  0.1549873116184627  0.06443389345226079  0.8641104652063024  1.0000
  C   C44       1.0  0.12198125723809734  0.17270925662571562  0.8112577703119758  1.0000
  C   C45       1.0  0.7819742035227222  0.5081472062892091  0.09011927847880226  1.0000
  C   C46       1.0  0.17402382366950767  0.0924163632589412  0.9168363547964449  1.0000
  C   C47       1.0  0.12173452975757465  0.25899783398154597  0.875093762255247  1.0000
  C   C48       1.0  0.15668614120650673  0.9925880787697923  0.8686651812084847  1.0000
  C   C49       1.0  0.15379183490387766  0.9272847600426106  0.8774928171339411  1.0000
  C   C50       1.0  0.10339378281242517  0.3065304691278213  0.8890083250754515  1.0000
  C   C51       1.0  0.9071265775792057  0.4272235354850551  0.2238463094658344  1.0000
  C   C52       1.0  0.9273347478437869  0.563815779176501  0.7852932080485007  1.0000
  C   C53       1.0  0.7927164073539715  0.4393423161821702  0.10126715764495496  1.0000
  C   C54       1.0  0.2358572494194249  0.5678180151875125  0.059429098166909  1.0000
  C   C55       1.0  0.9847312469622338  0.5691477724439338  0.15569911870102976  1.0000
  C   C56       1.0  0.23737615223488018  0.4982650097244346  0.11277441257610123  1.0000
  C   C57       1.0  0.870453951016273  0.42281803989784095  0.856972378671124  1.0000
  C   C58       1.0  0.8407582536966913  0.20450899220533358  0.22989547471070187  1.0000
  C   C59       1.0  0.15168545649988374  0.6300703336534001  0.7760979943048342  1.0000
  C   C60       1.0  0.09121148318460823  0.7937661114364757  0.8726232483740548  1.0000
  C   C61       1.0  0.07629178335255919  0.34738766989556785  0.9943653938830934  1.0000
  C   C62       1.0  0.14116543357425823  0.8479055657715052  0.8923541477462111  1.0000
  C   C63       1.0  0.0776124149080814  0.35013920988799185  0.9206743655711807  1.0000
  C   C64       1.0  0.9194664341563765  0.4967065403649898  0.23400593329623118  1.0000
  C   C65       1.0  0.8844028766024792  0.48985990922503225  0.7837288816744846  1.0000
  C   C66       1.0  0.7751345513959009  0.4455022549648149  0.5763954116515537  1.0000
  S   S1        1.0  0.9381307580713242  0.6709348884482295  0.49606889833202683  1.0000
  S   S2        1.0  0.7724216659809214  0.31270283228126766  0.5418121618122812  1.0000
  S   S3        1.0  0.03848784359122705  0.8084891929448476  0.8160952131091223  1.0000
  S   S4        1.0  0.09901278667587829  0.28633380031322986  0.06472196143678845  1.0000
  N   N1        1.0  0.13348116121969153  0.7212575867448975  0.9424027766489618  1.0000
  N   N2        1.0  0.16256346156784232  0.5402081509538023  0.06080352078620165  1.0000
  N   N3        1.0  0.008959279597796433  0.5433673144851597  0.10445712441219977  1.0000
  N   N4        1.0  0.9025153521582965  0.45521869209302684  0.8978463271303098  1.0000
  N   N5        1.0  0.8902748217460328  0.2836064007731878  0.162629425174174  1.0000
  N   N6        1.0  0.10318030199388782  0.6061561666380941  0.853228936436615  1.0000
  N   N7        1.0  0.0864914579982995  0.718813380240235  0.9036610586211468  1.0000
  N   N8        1.0  0.04090611045835147  0.38769233420611465  0.01330186350190137  1.0000
  N   N9        1.0  0.016492968409060872  0.6526327504457825  0.13390185339151378  1.0000
  N   N10       1.0  0.827629040816973  0.33616751790233923  0.8875956202186404  1.0000
  N   N11       1.0  0.016946189954474195  0.41608719526410454  0.955926236838096  1.0000
  N   N12       1.0  0.8547102019875794  0.29276519800740175  0.11115656373912945  1.0000
  N   N13       1.0  0.14239799386815843  0.5955855714003494  0.8999896383729008  1.0000
  N   N14       1.0  0.9106939936120142  0.5566321854084464  0.0026897557878911792  1.0000
  N   N15       1.0  0.11480844474012752  0.45292571187962255  0.11413590729467415  1.0000
  N   N16       1.0  0.9607467281639829  0.4553186096563736  0.1472241242172672  1.0000
  N   N17       1.0  0.9382985775692987  0.543093462626075  0.852682623035328  1.0000
  N   N18       1.0  0.8697475895739474  0.46967520541433316  0.04795819980905954  1.0000
  O   O1        1.0  0.8771471550439146  0.6802863222781711  0.5432674040673079  1.0000
  O   O2        1.0  0.18546695956383272  0.3204336139019973  0.02965361754562679  1.0000
  O   O3        1.0  0.05334733632009403  0.27022885531413726  0.14537255102251123  1.0000
  O   O4        1.0  0.05316413177848738  0.1968279921671012  0.07100856882936316  1.0000
  O   O5        1.0  0.010367731204290532  0.6855117730685266  0.5052483248457946  1.0000
  O   O6        1.0  0.9695492737982292  0.7342633834134987  0.39771301797976133  1.0000
  O   O7        1.0  0.7002843992921157  0.2967198643157758  0.5322119706207858  1.0000
  O   O8        1.0  0.8337039050784156  0.3022214384409025  0.49670663974214346  1.0000
  O   O9        1.0  0.7409719164761553  0.25171531283875476  0.6408332224525922  1.0000
  O   O10       1.0  0.08670973136580074  0.8916843711102802  0.7421899295959022  1.0000
  O   O11       1.0  0.0026780277675229384  0.7319789273624481  0.8127521929297002  1.0000
  O   O12       1.0  0.9607617007772473  0.8016201372397661  0.8772367981298361  1.0000
