data_image0
_chemical_formula_structural       Mg2H32C16Br4O4
_chemical_formula_sum              "Mg2 H32 C16 Br4 O4"
_cell_length_a       3.9431761920000348
_cell_length_b       7.540564490000122
_cell_length_c       18.290244043000172
_cell_angle_alpha    90.00001511094722
_cell_angle_beta     89.99999721335016
_cell_angle_gamma    89.99998537375673

_space_group_name_H-M_alt    "P 1"
_space_group_IT_number       1

loop_
  _space_group_symop_operation_xyz
  'x, y, z'

loop_
  _atom_site_type_symbol
  _atom_site_label
  _atom_site_symmetry_multiplicity
  _atom_site_fract_x
  _atom_site_fract_y
  _atom_site_fract_z
  _atom_site_occupancy
  Mg  Mg1       1.0  0.0  0.0  0.0  1.0000
  Mg  Mg2       1.0  0.49999777222773645  0.4999985047539752  0.49999991350573225  1.0000
  H   H1        1.0  0.22523971922251457  0.0279833571281785  0.17312344208321653  1.0000
  H   H2        1.0  0.2252368855517517  0.972017668319715  0.8268769346123718  1.0000
  H   H3        1.0  0.2747656477145313  0.527984432227214  0.32687647441215256  1.0000
  H   H4        1.0  0.27476308686124906  0.4720165864686479  0.6731233550131462  1.0000
  H   H5        1.0  0.7747634333123444  0.9720163047005812  0.8268763849283471  1.0000
  H   H6        1.0  0.7747662669827308  0.027983319669886  0.17312343913882694  1.0000
  H   H7        1.0  0.7252375048196952  0.47201788192287353  0.6731233525995535  1.0000
  H   H8        1.0  0.725240065673603  0.5279830753601118  0.32687647199841746  1.0000
  H   H9        1.0  0.222226851721075  0.2758441366975148  0.2510923439252366  1.0000
  H   H10       1.0  0.22222415367769344  0.724156889161108  0.7489080328026387  1.0000
  H   H11       1.0  0.27777586076479827  0.7758438344771434  0.24890814578932913  1.0000
  H   H12       1.0  0.2777734011333948  0.22415585764784404  0.7510922303432109  1.0000
  H   H13       1.0  0.7777763008134073  0.7241568512920794  0.7489080298259623  1.0000
  H   H14       1.0  0.7777739268035049  0.2758440988286637  0.2510917942090245  1.0000
  H   H15       1.0  0.7222272917696841  0.22415715351245777  0.7510922279618767  1.0000
  H   H16       1.0  0.7222272153747298  0.775843804181271  0.248908143407931  1.0000
  H   H17       1.0  0.22275936716785344  0.5221240815345212  0.1724088798854311  1.0000
  H   H18       1.0  0.22275930546032896  0.477876944251328  0.8275914968367244  1.0000
  H   H19       1.0  0.27724600256949117  0.022121773724656207  0.3275910359838008  1.0000
  H   H20       1.0  0.2772457362059839  0.9778779184724158  0.6724093401544022  1.0000
  H   H21       1.0  0.7772488574200339  0.4778769064545543  0.8275909471261826  1.0000
  H   H22       1.0  0.7772463831011436  0.5221227175774388  0.17240887691438897  1.0000
  H   H23       1.0  0.7227571499656806  0.9778765619434396  0.6724087910276991  1.0000
  H   H24       1.0  0.7227574163281787  0.022124395677849403  0.32759103359686736  1.0000
  H   H25       1.0  0.22539433992790242  0.4047084302738639  0.05459633950010809  1.0000
  H   H26       1.0  0.22539419612722608  0.5952925951525857  0.9454034904542465  1.0000
  H   H27       1.0  0.27460323893491534  0.9047082563807363  0.44540361724187244  1.0000
  H   H28       1.0  0.27460088422701295  0.09529143617658058  0.554596212185096  1.0000
  H   H29       1.0  0.774603740553232  0.5952925577160856  0.945404034251119  1.0000
  H   H30       1.0  0.7746038843539652  0.4047083928371792  0.05459633655741669  1.0000
  H   H31       1.0  0.7253923055199181  0.09529140544854188  0.554596209769734  1.0000
  H   H32       1.0  0.7253946602278206  0.9047082256526977  0.4454036148265103  1.0000
  C   C1        1.0  0.9999983846899311  0.1117794157424115  0.1658758627865211  1.0000
  C   C2        1.0  0.9999981254838844  0.888220177922136  0.8341239588670317  1.0000
  C   C3        1.0  0.4999977638227264  0.611780533016862  0.33412351056347217  1.0000
  C   C4        1.0  0.49999524460512396  0.38822045497325064  0.6658763164482195  1.0000
  C   C5        1.0  2.446427167500001e-06  0.2757234595166978  0.21511524177215335  1.0000
  C   C6        1.0  2.2764153868999997e-06  0.7242762704766149  0.7848845905974569  1.0000
  C   C7        1.0  0.5000028021427809  0.7757244765776933  0.2848847011900162  1.0000
  C   C8        1.0  0.5000003503917583  0.22427651141172325  0.7151151258216187  1.0000
  C   C9        1.0  0.9999983070287611  0.4378717126675368  0.16369821653346148  1.0000
  C   C10       1.0  0.9999982031447344  0.5621292071576818  0.8363016051201626  1.0000
  C   C11       1.0  0.4999951496546729  0.9378715051990697  0.33630173839343047  1.0000
  C   C12       1.0  0.4999953227467557  0.0621281566307346  0.6636986353577682  1.0000
  C   C13       1.0  2.4392964022e-06  0.3653241364110471  0.08572222181592787  1.0000
  C   C14       1.0  2.2835461522e-06  0.6346755935822657  0.9142776105536823  1.0000
  C   C15       1.0  0.5000027664638296  0.8653239115305025  0.41427718397891766  1.0000
  C   C16       1.0  0.5000003860710294  0.13467575029825696  0.5857226430326534  1.0000
  Br  Br1       1.0  0.4999977973017239  0.1930799803094487  0.9373472600657137  1.0000
  Br  Br2       1.0  0.4999977471534295  0.8069183553591728  0.0626525669458218  1.0000
  Br  Br3       1.0  7.380762739000001e-07  0.6930795265635865  0.5626535411416353  1.0000
  Br  Br4       1.0  8.441511383000001e-07  0.3069187409401337  0.43734682725138185  1.0000
  O   O1        1.0  9.145410402000001e-07  0.17239289048545461  0.0905963893391544  1.0000
  O   O2        1.0  0.9999981316590623  0.827608029339764  0.9094039790540194  1.0000
  O   O3        1.0  0.49999774103817185  0.6723927305974727  0.4094035372258346  1.0000
  O   O4        1.0  0.49999780341634903  0.3276082573924696  0.590596289785843  1.0000
