data_image0
_chemical_formula_structural       Zn2H58C52N2O20
_chemical_formula_sum              "Zn2 H58 C52 N2 O20"
_cell_length_a       10.895090667472958
_cell_length_b       14.083057781486955
_cell_length_c       15.247130352111729
_cell_angle_alpha    89.7128314575928
_cell_angle_beta     91.1089422981674
_cell_angle_gamma    89.84215068381913

_space_group_name_H-M_alt    "P 1"
_space_group_IT_number       1

loop_
  _space_group_symop_operation_xyz
  'x, y, z'

loop_
  _atom_site_type_symbol
  _atom_site_label
  _atom_site_symmetry_multiplicity
  _atom_site_fract_x
  _atom_site_fract_y
  _atom_site_fract_z
  _atom_site_occupancy
  Zn  Zn1       1.0  0.5010913504394949  0.4009441692205727  0.49864219453017006  1.0000
  Zn  Zn2       1.0  0.5064452602004792  0.6072599530330223  0.5025033638510124  1.0000
  H   H1        1.0  0.11258337296573728  0.6589489142184988  0.521487374512084  1.0000
  H   H2        1.0  0.8819632047012077  0.651561379687678  0.5107079176269025  1.0000
  H   H3        1.0  0.44645493888502585  0.07359239623860248  0.6362537401880601  1.0000
  H   H4        1.0  0.5413359750794057  0.07162629248796289  0.3625205472904511  1.0000
  H   H5        1.0  0.44544706556079927  0.25245318122328797  0.6278047722316131  1.0000
  H   H6        1.0  0.5400236180806387  0.25074084498292853  0.3668321371779085  1.0000
  H   H7        1.0  0.36574159638406195  0.38181711137237057  0.2229078293178901  1.0000
  H   H8        1.0  0.5881579809055352  0.3678946434389871  0.7892161457205802  1.0000
  H   H9        1.0  0.5794650536212629  0.6332054626832074  0.05673816436526379  1.0000
  H   H10       1.0  0.3797240242648173  0.6383706741555526  0.9312663128955805  1.0000
  H   H11       1.0  0.7287204754841737  0.25496148148356207  0.5775776971075288  1.0000
  H   H12       1.0  0.7726799722171904  0.34632173222389895  0.6512825019270139  1.0000
  H   H13       1.0  0.8417716273037001  0.2203948213988411  0.7623996740997825  1.0000
  H   H14       1.0  0.6826818350984707  0.2113122095356914  0.7347333594858797  1.0000
  H   H15       1.0  0.7892551756262803  0.1307301033073642  0.6886810132179023  1.0000
  H   H16       1.0  0.06861104117028562  0.14939849486909654  0.4368157558978965  1.0000
  H   H17       1.0  0.22677490768283795  0.1612597656241448  0.46801734830076214  1.0000
  H   H18       1.0  0.27368445039454764  0.2173819627435449  0.3148088408166387  1.0000
  H   H19       1.0  0.21350348827964172  0.10009505180264003  0.3150194316327131  1.0000
  H   H20       1.0  0.11797370834705836  0.19805402375028788  0.2825025547376256  1.0000
  H   H21       1.0  0.9478951790114394  0.33133551866494326  0.34908873000971136  1.0000
  H   H22       1.0  0.7925821675053013  0.35900813376157703  0.3798075065898985  1.0000
  H   H23       1.0  0.8270441453545914  0.24789364953768714  0.3294511847200354  1.0000
  H   H24       1.0  0.2236501233696018  0.26592803791513114  0.7100846426729247  1.0000
  H   H25       1.0  0.0850601969809546  0.3322709982902197  0.6931313110103048  1.0000
  H   H26       1.0  0.2307998378337786  0.38104175568417276  0.6607671545679707  1.0000
  H   H27       1.0  0.22321118742073054  0.46886014823353866  0.9879202933763622  1.0000
  H   H28       1.0  0.15901233508993323  0.41189177487427037  0.08142172717744242  1.0000
  H   H29       1.0  0.15764405213733568  0.2562765118121391  0.9980049997207345  1.0000
  H   H30       1.0  0.0674137307922607  0.34520464761644837  0.9435565398193476  1.0000
  H   H31       1.0  0.2162478373207293  0.31666791669794475  0.9047056952806616  1.0000
  H   H32       1.0  0.7263837923771632  0.4419358834546472  0.0115853549867708  1.0000
  H   H33       1.0  0.765952141776161  0.3693934403247283  0.9204685795897092  1.0000
  H   H34       1.0  0.7411003582952272  0.22319758869612366  0.0157403034377452  1.0000
  H   H35       1.0  0.8545403068131279  0.30148143561503826  0.0598053064305191  1.0000
  H   H36       1.0  0.7056367129427343  0.2974753891827148  0.10632830427847038  1.0000
  H   H37       1.0  0.7066332539605326  0.7627779600940768  0.2378545015386919  1.0000
  H   H38       1.0  0.6019176558637868  0.7620665906122  0.1454333238172651  1.0000
  H   H39       1.0  0.7347397656270688  0.6860904096043897  0.14676092302791943  1.0000
  H   H40       1.0  0.2982042144210411  0.7708311359463165  0.7365471066947507  1.0000
  H   H41       1.0  0.38206397275698106  0.7657750446872457  0.8390124509042922  1.0000
  H   H42       1.0  0.24366445877094378  0.6978932689748164  0.8243367450099086  1.0000
  H   H43       1.0  0.12461481712524859  0.9716746801819056  0.4155229030663463  1.0000
  H   H44       1.0  0.19520277403492506  0.9730233377817117  0.522648641313495  1.0000
  H   H45       1.0  0.17083143537617929  0.8615972993181983  0.4668939565402397  1.0000
  H   H46       1.0  0.7859531770530381  0.9983738370066036  0.4810963699313788  1.0000
  H   H47       1.0  0.8346801505163768  0.8881776837275124  0.5322662967361467  1.0000
  H   H48       1.0  0.861041099229446  0.9999871575079167  0.5864775827643598  1.0000
  H   H49       1.0  0.4056719979405301  0.7275499027260822  0.2971458623426031  1.0000
  H   H50       1.0  0.3020861961214791  0.8277051571763109  0.30219605745516986  1.0000
  H   H51       1.0  0.20643371448987577  0.6886290568234656  0.2220462829187682  1.0000
  H   H52       1.0  0.23095694200176808  0.6166053052330226  0.3171201857488625  1.0000
  H   H53       1.0  0.12548129235656796  0.713844560532017  0.3198494500769513  1.0000
  H   H54       1.0  0.5944814844204344  0.727181628729298  0.7031295986704225  1.0000
  H   H55       1.0  0.6931296349301447  0.8302657505542754  0.7040299354321888  1.0000
  H   H56       1.0  0.7900137415528687  0.6923562754613002  0.7859769723691343  1.0000
  H   H57       1.0  0.7752661520146589  0.6213746035934946  0.689951595784443  1.0000
  H   H58       1.0  0.8765972626985101  0.7209413208105175  0.6914080081750529  1.0000
  C   C1        1.0  0.48503419442422296  0.5002616697748506  0.3310324972907566  1.0000
  C   C2        1.0  0.5124686739241681  0.4955534521688279  0.6707089395052961  1.0000
  C   C3        1.0  0.5341534643891138  0.5811016093312916  0.1861916119280309  1.0000
  C   C4        1.0  0.4396200649997724  0.5797173300147376  0.8079352574970714  1.0000
  C   C5        1.0  0.529850468540296  0.5803955738742632  0.0944505861555385  1.0000
  C   C6        1.0  0.427166944209489  0.5803449697498025  0.8991303418234864  1.0000
  C   C7        1.0  0.4665553148375849  0.5092484626616239  0.0482785996670358  1.0000
  C   C8        1.0  0.47442325382611017  0.5061187970286695  0.9515548530176191  1.0000
  C   C9        1.0  0.40526972945704637  0.9019320521703306  0.45802618565898  1.0000
  C   C10       1.0  0.5929586860037475  0.9052979413873885  0.5450102789709207  1.0000
  C   C11       1.0  0.4136659915612029  0.8022119542101507  0.4575779037821022  1.0000
  C   C12       1.0  0.5920124349335794  0.8054078380483817  0.5455580578206779  1.0000
  C   C13       1.0  0.4976732323571013  0.9540593693147202  0.500893581991491  1.0000
  C   C14       1.0  0.4671878720840539  0.11009820457187659  0.5751927161502551  1.0000
  C   C15       1.0  0.520385547729809  0.1090869088853665  0.4227693827883527  1.0000
  C   C16       1.0  0.46644840469180343  0.20860778365254615  0.5713052492022399  1.0000
  C   C17       1.0  0.5197289104000404  0.20766263741837318  0.42438146151638995  1.0000
  C   C18       1.0  0.49481396460172516  0.05899752576080179  0.49970155750104084  1.0000
  C   C19       1.0  0.2723324114112557  0.5117345829098384  0.5170492554401349  1.0000
  C   C20       1.0  0.737670281788091  0.5013683479099952  0.4985857254194173  1.0000
  C   C21       1.0  0.07254865257835519  0.42187720066323914  0.5201895679488047  1.0000
  C   C22       1.0  0.9447512304606748  0.41679417877734437  0.5190610266183526  1.0000
  C   C23       1.0  0.13600700561244844  0.507842939241847  0.5206237162504479  1.0000
  C   C24       1.0  0.8736770408168506  0.4999237759011947  0.511930371784203  1.0000
  C   C25       1.0  0.0647979981055968  0.5910100973935853  0.5202416907967731  1.0000
  C   C26       1.0  0.9370374033697713  0.5868544738355934  0.5144861101738698  1.0000
  C   C27       1.0  0.943750456351928  0.3065246978457452  0.5236769197984898  1.0000
  C   C28       1.0  0.09343961357472351  0.31486659105821957  0.5172480899658467  1.0000
  C   C29       1.0  0.4032426355095708  0.4393520538404516  0.09526684669659603  1.0000
  C   C30       1.0  0.5344254784718813  0.4298377209622544  0.9113939623683507  1.0000
  C   C31       1.0  0.41098626742519423  0.4382504936886207  0.1866144452919087  1.0000
  C   C32       1.0  0.5435856116132455  0.4279536309347521  0.8204551266337957  1.0000
  C   C33       1.0  0.4764667032253129  0.5075010907487253  0.2330005855411343  1.0000
  C   C34       1.0  0.49804634542878284  0.5018921861032268  0.7678986077569975  1.0000
  C   C35       1.0  0.7912980154656423  0.2723401757876188  0.6323879398344872  1.0000
  C   C36       1.0  0.7758632774486429  0.20473412718015277  0.7089470938141956  1.0000
  C   C37       1.0  0.1544130102153858  0.18750846099460716  0.4225975999583653  1.0000
  C   C38       1.0  0.19162438612592328  0.17486773937871186  0.3280266766643933  1.0000
  C   C39       1.0  0.8618530921623343  0.3024993355342005  0.374567849486148  1.0000
  C   C40       1.0  0.1754522577862332  0.31604858846571915  0.6659783861114122  1.0000
  C   C41       1.0  0.2160314542222466  0.4004592206927883  0.023142710531651307  1.0000
  C   C42       1.0  0.1613548004927168  0.32502126481263355  0.9638471288030531  1.0000
  C   C43       1.0  0.7137569132423138  0.3711053511851786  0.9819584787940698  1.0000
  C   C44       1.0  0.7560119823921878  0.29354339264206436  0.04475567868589541  1.0000
  C   C45       1.0  0.6632344949412853  0.718148131710578  0.1874991359097109  1.0000
  C   C46       1.0  0.3260809467555035  0.7247575136824974  0.7916049068837765  1.0000
  C   C47       1.0  0.1930361035777892  0.9371803986867493  0.4586227461092705  1.0000
  C   C48       1.0  0.7982018185246743  0.9599226333053396  0.5437339307393286  1.0000
  C   C49       1.0  0.31785053971237426  0.7534046138040722  0.32217517293815234  1.0000
  C   C50       1.0  0.21348573535566828  0.689356307678004  0.2940625979862972  1.0000
  C   C51       1.0  0.6828512761603065  0.756256645893636  0.6823202393907195  1.0000
  C   C52       1.0  0.787954402916533  0.6940506031227541  0.7138664365938112  1.0000
  N   N1        1.0  0.5046755248986727  0.7563595828179005  0.5015888904821182  1.0000
  N   N2        1.0  0.49354402840796746  0.25607514593574626  0.49748856498818134  1.0000
  O   O1        1.0  0.5093990912934032  0.4184581035585282  0.3627040547983995  1.0000
  O   O2        1.0  0.4908020780439486  0.41504097076445123  0.6362177247252279  1.0000
  O   O3        1.0  0.46488310701685975  0.5755170255456362  0.3740647715604908  1.0000
  O   O4        1.0  0.5475883202252874  0.5698903112435117  0.6310414435198837  1.0000
  O   O5        1.0  0.32319070809835176  0.4349244775125811  0.4932662745281604  1.0000
  O   O6        1.0  0.6832191906331958  0.42228856795031083  0.5091910025873929  1.0000
  O   O7        1.0  0.3251868334330937  0.5892995249994186  0.5363181082713737  1.0000
  O   O8        1.0  0.6880425310604963  0.5799894561025454  0.47710973458423933  1.0000
  O   O9        1.0  0.9165072137401112  0.264320468125355  0.6039420940203827  1.0000
  O   O10       1.0  0.137172841574106  0.28781645500798453  0.43532517832031914  1.0000
  O   O11       1.0  0.8813731652919047  0.25516570161720853  0.4571997928771552  1.0000
  O   O12       1.0  0.16441059744759906  0.26919372783167717  0.5832338518993367  1.0000
  O   O13       1.0  0.336900744639486  0.3697179082122233  0.051724581309017  1.0000
  O   O14       1.0  0.5850991650470333  0.35708726203254315  0.9618151635351069  1.0000
  O   O15       1.0  0.596853677017819  0.647894233295169  0.23412279599077826  1.0000
  O   O16       1.0  0.3946314952841162  0.6498141233513195  0.7537439607568928  1.0000
  O   O17       1.0  0.3096732438167535  0.9485396308716717  0.41615964681393797  1.0000
  O   O18       1.0  0.6830956735874593  0.9550133223123964  0.5890957055416806  1.0000
  O   O19       1.0  0.32688540995385296  0.748327330171236  0.41818292493722714  1.0000
  O   O20       1.0  0.6820873553895694  0.754647300076485  0.5860362942130095  1.0000
