data_image0
_chemical_formula_structural       Sm4H32C36O32
_chemical_formula_sum              "Sm4 H32 C36 O32"
_cell_length_a       7.8002088319883995
_cell_length_b       8.273596114906642
_cell_length_c       19.090736857000607
_cell_angle_alpha    89.9999909356258
_cell_angle_beta     89.9999753525041
_cell_angle_gamma    106.1149952547751

_space_group_name_H-M_alt    "P 1"
_space_group_IT_number       1

loop_
  _space_group_symop_operation_xyz
  'x, y, z'

loop_
  _atom_site_type_symbol
  _atom_site_label
  _atom_site_symmetry_multiplicity
  _atom_site_fract_x
  _atom_site_fract_y
  _atom_site_fract_z
  _atom_site_occupancy
  Sm  Sm1       1.0  0.7579821497689708  0.25300507460458743  0.5178526414749525  1.0000
  Sm  Sm2       1.0  0.7420190685622713  0.7469939155608856  0.017855164598991294  1.0000
  Sm  Sm3       1.0  0.24202008108939307  0.7469933944013789  0.4821458283063221  1.0000
  Sm  Sm4       1.0  0.2579822550285229  0.2530058148505603  0.9821474956963239  1.0000
  H   H1        1.0  0.5130881985574687  0.24592517225619295  0.6396033342584244  1.0000
  H   H2        1.0  0.9869121797750963  0.7540800273680616  0.13960476385863524  1.0000
  H   H3        1.0  0.4869113105057534  0.7540770809707381  0.3603951355229852  1.0000
  H   H4        1.0  0.013091386450575665  0.24592725161365078  0.8603968488077381  1.0000
  H   H5        1.0  0.3783739463831779  0.15842751747077696  0.5785727035962861  1.0000
  H   H6        1.0  0.12162337837321488  0.841570737440918  0.07857367184106318  1.0000
  H   H7        1.0  0.6216257224006584  0.8415709581593944  0.4214252423709792  1.0000
  H   H8        1.0  0.8783753831439896  0.1584289995952943  0.9214268931974909  1.0000
  H   H9        1.0  0.77419503741946  0.6238423496695304  0.4837800831357624  1.0000
  H   H10       1.0  0.7258069002142664  0.37615630179347187  0.9837801775214596  1.0000
  H   H11       1.0  0.22580756721065137  0.376157377431042  0.5162194342739352  1.0000
  H   H12       1.0  0.274195330643465  0.6238421672121174  0.016219339888316094  1.0000
  H   H13       1.0  0.6035992260464765  0.556059894633421  0.5326860184526792  1.0000
  H   H14       1.0  0.8964008530843869  0.4439353105696924  0.03268800764443108  1.0000
  H   H15       1.0  0.3963984141558186  0.4439360681191644  0.46731087988634784  1.0000
  H   H16       1.0  0.10360025645558578  0.556059384150572  0.9673125573940591  1.0000
  H   H17       1.0  0.6056638389639486  0.4335743879429329  0.3696928372342183  1.0000
  H   H18       1.0  0.8943369551791419  0.5664243489560119  0.8696934125072953  1.0000
  H   H19       1.0  0.39433582981830273  0.5664240876862932  0.630307727804286  1.0000
  H   H20       1.0  0.1056643684132296  0.4335753814563787  0.13030662871677373  1.0000
  H   H21       1.0  0.6568075215025359  0.5817583687089893  0.25398697455788966  1.0000
  H   H22       1.0  0.843192718925792  0.41824674857792127  0.7539880922054889  1.0000
  H   H23       1.0  0.34319124001466855  0.4182413683272228  0.7460135904806646  1.0000
  H   H24       1.0  0.15680844494565344  0.5817567594310447  0.24601299664697499  1.0000
  H   H25       1.0  0.3158230416315533  0.1450632947470467  0.15408411826524565  1.0000
  H   H26       1.0  0.18417824924990353  0.8549399315644806  0.6540857625289928  1.0000
  H   H27       1.0  0.6841764674310368  0.8549389584795078  0.8459153991446651  1.0000
  H   H28       1.0  0.8158181642442129  0.14506484778749498  0.3459153263238759  1.0000
  H   H29       1.0  0.25949172252541775  0.9979144775953515  0.2704787665388223  1.0000
  H   H30       1.0  0.24050558491510543  0.0020886748673234  0.7704799287100809  1.0000
  H   H31       1.0  0.740502288615417  0.0020865307844389015  0.7295202270573851  1.0000
  H   H32       1.0  0.7594900810345776  0.9979135882948782  0.2295206363286794  1.0000
  C   C1        1.0  0.42923667393691284  0.20654963324147954  0.32658137637476853  1.0000
  C   C2        1.0  0.07076109935726992  0.7934509593345566  0.8265825216405883  1.0000
  C   C3        1.0  0.5707598992784568  0.7934513685141125  0.6734181410354478  1.0000
  C   C4        1.0  0.9292396907421078  0.2065512905796183  0.17341804339770303  1.0000
  C   C5        1.0  0.5400449820929153  0.37182845639141954  0.3225579437828045  1.0000
  C   C6        1.0  0.9599554951050847  0.6281690563419315  0.8225585030967648  1.0000
  C   C7        1.0  0.45995468668997574  0.6281700192381835  0.6774415736272058  1.0000
  C   C8        1.0  0.040044547449859545  0.3718306773824621  0.17744153812742514  1.0000
  C   C9        1.0  0.5691800467949194  0.4541662723424195  0.25830950178183787  1.0000
  C   C10       1.0  0.9308155977659779  0.545836335579615  0.7583090239137743  1.0000
  C   C11       1.0  0.43081561915445116  0.5458359908195973  0.7416915870711729  1.0000
  C   C12       1.0  0.06918519233403932  0.45416591433492914  0.24169049349601568  1.0000
  C   C13       1.0  0.4889608002860299  0.3723823607605681  0.19740929563482715  1.0000
  C   C14       1.0  0.011035473933112815  0.6276170700157521  0.6974088906911358  1.0000
  C   C15       1.0  0.5110379612305493  0.6276173762752675  0.8025923170322283  1.0000
  C   C16       1.0  0.9889623803193643  0.37238392842763784  0.3025911505332103  1.0000
  C   C17       1.0  0.37680661852299124  0.20775165655769706  0.20168992112841974  1.0000
  C   C18       1.0  0.12319205288922314  0.7922515421098524  0.7016905329202596  1.0000
  C   C19       1.0  0.6231916095015392  0.792250599980491  0.7983106439101062  1.0000
  C   C20       1.0  0.876806015415326  0.2077544920254724  0.2983095083039159  1.0000
  C   C21       1.0  0.3461692111701494  0.1258546190703456  0.26591793449961176  1.0000
  C   C22       1.0  0.15382900903381358  0.8741472752682141  0.7659195832219292  1.0000
  C   C23       1.0  0.65382570723542  0.874145127902267  0.7340815829107965  1.0000
  C   C24       1.0  0.8461708738002044  0.12585623605276197  0.2340815056306552  1.0000
  C   C25       1.0  0.40679635969325284  0.11087363852482207  0.39400779921434276  1.0000
  C   C26       1.0  0.09319983721975676  0.8891218731351315  0.8940094582752917  1.0000
  C   C27       1.0  0.5931966898513892  0.8891198179734514  0.6059901467536901  1.0000
  C   C28       1.0  0.9067994577898091  0.1108753443989201  0.10599163057754167  1.0000
  C   C29       1.0  0.5229554848129964  0.46063023890754806  0.12823018947103992  1.0000
  C   C30       1.0  0.9770504051549124  0.5393762137513319  0.6282291796020087  1.0000
  C   C31       1.0  0.47704861490566225  0.5393745205723802  0.8717708993811183  1.0000
  C   C32       1.0  0.02295700418460452  0.4606310552952947  0.3717698139927632  1.0000
  C   C33       1.0  0.0729850863023316  0.0599161846466032  0.5228944231148984  1.0000
  C   C34       1.0  0.42701972342096894  0.940068241490728  0.022897423897020992  1.0000
  C   C35       1.0  0.9270232813608743  0.9400684188194501  0.4771014275949808  1.0000
  C   C36       1.0  0.5729813317866074  0.05991763994028078  0.9771041887702405  1.0000
  O   O1        1.0  0.5122205217503647  0.1720709480474909  0.4446265775615358  1.0000
  O   O2        1.0  0.987786053744145  0.8279302378530173  0.9446281671165263  1.0000
  O   O3        1.0  0.48778795457386775  0.8279312819948287  0.5553734636617873  1.0000
  O   O4        1.0  0.012218953239567967  0.17207326021992483  0.05537292173558229  1.0000
  O   O5        1.0  0.2864654457448025  0.9718249319794907  0.39743143398131736  1.0000
  O   O6        1.0  0.21353848759687108  0.028179370632841493  0.8974331233773749  1.0000
  O   O7        1.0  0.7135344370895281  0.02817857934167019  0.6025691310570165  1.0000
  O   O8        1.0  0.7864699887264164  0.9718228594089097  0.10256848928869995  1.0000
  O   O9        1.0  0.6438243300448647  0.5999375741766925  0.12504852623875704  1.0000
  O   O10       1.0  0.8561740372546964  0.4000651230475539  0.6250475473316397  1.0000
  O   O11       1.0  0.3561735242066604  0.4000634242661363  0.8749530864283411  1.0000
  O   O12       1.0  0.14382728633862019  0.5999346073654052  0.3749509224496774  1.0000
  O   O13       1.0  0.4301295981875198  0.3931667458113991  0.07535115165936895  1.0000
  O   O14       1.0  0.06987472346401083  0.6068377886459118  0.5753528323219894  1.0000
  O   O15       1.0  0.5698724729495978  0.6068355007909574  0.9246488895645509  1.0000
  O   O16       1.0  0.9301277214445349  0.39316571605085926  0.42464878034460424  1.0000
  O   O17       1.0  0.054471355341959786  0.20465663365819606  0.5351113401477503  1.0000
  O   O18       1.0  0.4455238335081475  0.7953429172562566  0.03511591779160029  1.0000
  O   O19       1.0  0.9455252178762519  0.7953443680990943  0.46488346293422456  1.0000
  O   O20       1.0  0.5544710848955319  0.20465682971523338  0.9648867425043047  1.0000
  O   O21       1.0  0.2000935403348691  0.004771796080092399  0.543994698603768  1.0000
  O   O22       1.0  0.29989870195826995  0.9952264969690103  0.04399876723769579  1.0000
  O   O23       1.0  0.7998980684545813  0.9952254413286495  0.455999056850281  1.0000
  O   O24       1.0  0.7000912520156959  0.004769485653362399  0.9560044168730353  1.0000
  O   O25       1.0  0.4882792928570794  0.2505018072767412  0.5898509351852039  1.0000
  O   O26       1.0  0.011722235185928225  0.7494976876750526  0.08985297709410386  1.0000
  O   O27       1.0  0.5117227782809833  0.7495004393261764  0.4101475345959712  1.0000
  O   O28       1.0  0.9882790884051785  0.2505020427365849  0.9101491593869608  1.0000
  O   O29       1.0  0.6859668746932996  0.5210603459857593  0.5016950656179373  1.0000
  O   O30       1.0  0.8140345228392505  0.478934878214126  0.0016960203304562996  1.0000
  O   O31       1.0  0.3140355158847328  0.4789343454228785  0.498304451791931  1.0000
  O   O32       1.0  0.1859669604727827  0.5210610746009366  0.9983050685222136  1.0000
