data_image0
_chemical_formula_structural       Cu4H28C40I4N8
_chemical_formula_sum              "Cu4 H28 C40 I4 N8"
_cell_length_a       9.279275809060014
_cell_length_b       9.79974574295309
_cell_length_c       11.256394207098682
_cell_angle_alpha    70.43164994556466
_cell_angle_beta     82.78469552529269
_cell_angle_gamma    89.5270646338353

_space_group_name_H-M_alt    "P 1"
_space_group_IT_number       1

loop_
  _space_group_symop_operation_xyz
  'x, y, z'

loop_
  _atom_site_type_symbol
  _atom_site_label
  _atom_site_symmetry_multiplicity
  _atom_site_fract_x
  _atom_site_fract_y
  _atom_site_fract_z
  _atom_site_occupancy
  Cu  Cu1       1.0  0.23706386016264253  0.231774236710379  0.2564622503719036  1.0000
  Cu  Cu2       1.0  0.7629345639623253  0.7682330643294792  0.7435372206835497  1.0000
  Cu  Cu3       1.0  0.32738423012790463  0.4729335300219122  0.07297423126615844  1.0000
  Cu  Cu4       1.0  0.6726221554071685  0.5270574192827058  0.9270212223429437  1.0000
  H   H1        1.0  0.8758739527222446  0.2634205421109215  0.6342708547578725  1.0000
  H   H2        1.0  0.1241357525470619  0.7365954911488828  0.3657309399298398  1.0000
  H   H3        1.0  0.4381009587845739  0.738589961422875  0.5055875484640423  1.0000
  H   H4        1.0  0.5618888189378595  0.2614173760458698  0.4944155630012048  1.0000
  H   H5        1.0  0.5953655668745628  0.866582381171732  0.10637983242087039  1.0000
  H   H6        1.0  0.40463910315641993  0.1334141697093045  0.8936301356635141  1.0000
  H   H7        1.0  0.5823333517484174  0.6848715931681827  0.325240054620643  1.0000
  H   H8        1.0  0.41766166274847905  0.31512821554650833  0.674770040723871  1.0000
  H   H9        1.0  0.357066847005818  0.8256107945139564  0.64631860111664  1.0000
  H   H10       1.0  0.642931345903456  0.17439212143559502  0.35367776430985737  1.0000
  H   H11       1.0  0.12517673899437654  0.06661511475575571  0.8979291578080578  1.0000
  H   H12       1.0  0.8748243556769567  0.9333769927292154  0.1020727723784418  1.0000
  H   H13       1.0  0.26392529619645444  0.6760573348998022  0.8251054820641243  1.0000
  H   H14       1.0  0.736069221539843  0.32393579012339313  0.17489067442471645  1.0000
  H   H15       1.0  0.027960773219831505  0.11048789632594243  0.7213372542648174  1.0000
  H   H16       1.0  0.9720339672222167  0.8895074969967074  0.27866708390438777  1.0000
  H   H17       1.0  0.46442348320152166  0.10070639262853831  0.07747668249137968  1.0000
  H   H18       1.0  0.5355811895696262  0.8992943817336327  0.9225222496413891  1.0000
  H   H19       1.0  0.8085168157033351  0.592987540083847  0.2806174189074894  1.0000
  H   H20       1.0  0.19149145521713246  0.4070198045658131  0.719385358920526  1.0000
  H   H21       1.0  0.010436254417477602  0.4902017337908334  0.1731461268826777  1.0000
  H   H22       1.0  0.98956178155958  0.5097957942261289  0.8268545321088966  1.0000
  H   H23       1.0  0.742382108560797  0.47859125315012113  0.5201090623876539  1.0000
  H   H24       1.0  0.25762648199386023  0.5214247606744282  0.4798910882104152  1.0000
  H   H25       1.0  0.16263433582832224  0.9454359067798778  0.12189945428432479  1.0000
  H   H26       1.0  0.8373642240592363  0.05454750276027911  0.8781026988016265  1.0000
  H   H27       1.0  0.2611171583092969  0.6931208776562984  0.18686982729450105  1.0000
  H   H28       1.0  0.7388914109310324  0.3068711335622397  0.8131232829974308  1.0000
  C   C1        1.0  0.9048703956703296  0.31746168604079383  0.5324662116619052  1.0000
  C   C2        1.0  0.09512817976178672  0.6825478327956563  0.46753702182999024  1.0000
  C   C3        1.0  0.1888188226157581  0.9547310590100011  0.7030860542756656  1.0000
  C   C4        1.0  0.8111769839320075  0.045266430136457814  0.29691131653662234  1.0000
  C   C5        1.0  0.2793329151389585  0.9838841467359389  0.4847322611145443  1.0000
  C   C6        1.0  0.720662219076047  0.016124189745603704  0.5152628331170348  1.0000
  C   C7        1.0  0.372500374005547  0.9463820125299167  0.3847717076099214  1.0000
  C   C8        1.0  0.6274958235750036  0.053624196294300916  0.6152274552163561  1.0000
  C   C9        1.0  0.44558924160815394  0.816280763015236  0.409411775575755  1.0000
  C   C10       1.0  0.5544113947815105  0.18372762013969185  0.5905871198600964  1.0000
  C   C11       1.0  0.5329531691379971  0.887580375388929  0.18674168366298705  1.0000
  C   C12       1.0  0.4670461984896976  0.11242154705302454  0.8132628411984015  1.0000
  C   C13       1.0  0.5269661992504878  0.786709071495821  0.3090376600214809  1.0000
  C   C14       1.0  0.47303227348341187  0.21329615315547565  0.6909704224805252  1.0000
  C   C15       1.0  0.10443317921762231  0.14062165377458066  0.5248431231311912  1.0000
  C   C16       1.0  0.8955629670138238  0.8593824079570568  0.4751584642001346  1.0000
  C   C17       1.0  0.2809384833832382  0.9116694789172899  0.6143475599728062  1.0000
  C   C18       1.0  0.7190584235994494  0.08832801956384632  0.3856505710803475  1.0000
  C   C19       1.0  0.19358815961178522  0.8830803838741871  0.8401241240825214  1.0000
  C   C20       1.0  0.8064130491525958  0.11691708124164533  0.15987086099255515  1.0000
  C   C21       1.0  0.16033959476335014  0.9552261750850308  0.9280104410646145  1.0000
  C   C22       1.0  0.8396625717834638  0.044765921533475306  0.07199048166517491  1.0000
  C   C23       1.0  0.24099305720125136  0.7408943317364064  0.8867887699122292  1.0000
  C   C24       1.0  0.759004610532685  0.2590966034942285  0.11320590486273825  1.0000
  C   C25       1.0  0.0174042543502395  0.2666472221822005  0.4650085969178335  1.0000
  C   C26       1.0  0.9825994806879665  0.7333568240875934  0.534991241309207  1.0000
  C   C27       1.0  0.09996825015883103  0.07250901964824409  0.6558624569533578  1.0000
  C   C28       1.0  0.9000288623649979  0.9274917903769196  0.3441399919812724  1.0000
  C   C29       1.0  0.4600578200354235  0.016179646028753308  0.17047484630334253  1.0000
  C   C30       1.0  0.5399393324426853  0.983822247643268  0.8295272742275441  1.0000
  C   C31       1.0  0.8655489282201857  0.5008349176617416  0.3366970806110031  1.0000
  C   C32       1.0  0.13444928185369065  0.49916695504323644  0.6633031486143821  1.0000
  C   C33       1.0  0.9786596225278502  0.4440122905067982  0.27588131924605347  1.0000
  C   C34       1.0  0.021343764316718302  0.5559830663869648  0.7241193785133573  1.0000
  C   C35       1.0  0.8289283097749943  0.4368916868213689  0.4679979740237171  1.0000
  C   C36       1.0  0.1710742848740026  0.5631112664668905  0.5320014323662079  1.0000
  C   C37       1.0  0.18119261153559316  0.8871984793922042  0.0543756195071835  1.0000
  C   C38       1.0  0.8188093209106456  0.11279028548112538  0.9456192176435535  1.0000
  C   C39       1.0  0.23566650823521237  0.7489257466189516  0.09075648278211183  1.0000
  C   C40       1.0  0.7643420496102779  0.251065201153871  0.909238723611125  1.0000
  I   I1        1.0  0.1825948975267053  0.2899213774447206  0.01873416419472556  1.0000
  I   I2        1.0  0.8173955867129906  0.7100783030260872  0.9812649355473011  1.0000
  I   I3        1.0  0.45629962337286417  0.4267180852711975  0.2660648014681256  1.0000
  I   I4        1.0  0.5437017909326515  0.5732826913886554  0.7339345014884343  1.0000
  N   N1        1.0  0.3815775036771639  0.04597536294413371  0.2665103885738702  1.0000
  N   N2        1.0  0.6184186624590637  0.954031879024072  0.733484026604728  1.0000
  N   N3        1.0  0.19126396886799313  0.09487579275395323  0.44118020709721856  1.0000
  N   N4        1.0  0.8087332492389407  0.9051282581112192  0.55882037277739  1.0000
  N   N5        1.0  0.05439234449198691  0.3314128256017456  0.3380970801260048  1.0000
  N   N6        1.0  0.9456068461540073  0.6685858054973296  0.6619048945514692  1.0000
  N   N7        1.0  0.26397395210550917  0.6759110252377669  0.008164111625603635  1.0000
  N   N8        1.0  0.7360303124682446  0.32408207269121914  0.9918291646943018  1.0000
