data_image0
_chemical_formula_structural       Zn2H40C60N8Cl4O8
_chemical_formula_sum              "Zn2 H40 C60 N8 Cl4 O8"
_cell_length_a       8.504459876139823
_cell_length_b       9.332023754578824
_cell_length_c       18.30782935582751
_cell_angle_alpha    94.52721885883692
_cell_angle_beta     89.98605400270291
_cell_angle_gamma    117.11415286363659

_space_group_name_H-M_alt    "P 1"
_space_group_IT_number       1

loop_
  _space_group_symop_operation_xyz
  'x, y, z'

loop_
  _atom_site_type_symbol
  _atom_site_label
  _atom_site_symmetry_multiplicity
  _atom_site_fract_x
  _atom_site_fract_y
  _atom_site_fract_z
  _atom_site_occupancy
  Zn  Zn1       1.0  0.10375537386043034  0.9998398073535526  0.7500604936086646  1.0000
  Zn  Zn2       1.0  0.8962438872572989  0.00016118713650570005  0.24994000302011443  1.0000
  H   H1        1.0  0.7887061235031892  0.017907270583322102  0.9655440814442572  1.0000
  H   H2        1.0  0.7709279130340649  0.9825434468225895  0.5344965814071615  1.0000
  H   H3        1.0  0.21129431349571376  0.982093723961768  0.034456415120075704  1.0000
  H   H4        1.0  0.2290731286105938  0.017458757179170392  0.46550450959269085  1.0000
  H   H5        1.0  0.8546417793176458  0.7275318659978609  0.6247306591313802  1.0000
  H   H6        1.0  0.12709295807822232  0.2724905970260636  0.8753573489470697  1.0000
  H   H7        1.0  0.1453598335624307  0.27246912860226047  0.3752698373685064  1.0000
  H   H8        1.0  0.8729045230502877  0.7275091895983934  0.1246436458053424  1.0000
  H   H9        1.0  0.8930045937132575  0.8790001613697669  0.8949637619674959  1.0000
  H   H10       1.0  0.014648293035662636  0.12070342985205681  0.6051430328533272  1.0000
  H   H11       1.0  0.10698996361092841  0.12100083207712231  0.1050361886717184  1.0000
  H   H12       1.0  0.9853503311013864  0.8792939396152165  0.3948578653938739  1.0000
  H   H13       1.0  0.6776903039926836  0.688360061210382  0.9753818438843993  1.0000
  H   H14       1.0  0.9897443189438845  0.31113732404405425  0.524645807468815  1.0000
  H   H15       1.0  0.3223065714146642  0.311638512665212  0.0246163714430949  1.0000
  H   H16       1.0  0.010256689828146646  0.6888624627454972  0.4753551870902584  1.0000
  H   H17       1.0  0.3328089003024033  0.6587380767721385  0.496268700699666  1.0000
  H   H18       1.0  0.6739692809616997  0.3416556394285237  0.0037783507969351023  1.0000
  H   H19       1.0  0.6671897564384253  0.3412617090843  0.5037317477409501  1.0000
  H   H20       1.0  0.32603827653179723  0.6583501882250645  0.9962212457675648  1.0000
  H   H21       1.0  0.4568003076680612  0.32947815893519566  0.6640446735689167  1.0000
  H   H22       1.0  0.12724004385815146  0.6703853122534155  0.8359388162091719  1.0000
  H   H23       1.0  0.5432007337077424  0.6705240442435143  0.3359558711835788  1.0000
  H   H24       1.0  0.8727656999669405  0.32961688785321996  0.1640595432961334  1.0000
  H   H25       1.0  0.6609399583569128  0.3493748337012618  0.6316225663848555  1.0000
  H   H26       1.0  0.3115724638455078  0.6507038071180276  0.8683387529062259  1.0000
  H   H27       1.0  0.3390598739962414  0.6506249513871579  0.36837733574396475  1.0000
  H   H28       1.0  0.6884356309353733  0.3492983906295137  0.1316579677281311  1.0000
  H   H29       1.0  0.4369938096989614  0.32498488272721465  0.7922269363935754  1.0000
  H   H30       1.0  0.11160659103220644  0.6745264187198073  0.7077341328334725  1.0000
  H   H31       1.0  0.5630065612858389  0.6750112765704018  0.20777282104187117  1.0000
  H   H32       1.0  0.8883932415898029  0.32547336719166253  0.2922663155426974  1.0000
  H   H33       1.0  0.45156713370185736  0.41398226525258497  0.9248075734140571  1.0000
  H   H34       1.0  0.03731101103482364  0.5853208252547474  0.5751797074320493  1.0000
  H   H35       1.0  0.548433270155563  0.5860163112572465  0.0751922804621614  1.0000
  H   H36       1.0  0.9626882174791334  0.4146777528461528  0.4248212390033146  1.0000
  H   H37       1.0  0.40600877427668547  0.5907960539695838  0.6154240750493329  1.0000
  H   H38       1.0  0.8152225194001871  0.4095952804987776  0.8846093634509913  1.0000
  H   H39       1.0  0.5939916624533622  0.40920493975245614  0.3845758752676502  1.0000
  H   H40       1.0  0.18478503674904811  0.5904105430395675  0.1153875018767465  1.0000
  C   C1        1.0  0.6610707156295134  0.009332327553806898  0.9804769779105199  1.0000
  C   C2        1.0  0.6518748450498677  0.9910379068219085  0.5195427739879293  1.0000
  C   C3        1.0  0.3389297216382446  0.990668667814333  0.0195240649011694  1.0000
  C   C4        1.0  0.34812502098246506  0.008964297947869699  0.48045886332371873  1.0000
  C   C5        1.0  0.3865893166147386  0.012609853329642798  0.9464963637520399  1.0000
  C   C6        1.0  0.3738123026299576  0.9871071995476937  0.553490952951762  1.0000
  C   C7        1.0  0.6134111206530194  0.9873911420384901  0.0535046790596425  1.0000
  C   C8        1.0  0.6261851784985523  0.012892587076763098  0.44651004180065  1.0000
  C   C9        1.0  0.5510182641793476  0.0215587286688574  0.9275392297524689  1.0000
  C   C10       1.0  0.529457196132313  0.9785733904136862  0.5724721798575486  1.0000
  C   C11       1.0  0.44898277746531084  0.978443475332895  0.0724618612473833  1.0000
  C   C12       1.0  0.4705432742769203  0.021430022989712  0.4275295056422621  1.0000
  C   C13       1.0  0.7795216607128381  0.7125928701317787  0.7977007275568582  1.0000
  C   C14       1.0  0.06734508784354896  0.2872298442610274  0.7023470806325278  1.0000
  C   C15       1.0  0.22047756699456034  0.2874057054999709  0.2022985801364428  1.0000
  C   C16       1.0  0.9326559206596272  0.7127699417054671  0.297653367679203  1.0000
  C   C17       1.0  0.25873100186757364  0.031214479662175203  0.895444555356157  1.0000
  C   C18       1.0  0.22723446229467487  0.9683470773935385  0.6045275308512145  1.0000
  C   C19       1.0  0.7412694351313293  0.9687865148829149  0.10455594120818291  1.0000
  C   C20       1.0  0.7727582818988097  0.03165029015249131  0.3954722752235114  1.0000
  C   C21       1.0  0.806716169890045  0.6959262256594344  0.6790983056752609  1.0000
  C   C22       1.0  0.11086634144542272  0.3039880535146366  0.8209671731832912  1.0000
  C   C23       1.0  0.19328131043190672  0.30407355849587253  0.3209010503350953  1.0000
  C   C24       1.0  0.8891340958223283  0.6960129418534962  0.1790338696283982  1.0000
  C   C25       1.0  0.6501634457847913  0.5576773932775297  0.7690286196739038  1.0000
  C   C26       1.0  0.09257849088666607  0.44205940824016215  0.7309796033061032  1.0000
  C   C27       1.0  0.3498357821914624  0.4423211831772634  0.2309712342667609  1.0000
  C   C28       1.0  0.9074213417353362  0.557940377671308  0.2690208450700737  1.0000
  C   C29       1.0  0.7919196248996201  0.7607369498097755  0.8725552788020606  1.0000
  C   C30       1.0  0.031779237545542606  0.23899162514411637  0.627495002313701  1.0000
  C   C31       1.0  0.2080790313035052  0.23926283440056298  0.12744407714385633  1.0000
  C   C32       1.0  0.9682188150872405  0.7610069529017521  0.3725059441861092  1.0000
  C   C33       1.0  0.5408433745043338  0.4604917182233875  0.5676881577364412  1.0000
  C   C34       1.0  0.08039796807297266  0.5394762410280337  0.9323077707135566  1.0000
  C   C35       1.0  0.45915528196764654  0.5395080668100006  0.4323117444568254  1.0000
  C   C36       1.0  0.9196078088935948  0.46052837711386024  0.067691231479877  1.0000
  C   C37       1.0  0.67017970547262  0.6517969650048697  0.9169636672108012  1.0000
  C   C38       1.0  0.018731299406134494  0.34774397252029143  0.583061094268615  1.0000
  C   C39       1.0  0.3298206981159524  0.34820161068191163  0.0830356404180606  1.0000
  C   C40       1.0  0.9812691047201412  0.6522546048125832  0.4169393058549531  1.0000
  C   C41       1.0  0.4071240076663117  0.5896775402694132  0.49787061475081634  1.0000
  C   C42       1.0  0.8173595473302414  0.4105813382831229  0.002163088610601004  1.0000
  C   C43       1.0  0.5928758575594698  0.410324662031215  0.5021293838187688  1.0000
  C   C44       1.0  0.18264908742654745  0.5894172377888722  0.9978362185671443  1.0000
  C   C45       1.0  0.5796908515965455  0.41291230889670777  0.6398171666422882  1.0000
  C   C46       1.0  0.16676779812627282  0.5870240263583925  0.8601589330939134  1.0000
  C   C47       1.0  0.42030898075660156  0.5870874761917121  0.3601827354865321  1.0000
  C   C48       1.0  0.8332391549903234  0.4129805926615759  0.1398406152824236  1.0000
  C   C49       1.0  0.5319540621815905  0.4461217414922133  0.8138622754503686  1.0000
  C   C50       1.0  0.08557549350551605  0.5534049088647989  0.6861200793900649  1.0000
  C   C51       1.0  0.46804456114890775  0.5538756255059171  0.1861369840547766  1.0000
  C   C52       1.0  0.914420778869193  0.44659246049241835  0.3138808189860285  1.0000
  C   C53       1.0  0.542730495712881  0.49731528573772726  0.8881885917237752  1.0000
  C   C54       1.0  0.04528919078051533  0.5020831006006786  0.6118039733835943  1.0000
  C   C55       1.0  0.45727047937996446  0.502682081370466  0.11181066765247749  1.0000
  C   C56       1.0  0.9547123892269338  0.49791547678723447  0.3881964266755277  1.0000
  C   C57       1.0  0.44815755718653355  0.5512005209312248  0.5649343895661261  1.0000
  C   C58       1.0  0.896952707902031  0.4490153308562627  0.9350921276467048  1.0000
  C   C59       1.0  0.5518399234042732  0.4487992640471319  0.4350655126915868  1.0000
  C   C60       1.0  0.1030501452602197  0.5509904941080637  0.06490583043351711  1.0000
  N   N1        1.0  0.8759289149272148  0.7951120814686234  0.7397542594497963  1.0000
  N   N2        1.0  0.08111947714041182  0.20478715794155988  0.7603307774859047  1.0000
  N   N3        1.0  0.12406856539473668  0.2048877026866904  0.2602450965605669  1.0000
  N   N4        1.0  0.9188791798692647  0.7952126287379288  0.2396702172020682  1.0000
  N   N5        1.0  0.6719273001375969  0.5524201776129304  0.6936907397721157  1.0000
  N   N6        1.0  0.11951876707495056  0.44742769250738956  0.806328986297828  1.0000
  N   N7        1.0  0.328071927569809  0.4475783980188197  0.3063085679211923  1.0000
  N   N8        1.0  0.8804828460739743  0.5525733029157749  0.1936720564494152  1.0000
  Cl  Cl1       1.0  0.6276873771298951  0.054430340685371406  0.839814529935488  1.0000
  Cl  Cl2       1.0  0.5732428934339354  0.9457424832311718  0.6602036938880573  1.0000
  Cl  Cl3       1.0  0.37231423628788474  0.9455706555608501  0.1601870590591119  1.0000
  Cl  Cl4       1.0  0.42675811506924066  0.0542573027353299  0.3397967544236735  1.0000
  O   O1        1.0  0.2412264732751694  0.9663209579642638  0.8290717083833599  1.0000
  O   O2        1.0  0.27445562978893173  0.03322506932764921  0.6708980740760211  1.0000
  O   O3        1.0  0.7587733593468399  0.03367882794720601  0.1709287399928172  1.0000
  O   O4        1.0  0.7255370812630701  0.966769880183115  0.3291010893105835  1.0000
  O   O5        1.0  0.1773403616422016  0.1055345733076294  0.9213494145148645  1.0000
  O   O6        1.0  0.0715535250292946  0.8940303322023553  0.5785963672340557  1.0000
  O   O7        1.0  0.8226565153782629  0.8944640055062577  0.0786520782967415  1.0000
  O   O8        1.0  0.9284391860227073  0.10596461730841611  0.4214027961525417  1.0000
