data_image0
_chemical_formula_structural       Zn4H48C50N8Cl8O8
_chemical_formula_sum              "Zn4 H48 C50 N8 Cl8 O8"
_cell_length_a       12.146433198000212
_cell_length_b       12.146412002024704
_cell_length_c       16.209946828031896
_cell_angle_alpha    89.99977110817372
_cell_angle_beta     90.00001930159729
_cell_angle_gamma    89.99999999058741

_space_group_name_H-M_alt    "P 1"
_space_group_IT_number       1

loop_
  _space_group_symop_operation_xyz
  'x, y, z'

loop_
  _atom_site_type_symbol
  _atom_site_label
  _atom_site_symmetry_multiplicity
  _atom_site_fract_x
  _atom_site_fract_y
  _atom_site_fract_z
  _atom_site_occupancy
  Zn  Zn1       1.0  0.4999996296289311  1.8815281069999902e-07  0.8643261624580635  1.0000
  Zn  Zn2       1.0  0.999999763773289  0.4999999710704587  0.13567410466154683  1.0000
  Zn  Zn3       1.0  0.9999990405154122  0.5000002977139388  0.6356726602391873  1.0000
  Zn  Zn4       1.0  0.4999987061475721  0.9999996966958733  0.3643242449323409  1.0000
  H   H1        1.0  0.669795145886745  0.8283642642939669  0.8220225130935506  1.0000
  H   H2        1.0  0.3302049195675494  0.17163864039974902  0.8220253086979243  1.0000
  H   H3        1.0  0.8283633777762702  0.33020403823250183  0.17797922613919334  1.0000
  H   H4        1.0  0.1716364299842539  0.6697973271280234  0.17797800402267686  1.0000
  H   H5        1.0  0.8302027008625641  0.3283651386125542  0.6779765509437823  1.0000
  H   H6        1.0  0.1697964836690389  0.6716368800365587  0.6779771734683209  1.0000
  H   H7        1.0  0.6716359154880607  0.8302048104988415  0.32202210427620065  1.0000
  H   H8        1.0  0.3283614800461052  0.1697966176341765  0.32202305421412813  1.0000
  H   H9        1.0  0.6932456305589766  0.6753621565249758  0.7171772463764727  1.0000
  H   H10       1.0  0.30675686280542175  0.3246429483066464  0.7171783391531863  1.0000
  H   H11       1.0  0.6753629277770088  0.3067540381991734  0.2828241244614348  1.0000
  H   H12       1.0  0.3246393917950243  0.6932451270250582  0.2828247250577719  1.0000
  H   H13       1.0  0.8067513929539771  0.17536165399568662  0.7828228970115421  1.0000
  H   H14       1.0  0.19324701024142854  0.8246373412271171  0.7828230636638482  1.0000
  H   H15       1.0  0.8246413052170353  0.8067512475748019  0.21717851064718735  1.0000
  H   H16       1.0  0.1753560483672274  0.19324414780081162  0.21717872992962134  1.0000
  H   H17       1.0  0.37344308665537085  0.7653651230449726  0.6201008680409147  1.0000
  H   H18       1.0  0.6265544281450417  0.23463308473392172  0.6201004717508171  1.0000
  H   H19       1.0  0.7653671469113091  0.6265560411813738  0.3798992343866488  1.0000
  H   H20       1.0  0.2346335649283233  0.37344178822144874  0.37990015945099753  1.0000
  H   H21       1.0  0.1265574932623537  0.26536493127282057  0.879896395596454  1.0000
  H   H22       1.0  0.8734442419223853  0.7346335514169696  0.8799001093968146  1.0000
  H   H23       1.0  0.7346403792902549  0.12655886763715074  0.12010517916645821  1.0000
  H   H24       1.0  0.2653635217478936  0.8734460964470402  0.12010028326982082  1.0000
  H   H25       1.0  0.3647994184241128  0.9111403979682963  0.7277283900695297  1.0000
  H   H26       1.0  0.6351981394400426  0.088858888139967  0.7277284368004475  1.0000
  H   H27       1.0  0.9111391368928495  0.6351967369709258  0.2722727320214844  1.0000
  H   H28       1.0  0.088858238735348  0.36480166067768494  0.2722717916401295  1.0000
  H   H29       1.0  0.135196221724037  0.4111399511519025  0.7722696667771702  1.0000
  H   H30       1.0  0.8648030005362202  0.5888599230720644  0.7722719680389363  1.0000
  H   H31       1.0  0.5888626262960698  0.1351981719121724  0.22772610327018586  1.0000
  H   H32       1.0  0.41114131780384616  0.8648029307970975  0.22772497576909256  1.0000
  H   H33       1.0  0.4405928194550981  0.6675752065307281  0.5145534859243952  1.0000
  H   H34       1.0  0.5594079462619703  0.332425205086146  0.5145540090598999  1.0000
  H   H35       1.0  0.6675730271045881  0.559409184628919  0.4854450107522298  1.0000
  H   H36       1.0  0.33242772696596024  0.4405922039579196  0.4854469940742591  1.0000
  H   H37       1.0  0.05940611392147589  0.16757363419926458  0.9854465409021247  1.0000
  H   H38       1.0  0.9405923703471046  0.8324242912228144  0.9854462765167684  1.0000
  H   H39       1.0  0.8324237963877223  0.0594068053335945  0.014554670514918704  1.0000
  H   H40       1.0  0.16757429940983568  0.9405929530028276  0.014553245692830804  1.0000
  H   H41       1.0  0.3874537778938603  0.5712593239592535  0.5891534985957849  1.0000
  H   H42       1.0  0.612547840959003  0.4287406937874252  0.5891543624152433  1.0000
  H   H43       1.0  0.5712574946090214  0.6125477075096911  0.4108438085830671  1.0000
  H   H44       1.0  0.4287399364645025  0.38745160508706533  0.41084597950455765  1.0000
  H   H45       1.0  0.11254680208827493  0.07125979207472712  0.9108462024341082  1.0000
  H   H46       1.0  0.8874532989050081  0.9287401737992198  0.9108443982403929  1.0000
  H   H47       1.0  0.9287426220130826  0.1125474042109005  0.08915324445138854  1.0000
  H   H48       1.0  0.0712604433547952  0.8874511369701923  0.08915380397458253  1.0000
  C   C1        1.0  0.6065732849125708  0.8092303393887619  0.7763376208042133  1.0000
  C   C2        1.0  0.39342593897568184  0.19076951335297573  0.7763416101064565  1.0000
  C   C3        1.0  0.8092326679349141  0.3934258797993024  0.22366157264323056  1.0000
  C   C4        1.0  0.19076715810395226  0.6065744210810067  0.22366054697453566  1.0000
  C   C5        1.0  0.8934237385557184  0.3092342656609048  0.7236596503445087  1.0000
  C   C6        1.0  0.10657546425446901  0.6907666885047377  0.7236601973338284  1.0000
  C   C7        1.0  0.6907699184561339  0.89342442339553  0.2763383328798383  1.0000
  C   C8        1.0  0.30923075194714034  0.10657559935740582  0.2763400854432803  1.0000
  C   C9        1.0  0.619119343409693  0.7257325814353238  0.7192456429042764  1.0000
  C   C10       1.0  0.38087985763464616  0.27426921932003984  0.7192475256036134  1.0000
  C   C11       1.0  0.7257316232490895  0.38088046057152525  0.2807543026511823  1.0000
  C   C12       1.0  0.2742682256335698  0.6191195388735693  0.28075326246170823  1.0000
  C   C13       1.0  0.8808776800863924  0.2257312665419136  0.7807531144317681  1.0000
  C   C14       1.0  0.11912319214199128  0.7742660930284373  0.7807546463675692  1.0000
  C   C15       1.0  0.7742709631465845  0.8808809521731719  0.21924810840771874  1.0000
  C   C16       1.0  0.22573050769996428  0.119121841878524  0.21924548132183475  1.0000
  C   C17       1.0  0.5340186293340564  0.7064661371328498  0.6621837826089703  1.0000
  C   C18       1.0  0.46598137216552976  0.2935334950329533  0.6621843971142739  1.0000
  C   C19       1.0  0.7064658966198393  0.4659803378179462  0.3378148150248635  1.0000
  C   C20       1.0  0.2935323285201221  0.534018537069656  0.3378152712568437  1.0000
  C   C21       1.0  0.9659792174550931  0.20646863741223603  0.8378137991432413  1.0000
  C   C22       1.0  0.0340192077432704  0.793531714047468  0.8378146321030757  1.0000
  C   C23       1.0  0.7935375130343515  0.9659786608251366  0.16218548811050235  1.0000
  C   C24       1.0  0.2064664048416134  0.0340194947685717  0.16218434664871492  1.0000
  C   C25       1.0  0.44012851556810517  0.7740836302333705  0.6643749144323368  1.0000
  C   C26       1.0  0.5598698402342066  0.2259159903648253  0.6643751427116273  1.0000
  C   C27       1.0  0.7740832770560074  0.5598697983450123  0.33562528616165116  1.0000
  C   C28       1.0  0.22591577049489328  0.44012991139044294  0.33562600722383007  1.0000
  C   C29       1.0  0.059870417772835104  0.2740828489287282  0.8356223228543059  1.0000
  C   C30       1.0  0.9401304764097561  0.7259158675217989  0.835624230973899  1.0000
  C   C31       1.0  0.7259184861582569  0.0598707444763065  0.16437624442448856  1.0000
  C   C32       1.0  0.2740846093071383  0.9401331625717902  0.16437423393651335  1.0000
  C   C33       1.0  0.43552799995246255  0.8559389215138893  0.7238654232276718  1.0000
  C   C34       1.0  0.5644695563661414  0.14406120827712954  0.7238659001999113  1.0000
  C   C35       1.0  0.8559385706410226  0.5644696676313928  0.2761365082512911  1.0000
  C   C36       1.0  0.144059629820056  0.43552953290637225  0.27613536956584284  1.0000
  C   C37       1.0  0.0644701100747653  0.3559384543015583  0.7761328004639483  1.0000
  C   C38       1.0  0.9355299370181245  0.6440605762380329  0.7761349546998348  1.0000
  C   C39       1.0  0.6440631925718421  0.0644702996753068  0.2238656253375454  1.0000
  C   C40       1.0  0.35593910340934076  0.9355316467069414  0.22386365169013095  1.0000
  C   C41       1.0  0.46033030868814256  0.596030519549501  0.5533692700926168  1.0000
  C   C42       1.0  0.5396712958465812  0.4039705104204075  0.5533689545504004  1.0000
  C   C43       1.0  0.5960293829650355  0.5396709479104019  0.4466293572757395  1.0000
  C   C44       1.0  0.40397053228760893  0.4603289990382748  0.44663068408293344  1.0000
  C   C45       1.0  0.0396702712858144  0.09602997544505601  0.946630356068731  1.0000
  C   C46       1.0  0.9603298440255942  0.9039698014940498  0.9466298809725375  1.0000
  C   C47       1.0  0.9039715569684362  0.039669186968062306  0.053369766744019415  1.0000
  C   C48       1.0  0.0960290242208117  0.9603287198545942  0.053369496031592724  1.0000
  C   C49       1.0  0.4999995566599153  0.5000006558734357  0.49999972072597404  1.0000
  C   C50       1.0  0.9999999366067912  0.9999988418816912  0.9999994414557989  1.0000
  N   N1        1.0  0.5158882274448544  0.8734871668680384  0.7794405439962733  1.0000
  N   N2        1.0  0.4841101743975287  0.1265143160737594  0.7794422852990837  1.0000
  N   N3        1.0  0.8734869209788415  0.4841111043102586  0.22056149612060247  1.0000
  N   N4        1.0  0.12651208053260626  0.5158900362270202  0.22056010963435577  1.0000
  N   N5        1.0  0.9841096192895619  0.3734861697881229  0.7205583836614837  1.0000
  N   N6        1.0  0.0158904055667435  0.6265139774626007  0.7205590994412463  1.0000
  N   N7        1.0  0.6265131955222855  0.9841121013933575  0.2794424536416714  1.0000
  N   N8        1.0  0.3734866528351191  0.0158911981364227  0.27943956306366163  1.0000
  Cl  Cl1       1.0  0.33512078618019814  0.9876266653728224  0.9236931327439921  1.0000
  Cl  Cl2       1.0  0.6648752035197488  0.012368292926922198  0.9236971204052298  1.0000
  Cl  Cl3       1.0  0.9876265722240589  0.6648759775296753  0.07630413403310142  1.0000
  Cl  Cl4       1.0  0.012370724994553899  0.3351218081954742  0.07630758026166973  1.0000
  Cl  Cl5       1.0  0.1648765005167476  0.48762725319995337  0.576305309829465  1.0000
  Cl  Cl6       1.0  0.8351226433339319  0.5123753022541139  0.576303515614825  1.0000
  Cl  Cl7       1.0  0.5123710745205372  0.16487555451461597  0.42369584536667315  1.0000
  Cl  Cl8       1.0  0.4876313014161582  0.8351228669498953  0.42369359519072713  1.0000
  O   O1        1.0  0.5492617766523935  0.6234236476687585  0.6088765176154567  1.0000
  O   O2        1.0  0.4507390268049321  0.3765762659466674  0.6088768768563143  1.0000
  O   O3        1.0  0.6234242452981036  0.45073701252228204  0.3911228359577593  1.0000
  O   O4        1.0  0.37657482445840174  0.5492624041992045  0.3911238862899182  1.0000
  O   O5        1.0  0.9507377167383096  0.12342504320688621  0.8911225489420291  1.0000
  O   O6        1.0  0.049262376363422795  0.8765742035115452  0.8911219013676973  1.0000
  O   O7        1.0  0.8765808109355147  0.9507364402641658  0.10887998086926842  1.0000
  O   O8        1.0  0.1234222623247732  0.0492603501958655  0.10887753626141723  1.0000
