data_image0
_chemical_formula_structural       Ag4H32C40S4O14
_chemical_formula_sum              "Ag4 H32 C40 S4 O14"
_cell_length_a       5.184075392011152
_cell_length_b       11.490454417240814
_cell_length_c       16.04380000864474
_cell_angle_alpha    97.46125310952495
_cell_angle_beta     90.00006260622601
_cell_angle_gamma    90.0002479685032

_space_group_name_H-M_alt    "P 1"
_space_group_IT_number       1

loop_
  _space_group_symop_operation_xyz
  'x, y, z'

loop_
  _atom_site_type_symbol
  _atom_site_label
  _atom_site_symmetry_multiplicity
  _atom_site_fract_x
  _atom_site_fract_y
  _atom_site_fract_z
  _atom_site_occupancy
  Ag  Ag1       1.0  0.1251701957551461  0.3741761381146844  0.14478714443730212  1.0000
  Ag  Ag2       1.0  0.8748243468180804  0.8741760356237546  0.144790827118598  1.0000
  Ag  Ag3       1.0  0.5667020733195045  0.5378429848506556  0.1521306651444547  1.0000
  Ag  Ag4       1.0  0.4332928180749179  0.0378433602501076  0.152112760365533  1.0000
  H   H1        1.0  0.6150238107135878  0.2837824022782057  0.19566810379419053  1.0000
  H   H2        1.0  0.38497191666927216  0.7837859124575955  0.19567817117582825  1.0000
  H   H3        1.0  0.6130135170553784  0.2661060984760866  0.09779476770327732  1.0000
  H   H4        1.0  0.38699512911545514  0.7661008104094404  0.09780286225740299  1.0000
  H   H5        1.0  0.7497645391349151  0.797736311319099  0.39268292215311373  1.0000
  H   H6        1.0  0.2502224913762987  0.2977341017372481  0.3926834496303826  1.0000
  H   H7        1.0  0.7458646799639297  0.8416138154277062  0.5481870383693774  1.0000
  H   H8        1.0  0.25412537367491694  0.3416133554379428  0.5481870881710551  1.0000
  H   H9        1.0  0.060488501268494595  0.7431398151991288  0.6338958125956182  1.0000
  H   H10       1.0  0.9394873618544538  0.24313513573658693  0.6338851228456904  1.0000
  H   H11       1.0  0.4186056698344913  0.6079740634594301  0.6421984486279656  1.0000
  H   H12       1.0  0.5813668758214233  0.10796787116941431  0.6421887729539864  1.0000
  H   H13       1.0  0.7361869605653553  0.46439377313725316  0.5729749917353858  1.0000
  H   H14       1.0  0.2637639771108908  0.964395603417117  0.57295683269178  1.0000
  H   H15       1.0  0.7402719864269046  0.4177017063583292  0.41698219862112046  1.0000
  H   H16       1.0  0.2596990443460712  0.9177060977017035  0.4169611330863178  1.0000
  H   H17       1.0  0.4326861112127745  0.5109594404266673  0.3306479362834338  1.0000
  H   H18       1.0  0.5672937914954588  0.010963573643294902  0.3306303821882112  1.0000
  H   H19       1.0  0.7609279059191891  0.6716514639383747  0.8834699049509425  1.0000
  H   H20       1.0  0.23911187650632124  0.1716455818611493  0.8834632687735537  1.0000
  H   H21       1.0  0.7578794765206354  0.61087869605182  0.728820613796799  1.0000
  H   H22       1.0  0.2421455345928578  0.11087460055379947  0.7288153728220266  1.0000
  H   H23       1.0  0.07064511289976141  0.4615471378158134  0.6643058327190803  1.0000
  H   H24       1.0  0.9293601778971947  0.961556571248181  0.6642997223105028  1.0000
  H   H25       1.0  0.4288568199374795  0.3279675228051389  0.6774751503039269  1.0000
  H   H26       1.0  0.5711297580241705  0.8279806575390722  0.6774679911718168  1.0000
  H   H27       1.0  0.7490023371359057  0.2386342613487144  0.766077204407779  1.0000
  H   H28       1.0  0.2510068089682491  0.7386423399900081  0.7660657912242286  1.0000
  H   H29       1.0  0.7530075295019786  0.2968657938796824  0.9207896280924218  1.0000
  H   H30       1.0  0.24702600627539792  0.7968580293243264  0.9207750350185722  1.0000
  H   H31       1.0  0.4414137926594037  0.43868234814385687  0.9880091677495244  1.0000
  H   H32       1.0  0.5586253666998644  0.9386743067405942  0.9879958922299394  1.0000
  C   C1        1.0  0.060993042456821904  0.6753089337134455  0.39006903400002113  1.0000
  C   C2        1.0  0.9389907602114108  0.17530607286880695  0.390061611115904  1.0000
  C   C3        1.0  0.8867608523694628  0.754597233271376  0.42994427560716997  1.0000
  C   C4        1.0  0.11320465692941177  0.25459634607319254  0.4299361440618982  1.0000
  C   C5        1.0  0.886496890687063  0.7791710431502851  0.5184010905441739  1.0000
  C   C6        1.0  0.11348659781980792  0.2791711626638431  0.5183992758390801  1.0000
  C   C7        1.0  0.06050948410252491  0.7247611490905185  0.5653939420394496  1.0000
  C   C8        1.0  0.9394697649803162  0.22475375956722835  0.5653792882758424  1.0000
  C   C9        1.0  0.24213056021793022  0.6428429988302894  0.5260839505148952  1.0000
  C   C10       1.0  0.7578399511474887  0.14284665752216338  0.5260689079680319  1.0000
  C   C11       1.0  0.4225559790239259  0.5866896188726827  0.5740113597192363  1.0000
  C   C12       1.0  0.577406420459198  0.0866903631343305  0.5739985156335694  1.0000
  C   C13       1.0  0.5980525435341163  0.5069751852780938  0.5356494988684447  1.0000
  C   C14       1.0  0.40191464806650157  0.006969397992620002  0.5356329457177795  1.0000
  C   C15       1.0  0.5997670885272656  0.4799368443222248  0.4472365943285297  1.0000
  C   C16       1.0  0.40019314626164265  0.9799417006941623  0.44722558322342115  1.0000
  C   C17       1.0  0.4266640742916437  0.5325933774952105  0.3986182879824512  1.0000
  C   C18       1.0  0.5732989716332709  0.0325966699015581  0.39860191296804  1.0000
  C   C19       1.0  0.24418653102784302  0.6156350598311845  0.4359446660171997  1.0000
  C   C20       1.0  0.7557852564016656  0.11563260992873128  0.43593098837982325  1.0000
  C   C21       1.0  0.06896209731684878  0.5559432669893168  0.9057943778169959  1.0000
  C   C22       1.0  0.9310669134721364  0.05593773288725859  0.905785485017802  1.0000
  C   C23       1.0  0.8959409685715726  0.6054268337607381  0.8551930442028707  1.0000
  C   C24       1.0  0.10407678323859672  0.10542947874402128  0.8551870717359905  1.0000
  C   C25       1.0  0.8955548106723371  0.5706602958333419  0.7675967336641067  1.0000
  C   C26       1.0  0.10446607701791072  0.07066121199846978  0.7675918652390907  1.0000
  C   C27       1.0  0.06852543507989138  0.48779016383593177  0.7320939893669378  1.0000
  C   C28       1.0  0.9315035553103783  0.9877899473255166  0.7320870825386266  1.0000
  C   C29       1.0  0.2494176936134735  0.4356112571063519  0.7822926950821484  1.0000
  C   C30       1.0  0.7505878041211956  0.9356193544008132  0.7822801869471904  1.0000
  C   C31       1.0  0.4305545885520132  0.35151896221214673  0.7455982737274243  1.0000
  C   C32       1.0  0.5694614489836808  0.8515198199462547  0.7455907234009235  1.0000
  C   C33       1.0  0.6079881903642601  0.30214744824040457  0.7944910317470857  1.0000
  C   C34       1.0  0.3920313844712667  0.802144468018234  0.7944831110597905  1.0000
  C   C35       1.0  0.6098384350961369  0.33445469802222755  0.8824284053962614  1.0000
  C   C36       1.0  0.39017990836723737  0.8344569029853872  0.8824171722717298  1.0000
  C   C37       1.0  0.43460614380137486  0.4148249049482047  0.9202578491436315  1.0000
  C   C38       1.0  0.5654247730857093  0.9148256523524907  0.9202453016030462  1.0000
  C   C39       1.0  0.2512428702020983  0.4688659511248402  0.8720337874243071  1.0000
  C   C40       1.0  0.7487710583419869  0.9688704831249451  0.872018490815023  1.0000
  S   S1        1.0  0.04677026926528781  0.647706207051307  0.27854641375976297  1.0000
  S   S2        1.0  0.9532301502874251  0.14771039347169787  0.27853957724121164  1.0000
  S   S3        1.0  0.0527300741790526  0.6055229619827429  0.01564567418960651  1.0000
  S   S4        1.0  0.9473054829144945  0.10551571545140347  0.0156372681908437  1.0000
  O   O1        1.0  0.9631007734364373  0.5241531056144949  0.258379453854154  1.0000
  O   O2        1.0  0.0368866901426159  0.024158246641562197  0.25837304399338024  1.0000
  O   O3        1.0  0.8638787538621387  0.7315086089170536  0.25027533064604063  1.0000
  O   O4        1.0  0.13610700066156062  0.23151922452715468  0.25027064952984557  1.0000
  O   O5        1.0  0.31489333753032156  0.6662762455687242  0.24949510278866435  1.0000
  O   O6        1.0  0.6851071592375746  0.16627718856012305  0.24948230749843966  1.0000
  O   O7        1.0  0.322757199688219  0.6305784996575808  0.043454422041193715  1.0000
  O   O8        1.0  0.6772729472237913  0.130577737204483  0.04344460032845631  1.0000
  O   O9        1.0  0.9406468906820892  0.5066910340398464  0.05492838957349731  1.0000
  O   O10       1.0  0.0593723543520852  0.006680393566384198  0.054919436236581014  1.0000
  O   O11       1.0  0.8903342058925573  0.7104731732437128  0.025609763660128185  1.0000
  O   O12       1.0  0.10972564381935261  0.21046004421898354  0.025603113353319912  1.0000
  O   O13       1.0  0.5927711822924451  0.32818648197442707  0.1468650069101756  1.0000
  O   O14       1.0  0.4072267427863636  0.8281847288980088  0.14687277617031214  1.0000
