data_image0
_chemical_formula_structural       Mn3H16C8N6O16
_chemical_formula_sum              "Mn3 H16 C8 N6 O16"
_cell_length_a       7.124637327729552
_cell_length_b       7.491139886438459
_cell_length_c       9.627272958768257
_cell_angle_alpha    80.02930270493788
_cell_angle_beta     87.87712218342891
_cell_angle_gamma    75.8070833403672

_space_group_name_H-M_alt    "P 1"
_space_group_IT_number       1

loop_
  _space_group_symop_operation_xyz
  'x, y, z'

loop_
  _atom_site_type_symbol
  _atom_site_label
  _atom_site_symmetry_multiplicity
  _atom_site_fract_x
  _atom_site_fract_y
  _atom_site_fract_z
  _atom_site_occupancy
  Mn  Mn1       1.0  0.9998115821494762  0.00018402923221570166  0.4997675999359074  1.0000
  Mn  Mn2       1.0  0.27633590206900743  0.6424319946542099  0.9057288752519738  1.0000
  Mn  Mn3       1.0  0.7231079131266468  0.3580752797032432  0.09431720929216428  1.0000
  H   H1        1.0  0.02593959526544155  0.6684152403043341  0.3963880618741554  1.0000
  H   H2        1.0  0.9729869403275018  0.33114229940708373  0.6039994228011449  1.0000
  H   H3        1.0  0.8143373515930816  0.7159309712400345  0.46906980603066006  1.0000
  H   H4        1.0  0.18475686397803054  0.2848650092185707  0.531136640510361  1.0000
  H   H5        1.0  0.30687691927854394  0.2972740728960019  0.8076321423794538  1.0000
  H   H6        1.0  0.6933751417280047  0.7021021449838757  0.19196622605557676  1.0000
  H   H7        1.0  0.08064598036484232  0.4093585167006211  0.8059779118133502  1.0000
  H   H8        1.0  0.9195901659969934  0.58985935081283  0.1930427188500019  1.0000
  H   H9        1.0  0.38337691223914316  0.8891344061838494  0.055222880246915865  1.0000
  H   H10       1.0  0.6195439718794588  0.11049510769968411  0.9457007392986153  1.0000
  H   H11       1.0  0.4047716467147992  0.9654263415772989  0.8910164065813997  1.0000
  H   H12       1.0  0.5982865590427338  0.0335677040099114  0.10965684656193986  1.0000
  H   H13       1.0  0.8979510617521174  0.8451479239506695  0.8353980633074795  1.0000
  H   H14       1.0  0.10182756387593626  0.1551660817449658  0.16357844616683073  1.0000
  H   H15       1.0  0.8898790397936976  0.7184701509094396  0.9893334895620068  1.0000
  H   H16       1.0  0.10979219678527845  0.28285233951240935  0.010049722956097214  1.0000
  C   C1        1.0  0.3692914300775244  0.9000493734729461  0.32169445320879203  1.0000
  C   C2        1.0  0.630886021050003  0.10031266609724548  0.6783572210055622  1.0000
  C   C3        1.0  0.42184742192956287  0.8014318839048543  0.4677402238678992  1.0000
  C   C4        1.0  0.5781831959633835  0.19959579088897075  0.532499044774603  1.0000
  C   C5        1.0  0.5553027256964498  0.6378627841764698  0.654622685224403  1.0000
  C   C6        1.0  0.44405182613456157  0.3626975269669828  0.3456498412007746  1.0000
  C   C7        1.0  0.6917625664671974  0.51775126214568  0.7652850143898814  1.0000
  C   C8        1.0  0.30671055057538155  0.4814681574876758  0.2349902850348683  1.0000
  N   N1        1.0  0.28690580016281336  0.8223230204872821  0.5700405955005433  1.0000
  N   N2        1.0  0.7129647381428939  0.1789743234564156  0.42999137133215715  1.0000
  N   N3        1.0  0.3715488766082655  0.7175532727733728  0.6891165858817272  1.0000
  N   N4        1.0  0.6278709575901898  0.2834931644675649  0.31096654056486966  1.0000
  N   N5        1.0  0.5921676196217402  0.6866755519162738  0.5167198436241518  1.0000
  N   N6        1.0  0.40756388875594496  0.3138250841785536  0.4836366410093687  1.0000
  O   O1        1.0  0.20028240991602078  0.008397487500346301  0.30666753609146  1.0000
  O   O2        1.0  0.7997189607428865  0.9915870628291968  0.6927370951601542  1.0000
  O   O3        1.0  0.48967792754368833  0.8714843264978998  0.22171492543593266  1.0000
  O   O4        1.0  0.5110305962937857  0.12852361701300202  0.7786905391027756  1.0000
  O   O5        1.0  0.6181969955512939  0.5033857741864409  0.8895375521665156  1.0000
  O   O6        1.0  0.37962052674205166  0.4956274447426594  0.11052632905182239  1.0000
  O   O7        1.0  0.8617002083563817  0.4412172814427961  0.7340131241688395  1.0000
  O   O8        1.0  0.1365511009603965  0.5566897322909269  0.2667751652632119  1.0000
  O   O9        1.0  0.9388919938004676  0.7559765579560676  0.45038116904427017  1.0000
  O   O10       1.0  0.060495727238191  0.24433298505132228  0.5496522084088225  1.0000
  O   O11       1.0  0.20755815055116494  0.38374439674958444  0.8558806555955623  1.0000
  O   O12       1.0  0.7924477581437372  0.6162931042502533  0.1430558937671194  1.0000
  O   O13       1.0  0.33405051286190013  0.892321092383618  0.9595117625473646  1.0000
  O   O14       1.0  0.6698850558136158  0.105898152337474  0.041289737884433485  1.0000
  O   O15       1.0  0.9728774645027582  0.7414073444423933  0.9063975793898535  1.0000
  O   O16       1.0  0.026770823729655984  0.2592015667681835  0.09287863797032256  1.0000
