data_image0
_chemical_formula_structural       Zn2H10C26Br4N2O12
_chemical_formula_sum              "Zn2 H10 C26 Br4 N2 O12"
_cell_length_a       10.101251949446555
_cell_length_b       11.00093930686404
_cell_length_c       10.968566592284406
_cell_angle_alpha    74.62314358225494
_cell_angle_beta     89.641425860626
_cell_angle_gamma    87.61345845207917

_space_group_name_H-M_alt    "P 1"
_space_group_IT_number       1

loop_
  _space_group_symop_operation_xyz
  'x, y, z'

loop_
  _atom_site_type_symbol
  _atom_site_label
  _atom_site_symmetry_multiplicity
  _atom_site_fract_x
  _atom_site_fract_y
  _atom_site_fract_z
  _atom_site_occupancy
  Zn  Zn1       1.0  0.6418716278821323  0.4938894501191129  0.5005138903819031  1.0000
  Zn  Zn2       1.0  0.35213431475298773  0.5080338700173286  0.4962002259538068  1.0000
  H   H1        1.0  0.29869442567656534  0.5073435580801444  0.8832882770446702  1.0000
  H   H2        1.0  0.29644071731583915  0.5289640786473769  0.10321149091861055  1.0000
  H   H3        1.0  0.8223270984152007  0.5850872295048222  0.08289909827674082  1.0000
  H   H4        1.0  0.8207558522034192  0.39146353187002353  0.9234333980932234  1.0000
  H   H5        1.0  0.27256340776661864  0.12214937112216263  0.5085159905498173  1.0000
  H   H6        1.0  0.27017164016444184  0.8979407081345201  0.4976742821614907  1.0000
  H   H7        1.0  0.7878125550626934  0.29487917150295573  0.17117962359622402  1.0000
  H   H8        1.0  0.7970820451038563  0.6848690730184048  0.8337248558912903  1.0000
  H   H9        1.0  0.23499753872857104  0.7032330061712957  0.3390942160089878  1.0000
  H   H10       1.0  0.25221443438888963  0.3450172584266299  0.6947584574786276  1.0000
  C   C1        1.0  0.4772132564950908  0.2644604933224882  0.5091554414683159  1.0000
  C   C2        1.0  0.47076131875116534  0.7379446511854442  0.49225144070194204  1.0000
  C   C3        1.0  0.06380855383827108  0.5847553287349144  0.4008055028936255  1.0000
  C   C4        1.0  0.07479515617654191  0.4076209805217843  0.5732995663962868  1.0000
  C   C5        1.0  0.9243048750847719  0.5807236666343913  0.4022310245149612  1.0000
  C   C6        1.0  0.9350543182575564  0.40647208741716423  0.5739563461737802  1.0000
  C   C7        1.0  0.5139057196164315  0.48324396068056796  0.7369822386645807  1.0000
  C   C8        1.0  0.507944237538048  0.5223442498672953  0.25994685421780156  1.0000
  C   C9        1.0  0.6269825651047469  0.4924409816775324  0.9386080544318746  1.0000
  C   C10       1.0  0.6258533064604351  0.5059816882788369  0.06084381733698758  1.0000
  C   C11       1.0  0.5110436677302488  0.49212389193370154  0.8701646966318393  1.0000
  C   C12       1.0  0.5085004854283781  0.5178141623297421  0.12535899329592584  1.0000
  C   C13       1.0  0.39185074987221924  0.5059445905734918  0.9334645798091686  1.0000
  C   C14       1.0  0.3905919811045706  0.5186677277251306  0.0570963930923369  1.0000
  C   C15       1.0  0.7763128564729415  0.49941029407182924  0.0731442131415037  1.0000
  C   C16       1.0  0.7774902109791954  0.48219475454574484  0.9317316525991899  1.0000
  C   C17       1.0  0.3645726161526569  0.0686322444403089  0.5036945633873486  1.0000
  C   C18       1.0  0.36323997128878466  0.9435966374189705  0.5004532974455883  1.0000
  C   C19       1.0  0.4813514964615139  0.8708907108787403  0.5034621134393262  1.0000
  C   C20       1.0  0.4842392959463311  0.13005277173703428  0.4996174201912496  1.0000
  C   C21       1.0  0.6021494878227288  0.9290037559809649  0.5094119271320068  1.0000
  C   C22       1.0  0.6034626571717894  0.060298834809316304  0.4941600468103005  1.0000
  C   C23       1.0  0.8336816689476548  0.38587746618244273  0.170062215591237  1.0000
  C   C24       1.0  0.8410924799377782  0.5890523065564325  0.8376127212894957  1.0000
  C   C25       1.0  0.14099166936072288  0.677355712736109  0.3032217594576565  1.0000
  C   C26       1.0  0.1621934398871616  0.3088237024886312  0.6619019058554088  1.0000
  Br  Br1       1.0  0.764349931201302  0.8337652413500367  0.5540543502051207  1.0000
  Br  Br2       1.0  0.7668065369228217  0.14026849930214522  0.4515737610330604  1.0000
  Br  Br3       1.0  0.8231280466086802  0.7041091188736599  0.2870133100499714  1.0000
  Br  Br4       1.0  0.8483196591840709  0.2858927046309816  0.6963042835177689  1.0000
  N   N1        1.0  0.860694925508092  0.4946877490082855  0.4911208264174647  1.0000
  N   N2        1.0  0.13547130252161574  0.5011206951525082  0.4906508445478579  1.0000
  O   O1        1.0  0.5798735031623465  0.3089803610935321  0.5435473458784587  1.0000
  O   O2        1.0  0.5733807284553621  0.6818713781546963  0.4633486722350355  1.0000
  O   O3        1.0  0.3644558174881709  0.3236333496810603  0.48580331961299095  1.0000
  O   O4        1.0  0.3554306169026874  0.6920461503999816  0.5075285245998487  1.0000
  O   O5        1.0  0.6270230305324277  0.49724188079359527  0.6837063552027942  1.0000
  O   O6        1.0  0.6186289275267213  0.4919943091123927  0.3180558656729531  1.0000
  O   O7        1.0  0.4059427053802196  0.46512774630655684  0.6863922708009156  1.0000
  O   O8        1.0  0.39997377548409224  0.552459129716546  0.30678172960615063  1.0000
  O   O9        1.0  0.9230920395896264  0.38907300598480543  0.24345289336039136  1.0000
  O   O10       1.0  0.9337440705910467  0.5756745880911113  0.769622677699509  1.0000
  O   O11       1.0  0.10464643308436192  0.7186311195076911  0.19379353995993398  1.0000
  O   O12       1.0  0.1354962891273814  0.19783880428338563  0.6941133623290341  1.0000
