data_image0
_chemical_formula_structural       KLiSb2H4C8O12
_chemical_formula_sum              "K1 Li1 Sb2 H4 C8 O12"
_cell_length_a       6.327817165867692
_cell_length_b       8.159317253642632
_cell_length_c       8.85441197804086
_cell_angle_alpha    119.86068967843183
_cell_angle_beta     89.99412933111199
_cell_angle_gamma    112.86431789263825

_space_group_name_H-M_alt    "P 1"
_space_group_IT_number       1

loop_
  _space_group_symop_operation_xyz
  'x, y, z'

loop_
  _atom_site_type_symbol
  _atom_site_label
  _atom_site_symmetry_multiplicity
  _atom_site_fract_x
  _atom_site_fract_y
  _atom_site_fract_z
  _atom_site_occupancy
  K   K1        1.0  0.5264359463926808  0.9999142917725052  0.5001656548105872  1.0000
  Li  Li1       1.0  0.5222723682833034  0.9999148308406092  0.9999216494173738  1.0000
  Sb  Sb1       1.0  0.8343911592704528  0.5952060337798813  0.3127736152539313  1.0000
  Sb  Sb2       1.0  0.2400813796240867  0.4049018251649272  0.6871688475137177  1.0000
  H   H1        1.0  0.8376623626510522  0.8324171218607147  0.7936638694801418  1.0000
  H   H2        1.0  0.005169001206787969  0.16776563540120995  0.2064241258267359  1.0000
  H   H3        1.0  0.01926300641138548  0.8363084888321095  0.05098867802028192  1.0000
  H   H4        1.0  0.18391453291619794  0.16368733627312784  0.9490038034853754  1.0000
  C   C1        1.0  0.9417722417286142  0.8757226105222955  0.7078594818275478  1.0000
  C   C2        1.0  0.06571742701016348  0.12433621579577897  0.2921417430883295  1.0000
  C   C3        1.0  0.12215989830237083  0.787758821782816  0.675936088928907  1.0000
  C   C4        1.0  0.3342781761071477  0.21192948770836745  0.32373677697044206  1.0000
  C   C5        1.0  0.9683153412223714  0.8799230284885695  0.1802109816003963  1.0000
  C   C6        1.0  0.0893036662637599  0.1203313379697519  0.8198939177445939  1.0000
  C   C7        1.0  0.6981567046614926  0.7821139005564175  0.13885537601228037  1.0000
  C   C8        1.0  0.9170196085662639  0.21801427000728776  0.8613674803176395  1.0000
  O   O1        1.0  0.7906154504070171  0.8040053597439751  0.54856560218834  1.0000
  O   O2        1.0  0.9869197834722669  0.19618514545832968  0.4515564923823093  1.0000
  O   O3        1.0  0.140631145842235  0.6870915751412595  0.5120265581030878  1.0000
  O   O4        1.0  0.45390696242520073  0.3125688342219205  0.4875584867101779  1.0000
  O   O5        1.0  0.06651664883771945  0.8142286257244533  0.27034710531902556  1.0000
  O   O6        1.0  0.25334308730715793  0.1861345963564887  0.7297824550235319  1.0000
  O   O7        1.0  0.5934303633808466  0.6614561444894277  0.1981404463684058  1.0000
  O   O8        1.0  0.9330683276254703  0.3385723368908344  0.8020675886619628  1.0000
  O   O9        1.0  0.2457341750992368  0.8187706908600061  0.8058768196395861  1.0000
  O   O10       1.0  0.42644742825115156  0.1806698811392735  0.193633274097067  1.0000
  O   O11       1.0  0.589005927774842  0.8217049404029666  0.05433624909479559  1.0000
  O   O12       1.0  0.7683813407280623  0.17836900806236136  0.9459940781827499  1.0000
