data_image0
_chemical_formula_structural       Zn4H40C40N16
_chemical_formula_sum              "Zn4 H40 C40 N16"
_cell_length_a       7.29884432335296
_cell_length_b       11.656471458756
_cell_length_c       13.56825889958744
_cell_angle_alpha    86.78396091818668
_cell_angle_beta     74.45567408994623
_cell_angle_gamma    71.73777355220165

_space_group_name_H-M_alt    "P 1"
_space_group_IT_number       1

loop_
  _space_group_symop_operation_xyz
  'x, y, z'

loop_
  _atom_site_type_symbol
  _atom_site_label
  _atom_site_symmetry_multiplicity
  _atom_site_fract_x
  _atom_site_fract_y
  _atom_site_fract_z
  _atom_site_occupancy
  Zn  Zn1       1.0  0.2769813582942716  0.6688653530422498  0.8770373733959789  1.0000
  Zn  Zn2       1.0  0.8228171266107581  0.8308461709073498  0.622431130784669  1.0000
  Zn  Zn3       1.0  0.7230177030684573  0.3311363764302229  0.12296609020177833  1.0000
  Zn  Zn4       1.0  0.1771845650746826  0.1691392908709872  0.3775720543206376  1.0000
  H   H1        1.0  0.44385781090063137  0.8209439280486631  0.9814570307575253  1.0000
  H   H2        1.0  0.24647113572788032  0.6787151133297014  0.5178058859405397  1.0000
  H   H3        1.0  0.5561470788967142  0.17907040572169558  0.018544355619560738  1.0000
  H   H4        1.0  0.7535274369955401  0.3212819803364937  0.4821918557662528  1.0000
  H   H5        1.0  0.3119018386838306  0.9727539480513058  0.12881521018866948  1.0000
  H   H6        1.0  0.41290203183979196  0.5272929513190405  0.3700679183248283  1.0000
  H   H7        1.0  0.6880909900693626  0.027258640853901294  0.8711891076333133  1.0000
  H   H8        1.0  0.587097210321758  0.47271214842095327  0.6299238138603939  1.0000
  H   H9        1.0  0.9483430839568925  0.030301824229653097  0.21988108375775536  1.0000
  H   H10       1.0  0.19722891060781927  0.4699975137537393  0.2791917220419577  1.0000
  H   H11       1.0  0.051649930909640346  0.9697017306001073  0.7801232436729536  1.0000
  H   H12       1.0  0.8027634508920796  0.5300031972720589  0.7208061670897338  1.0000
  H   H13       1.0  0.7322524076946308  0.9283422437454973  0.16580548039623713  1.0000
  H   H14       1.0  0.8251888560817235  0.5716700745304663  0.33374989520096676  1.0000
  H   H15       1.0  0.26775223793054437  0.0716576407969143  0.8341961739234237  1.0000
  H   H16       1.0  0.17480222486230457  0.4283271725911888  0.6662552074665768  1.0000
  H   H17       1.0  0.7160711988244658  0.7641597840505836  0.06862620946412082  1.0000
  H   H18       1.0  0.5480994513602939  0.7359473533962627  0.43117765813592257  1.0000
  H   H19       1.0  0.2839364115642267  0.2358454346893666  0.9313712966922338  1.0000
  H   H20       1.0  0.4518981277514556  0.26404624144746686  0.5688256155655012  1.0000
  H   H21       1.0  0.8239706596755306  0.7942417204143196  0.9393050487725104  1.0000
  H   H22       1.0  0.5577300570968758  0.7056544306467457  0.5603985731706018  1.0000
  H   H23       1.0  0.1760374129469042  0.2057635178984043  0.060693402828988496  1.0000
  H   H24       1.0  0.4422649450264017  0.2943427942382613  0.4396054760029386  1.0000
  H   H25       1.0  0.8521285791620273  0.578242702232579  0.1370831227779802  1.0000
  H   H26       1.0  0.5665255254355871  0.9221324673797399  0.3628576542475698  1.0000
  H   H27       1.0  0.14787406864417835  0.42176166576118124  0.8629168992205081  1.0000
  H   H28       1.0  0.4334702100222926  0.07786197241961898  0.6371427929624077  1.0000
  H   H29       1.0  0.08481466288448997  0.6088182759478116  0.1198099064748419  1.0000
  H   H30       1.0  0.8128206821700983  0.8912251369344374  0.37996823379783956  1.0000
  H   H31       1.0  0.9151921877640419  0.39118511164428327  0.8801864251992626  1.0000
  H   H32       1.0  0.18717459105403825  0.10876928329215467  0.6200312679669864  1.0000
  H   H33       1.0  0.877371038978019  0.6097258018090201  0.8605150190254137  1.0000
  H   H34       1.0  0.3480322374777813  0.8901414790333317  0.6392926700250214  1.0000
  H   H35       1.0  0.12263944062444646  0.3902766752180399  0.13948098540675596  1.0000
  H   H36       1.0  0.6519651238339534  0.10985561040563847  0.3607048623326961  1.0000
  H   H37       1.0  0.7272443623958794  0.5775530561876536  0.9786856895810131  1.0000
  H   H38       1.0  0.28346315951544204  0.9226351881992654  0.5211393311802297  1.0000
  H   H39       1.0  0.2727615690662688  0.4224512155056102  0.021309706491948084  1.0000
  H   H40       1.0  0.7165382877028676  0.07736008700074139  0.4788578640915375  1.0000
  C   C1        1.0  0.28752566409563923  0.8483384991891469  0.025067797393319283  1.0000
  C   C2        1.0  0.16085941002919665  0.6514532111764664  0.47421065130998846  1.0000
  C   C3        1.0  0.712478630688871  0.15167221143103393  0.9749331309095621  1.0000
  C   C4        1.0  0.8391394602006416  0.3485456940648177  0.5257873194339026  1.0000
  C   C5        1.0  0.21282072155781145  0.9333117340680129  0.10521377339744477  1.0000
  C   C6        1.0  0.25082279915380906  0.5666646703279807  0.39389326716284495  1.0000
  C   C7        1.0  0.7871730158195405  0.06669812424263447  0.8947895694473474  1.0000
  C   C8        1.0  0.7491740679759358  0.43333779511795006  0.6061021159707138  1.0000
  C   C9        1.0  0.010258544822434523  0.9643432385078368  0.15650952450916833  1.0000
  C   C10       1.0  0.13019749900956865  0.5357778952645732  0.3426743666466905  1.0000
  C   C11       1.0  0.9897467010966918  0.03566119243145489  0.8434935431738564  1.0000
  C   C12       1.0  0.8697980292105213  0.46422188562342365  0.6573222497979073  1.0000
  C   C13       1.0  0.8907839230418092  0.9076838673580309  0.1267141408869675  1.0000
  C   C14       1.0  0.9242912500103911  0.5923013927648384  0.3726888551142266  1.0000
  C   C15       1.0  0.10921784808847687  0.09231783565057579  0.8732880598677114  1.0000
  C   C16       1.0  0.07570207846745787  0.4076958083201774  0.6273140392650874  1.0000
  C   C17       1.0  0.9762956658753409  0.8221770474235086  0.046329881853736744  1.0000
  C   C18       1.0  0.8444446170126481  0.6776995785510919  0.4531757255923735  1.0000
  C   C19       1.0  0.023713782886112342  0.17782640311411768  0.9536694955048972  1.0000
  C   C20       1.0  0.15555370599592783  0.32229307770039367  0.5468258567238067  1.0000
  C   C21       1.0  0.8594142666709171  0.7547940065797576  0.010426633924573853  1.0000
  C   C22       1.0  0.6243681719823329  0.7451661113570509  0.4892755249679439  1.0000
  C   C23       1.0  0.14059184536189673  0.24521124285129048  0.9895723444239338  1.0000
  C   C24       1.0  0.37562849322414854  0.25482929083455025  0.5107277684215034  1.0000
  C   C25       1.0  0.00202247173584171  0.5665198585150505  0.08433113983397082  1.0000
  C   C26       1.0  0.652424678450558  0.9335864917510077  0.4155668918478169  1.0000
  C   C27       1.0  0.9979848464275423  0.43348447189651296  0.9156670925744449  1.0000
  C   C28       1.0  0.34757331510336786  0.0664097485051158  0.5844332576522647  1.0000
  C   C29       1.0  0.8822243292962709  0.5667100657577108  0.9343369453701272  1.0000
  C   C30       1.0  0.3834528000733285  0.9332662824134347  0.5655585891629471  1.0000
  C   C31       1.0  0.11778102299638255  0.4332933525254815  0.06566085849613049  1.0000
  C   C32       1.0  0.6165436845624868  0.06672814204038248  0.43444112195095386  1.0000
  C   C33       1.0  0.5699132365603599  0.4068935717697214  0.8631131005589054  1.0000
  C   C34       1.0  0.8395395445443513  0.0927445455491238  0.636566128959579  1.0000
  C   C35       1.0  0.43007776461045927  0.593125024360951  0.13687594295105746  1.0000
  C   C36       1.0  0.16042652730138218  0.9072470928934137  0.36342979108755463  1.0000
  C   C37       1.0  0.62017292713427  0.7854648799689202  0.7363302118242173  1.0000
  C   C38       1.0  0.14234306527152532  0.7144350777282326  0.7632096766603241  1.0000
  C   C39       1.0  0.3798319629580505  0.2145251911518287  0.2636774323289828  1.0000
  C   C40       1.0  0.8576649065200569  0.2855611614273599  0.23679046609112914  1.0000
  N   N1        1.0  0.17151884103616755  0.7947297723440914  0.9958073733407744  1.0000
  N   N2        1.0  0.9620858065697674  0.7050323460141001  0.5036003873895892  1.0000
  N   N3        1.0  0.8284868193251285  0.20527730400758762  0.004192570140901335  1.0000
  N   N4        1.0  0.037910853355605  0.29496213293079876  0.49640195071069126  1.0000
  N   N5        1.0  0.9793299817840624  0.6276741187947152  0.9876444609325716  1.0000
  N   N6        1.0  0.5946433045843377  0.8722355557583013  0.5121660847469015  1.0000
  N   N7        1.0  0.020675370508591612  0.37232929948847726  0.012353342933685993  1.0000
  N   N8        1.0  0.40535710651183626  0.1277597697055626  0.4878335281621631  1.0000
  N   N9        1.0  0.4633350009173186  0.5074544811605931  0.8696573459026595  1.0000
  N   N10       1.0  0.8409852200735272  0.9920237863356575  0.629967933105142  1.0000
  N   N11       1.0  0.5366845113642781  0.4925309350439163  0.13034372546601955  1.0000
  N   N12       1.0  0.15900240746768188  0.007963490782181299  0.3700355958347359  1.0000
  N   N13       1.0  0.5084769719282672  0.7539763156726597  0.8027496044770857  1.0000
  N   N14       1.0  0.06527696020280878  0.7456540759784148  0.6967687460235864  1.0000
  N   N15       1.0  0.4915301709789758  0.24601463265815224  0.19725678667704463  1.0000
  N   N16       1.0  0.9347379347608821  0.2543430028050437  0.30322835413872434  1.0000
