data_image0
_chemical_formula_structural       La2Ag2H12C28N4O16
_chemical_formula_sum              "La2 Ag2 H12 C28 N4 O16"
_cell_length_a       7.442765511597748
_cell_length_b       10.32836058100067
_cell_length_c       11.609544411024812
_cell_angle_alpha    98.34879892987826
_cell_angle_beta     101.07925516810502
_cell_angle_gamma    95.8393333264579

_space_group_name_H-M_alt    "P 1"
_space_group_IT_number       1

loop_
  _space_group_symop_operation_xyz
  'x, y, z'

loop_
  _atom_site_type_symbol
  _atom_site_label
  _atom_site_symmetry_multiplicity
  _atom_site_fract_x
  _atom_site_fract_y
  _atom_site_fract_z
  _atom_site_occupancy
  La  La1       1.0  0.2608251763575923  0.47146807380994477  0.07330406510220665  1.0000
  La  La2       1.0  0.7391757577214264  0.5285298494795255  0.9266972839413511  1.0000
  Ag  Ag1       1.0  0.28884409509072384  0.762878792490014  0.6994633025717505  1.0000
  Ag  Ag2       1.0  0.7111531663230013  0.2371210619247037  0.3005404978124205  1.0000
  H   H1        1.0  0.5828160460865774  0.6255284397698517  0.5347478483334456  1.0000
  H   H2        1.0  0.4171886520741097  0.3744744458200344  0.465253005548881  1.0000
  H   H3        1.0  0.8742016629962706  0.699694932164107  0.6868987335316133  1.0000
  H   H4        1.0  0.1258054797462691  0.3002999165720085  0.313103733796396  1.0000
  H   H5        1.0  0.19252495900062172  0.6535872117369622  0.43037436352937425  1.0000
  H   H6        1.0  0.8074804908800958  0.3464126043212659  0.5696286828511035  1.0000
  H   H7        1.0  0.2765721710187067  0.027080654480293696  0.8411286071629931  1.0000
  H   H8        1.0  0.7234207701186008  0.9729184172589528  0.15887024646923456  1.0000
  H   H9        1.0  0.7233350140771082  0.8428739263245077  0.7696405698504023  1.0000
  H   H10       1.0  0.27665320352616624  0.1571222658485141  0.23035640659241352  1.0000
  H   H11       1.0  0.9466225017324985  0.028401236479226082  0.8933897793462577  1.0000
  H   H12       1.0  0.05337527315128912  0.9715948698459514  0.10660746051476627  1.0000
  C   C1        1.0  0.5523239569100512  0.5474618786856525  0.29387130510158954  1.0000
  C   C2        1.0  0.44768292878645616  0.45254502989855877  0.7061278563450986  1.0000
  C   C3        1.0  0.7256398128795496  0.5937202558325723  0.3880340311014052  1.0000
  C   C4        1.0  0.2743625570152588  0.4062847599828743  0.6119634330083699  1.0000
  C   C5        1.0  0.7149203281669828  0.6308817923437928  0.5070290714197796  1.0000
  C   C6        1.0  0.2850847763030871  0.369123159312899  0.4929695702169  1.0000
  C   C7        1.0  0.8758812056380875  0.6740419722309952  0.5928356606055516  1.0000
  C   C8        1.0  0.12412484912906761  0.3259609891633701  0.4071627814311398  1.0000
  C   C9        1.0  0.0557359395395025  0.6469568241390249  0.4513964640591155  1.0000
  C   C10       1.0  0.9442742216681951  0.3530459947812544  0.5486050302432589  1.0000
  C   C11       1.0  0.9014298644689662  0.6007124818867738  0.3601442486003422  1.0000
  C   C12       1.0  0.09857839919634166  0.3992942867341967  0.6398585022188783  1.0000
  C   C13       1.0  0.931477122814144  0.5593766068201518  0.23625831967473943  1.0000
  C   C14       1.0  0.06852558638777853  0.44062333504475504  0.7637418345450726  1.0000
  C   C15       1.0  0.4519765833462942  0.2500744950502423  0.9774188408247113  1.0000
  C   C16       1.0  0.548021417580415  0.7499224131286513  0.022583722790088263  1.0000
  C   C17       1.0  0.5406315191559372  0.14070298455775543  0.9224156810980445  1.0000
  C   C18       1.0  0.4593633256272939  0.8592920758328904  0.07758363065109826  1.0000
  C   C19       1.0  0.42581687156859266  0.0311188922155949  0.8522406014837998  1.0000
  C   C20       1.0  0.574175657155813  0.968878175104777  0.14775874976031395  1.0000
  C   C21       1.0  0.6745833317313199  0.929462005825428  0.8122988327866453  1.0000
  C   C22       1.0  0.325408787631936  0.07053302625210021  0.1877018733862243  1.0000
  C   C23       1.0  0.7989681255283685  0.033896567257258405  0.8815845769694022  1.0000
  C   C24       1.0  0.20102713166777159  0.9661004975522614  0.11841423716785471  1.0000
  C   C25       1.0  0.7332421132888101  0.1418907331325769  0.9396115948533462  1.0000
  C   C26       1.0  0.26675608011142066  0.8581073159635649  0.06038686202955291  1.0000
  C   C27       1.0  0.8734269955603865  0.2451060454635865  0.02583554009811451  1.0000
  C   C28       1.0  0.12656866794514343  0.7548930854127391  0.9741610617934955  1.0000
  N   N1        1.0  0.04473519957001322  0.6837186433621413  0.5656009533082056  1.0000
  N   N2        1.0  0.9552704427842331  0.31628231361334264  0.43439798634037174  1.0000
  N   N3        1.0  0.4898633719715948  0.9267201373919963  0.7979739609950017  1.0000
  N   N4        1.0  0.5101325206286162  0.07327976451408351  0.20202882196726793  1.0000
  O   O1        1.0  0.4997908531534777  0.422921753201372  0.2613627123409614  1.0000
  O   O2        1.0  0.5002201176212325  0.5770852286764665  0.7386335001532487  1.0000
  O   O3        1.0  0.46457533327826905  0.6349303591671287  0.2529318291054921  1.0000
  O   O4        1.0  0.5354243234036034  0.3650745050393668  0.7470704586955393  1.0000
  O   O5        1.0  0.8014779314288063  0.5649391977285563  0.150193820455776  1.0000
  O   O6        1.0  0.19852320122726044  0.4350598048302461  0.8498051364896498  1.0000
  O   O7        1.0  0.08751350552810075  0.5224121296053285  0.22944252776395055  1.0000
  O   O8        1.0  0.912484486243315  0.4775848710454369  0.7705574639002111  1.0000
  O   O9        1.0  0.543959075415451  0.3665662457137345  0.00542943775829493  1.0000
  O   O10       1.0  0.45604048985006074  0.6334317250670908  0.9945708938633758  1.0000
  O   O11       1.0  0.29087119604848516  0.22734026486285328  0.9961262683229819  1.0000
  O   O12       1.0  0.7091270187140779  0.772657568465583  0.0038781897780780497  1.0000
  O   O13       1.0  0.9340640721869989  0.21781710424840384  0.12606541229668272  1.0000
  O   O14       1.0  0.06593022860853646  0.7821820124713671  0.8739318868068012  1.0000
  O   O15       1.0  0.9288044061328337  0.3498812136079366  0.9866734271756671  1.0000
  O   O16       1.0  0.07119535160619254  0.6501178980901445  0.013322797714103366  1.0000
