data_image0
_chemical_formula_structural       Zn2H16C42N4O8F12
_chemical_formula_sum              "Zn2 H16 C42 N4 O8 F12"
_cell_length_a       16.357137582150163
_cell_length_b       17.53270622193798
_cell_length_c       17.74870076483643
_cell_angle_alpha    89.80593740881513
_cell_angle_beta     84.71134426569903
_cell_angle_gamma    88.97502187915998

_space_group_name_H-M_alt    "P 1"
_space_group_IT_number       1

loop_
  _space_group_symop_operation_xyz
  'x, y, z'

loop_
  _atom_site_type_symbol
  _atom_site_label
  _atom_site_symmetry_multiplicity
  _atom_site_fract_x
  _atom_site_fract_y
  _atom_site_fract_z
  _atom_site_occupancy
  Zn  Zn1       1.0  0.4139042045955605  0.4978847911237879  0.5035261263126146  1.0000
  Zn  Zn2       1.0  0.5860910613368943  0.5021175911180507  0.4964716412756477  1.0000
  H   H1        1.0  0.7160494572175936  0.42310878905151134  0.573440374862365  1.0000
  H   H2        1.0  0.8679455305276278  0.42426721983219556  0.5730107659706792  1.0000
  H   H3        1.0  0.8690903451005454  0.6014388851669991  0.40185431794347454  1.0000
  H   H4        1.0  0.7159528063837756  0.592757883001049  0.4111919726868934  1.0000
  H   H5        1.0  0.13091544586020376  0.39852812651755437  0.5981336953875316  1.0000
  H   H6        1.0  0.13205180549626758  0.5756929347713678  0.42697010100464194  1.0000
  H   H7        1.0  0.2839484988162511  0.5768513590369152  0.42653255195809003  1.0000
  H   H8        1.0  0.2840516239175058  0.4072159714962567  0.5887938730659672  1.0000
  H   H9        1.0  0.6181540770845543  0.5041270359321002  0.7353607808669838  1.0000
  H   H10       1.0  0.6129518913670823  0.5042010550665027  0.874750755931601  1.0000
  H   H11       1.0  0.3480096524222205  0.49442656725073425  0.886931118915506  1.0000
  H   H12       1.0  0.3557352574429089  0.49456333416716797  0.7467015391287009  1.0000
  H   H13       1.0  0.6520075411457568  0.5056465794745931  0.11308197001218903  1.0000
  H   H14       1.0  0.3870718655438452  0.4958520934127789  0.12522073343931345  1.0000
  H   H15       1.0  0.38183245491661927  0.49591467972901176  0.26461051439190447  1.0000
  H   H16       1.0  0.6442552956992458  0.505459595270885  0.25331175228612324  1.0000
  C   C1        1.0  0.49171809379674863  0.4987755666967928  0.6476960436631674  1.0000
  C   C2        1.0  0.5095442771205612  0.3501705350178099  0.5002639166518679  1.0000
  C   C3        1.0  0.5082625942027263  0.5012501933995493  0.35229947477080986  1.0000
  C   C4        1.0  0.49046688911439423  0.6498313693722294  0.4998288574424168  1.0000
  C   C5        1.0  0.7529309284765731  0.46177906740339847  0.5366589356896585  1.0000
  C   C6        1.0  0.8377490846704917  0.4627005885930871  0.5359700490597351  1.0000
  C   C7        1.0  0.8825251464856336  0.513430975395842  0.48687225485790026  1.0000
  C   C8        1.0  0.8378164720588474  0.561186993227267  0.4408086353985683  1.0000
  C   C9        1.0  0.7529243172253572  0.5566304669401061  0.44546798546178235  1.0000
  C   C10       1.0  0.9715340895691824  0.5191038008953015  0.4810948768823666  1.0000
  C   C11       1.0  0.028466730220550605  0.4808660642524529  0.5188980510345759  1.0000
  C   C12       1.0  0.16218814830394732  0.43877716403427053  0.5591777983018533  1.0000
  C   C13       1.0  0.11747198867480084  0.4865388886863046  0.5131221105760064  1.0000
  C   C14       1.0  0.16224937280855303  0.537264707148381  0.46401802634596845  1.0000
  C   C15       1.0  0.24706750057089275  0.5381879338248369  0.4633223739190982  1.0000
  C   C16       1.0  0.24707960212500524  0.44333825067784005  0.5545151077432495  1.0000
  C   C17       1.0  0.48742138979117294  0.49891372307946824  0.7322656465163961  1.0000
  C   C18       1.0  0.5593123721897157  0.5017510785312496  0.769380847340415  1.0000
  C   C19       1.0  0.5561318734878072  0.5018691978818453  0.8478142852936873  1.0000
  C   C20       1.0  0.47977632537752163  0.4991169299959637  0.8920918410320557  1.0000
  C   C21       1.0  0.40752777945475327  0.49644864182223364  0.8541648922785402  1.0000
  C   C22       1.0  0.4115513830528387  0.49638577237925574  0.7756804202546876  1.0000
  C   C23       1.0  0.471397802046063  0.4989567617148866  0.9743948254031526  1.0000
  C   C24       1.0  0.5286380237128443  0.5011061138334156  0.02560152311551889  1.0000
  C   C25       1.0  0.5924858807725002  0.5036170815635116  0.14584232796357105  1.0000
  C   C26       1.0  0.5202446972236102  0.500949361078291  0.10790686817300356  1.0000
  C   C27       1.0  0.4438840583484449  0.4981754025721797  0.15217311198221498  1.0000
  C   C28       1.0  0.44068037610173855  0.49828609159408904  0.2306068454570537  1.0000
  C   C29       1.0  0.5125647428250133  0.5011160362037687  0.2677327766636851  1.0000
  C   C30       1.0  0.5884438283703375  0.5036502753404973  0.2243267893230724  1.0000
  C   C31       1.0  0.4870993920351552  0.7362352010789693  0.5001041765513536  1.0000
  C   C32       1.0  0.5586753670815838  0.7802452853355888  0.49760493778422454  1.0000
  C   C33       1.0  0.5565985949715256  0.8597246342017898  0.4980223738329174  1.0000
  C   C34       1.0  0.48137165073876537  0.9011062883154608  0.5008954925821245  1.0000
  C   C35       1.0  0.4096341789381698  0.8571577726613101  0.5034638692202622  1.0000
  C   C36       1.0  0.4123498778897314  0.77775123973516  0.5030069066586763  1.0000
  C   C37       1.0  0.5903733042532054  0.14284134009471927  0.49670134508131286  1.0000
  C   C38       1.0  0.5186258619970089  0.09889800547637151  0.4993308268503755  1.0000
  C   C39       1.0  0.4433975013952677  0.1402871232976466  0.5022598125741029  1.0000
  C   C40       1.0  0.4413385186523159  0.21976761512161153  0.5026667291865794  1.0000
  C   C41       1.0  0.5129220596426195  0.263770785537531  0.5000834949740851  1.0000
  C   C42       1.0  0.5876716604645792  0.22225130211762692  0.49715541797969126  1.0000
  N   N1        1.0  0.7111787689086384  0.507724444566591  0.4924039019450036  1.0000
  N   N2        1.0  0.28882511639313446  0.49224598490438615  0.5075797503942783  1.0000
  N   N3        1.0  0.467714321836425  0.9799846928942346  0.5015261635994082  1.0000
  N   N4        1.0  0.5322788350139547  0.020023010954410805  0.4986886769798178  1.0000
  O   O1        1.0  0.4238303900113678  0.4971734311269955  0.6177209476815835  1.0000
  O   O2        1.0  0.5629621070717121  0.500326067059184  0.6119317071947992  1.0000
  O   O3        1.0  0.5776306280155409  0.3839704243731959  0.49760184537920815  1.0000
  O   O4        1.0  0.4388205917961727  0.3813064446564454  0.5028937164400207  1.0000
  O   O5        1.0  0.5761517207272817  0.502623576014102  0.3822765342088631  1.0000
  O   O6        1.0  0.43700001769507674  0.49992559054300767  0.38807062940476583  1.0000
  O   O7        1.0  0.42235376901783905  0.6160424807814452  0.5026965350459565  1.0000
  O   O8        1.0  0.5611951184206204  0.6186946252613408  0.496892176525215  1.0000
  F   F1        1.0  0.001190170748941499  0.5715975446820778  0.42900435904487494  1.0000
  F   F2        1.0  0.998809316380836  0.42837745828137486  0.570993730547116  1.0000
  F   F3        1.0  0.39125591629815665  0.49606047164866857  0.0049556997733119995  1.0000
  F   F4        1.0  0.6087790144981042  0.5040166658992149  0.9950417914086177  1.0000
  F   F5        1.0  0.33920382038079583  0.7431697261636002  0.50528583683154  1.0000
  F   F6        1.0  0.3357170251113004  0.8924961413264043  0.5062726709236786  1.0000
  F   F7        1.0  0.6341653982519091  0.7475443130146147  0.4944845907906768  1.0000
  F   F8        1.0  0.6289416095434391  0.8953163005435768  0.4955105680328914  1.0000
  F   F9        1.0  0.6642851463151871  0.10749435963593608  0.49383330453251545  1.0000
  F   F10       1.0  0.6608195358023182  0.2568356327451724  0.49483462953905655  1.0000
  F   F11       1.0  0.37104694331900845  0.10470178760958498  0.5048409653977688  1.0000
  F   F12       1.0  0.3658414471226479  0.252479506068596  0.5058839692670818  1.0000
