data_image0
_chemical_formula_structural       Cu8H32C48N40
_chemical_formula_sum              "Cu8 H32 C48 N40"
_cell_length_a       7.253659298486449
_cell_length_b       15.100206371064129
_cell_length_c       15.58558875549609
_cell_angle_alpha    97.66468933062498
_cell_angle_beta     95.06888361847206
_cell_angle_gamma    95.74335805000554

_space_group_name_H-M_alt    "P 1"
_space_group_IT_number       1

loop_
  _space_group_symop_operation_xyz
  'x, y, z'

loop_
  _atom_site_type_symbol
  _atom_site_label
  _atom_site_symmetry_multiplicity
  _atom_site_fract_x
  _atom_site_fract_y
  _atom_site_fract_z
  _atom_site_occupancy
  Cu  Cu1       1.0  0.2533517334985902  0.7904495492957225  0.7145275340535377  1.0000
  Cu  Cu2       1.0  0.7466488669520431  0.20955000270908644  0.28547087049329894  1.0000
  Cu  Cu3       1.0  0.0955373228546677  0.1433196803954715  0.21612693131270796  1.0000
  Cu  Cu4       1.0  0.9044544569670095  0.8566787633080253  0.7838779966866911  1.0000
  Cu  Cu5       1.0  0.2465462219706253  0.6412183406352054  0.8521275858088728  1.0000
  Cu  Cu6       1.0  0.7534627839769146  0.3587865245886803  0.14787243722071253  1.0000
  Cu  Cu7       1.0  0.4064887699796318  0.2879976112223446  0.3499348949955348  1.0000
  Cu  Cu8       1.0  0.5935033756905029  0.7120013487729082  0.6500624052063841  1.0000
  H   H1        1.0  0.7185466582620635  0.0434996841841553  0.9266641585735371  1.0000
  H   H2        1.0  0.2814638008096749  0.9565051005242893  0.07333271506394821  1.0000
  H   H3        1.0  0.08844104522385976  0.4551602796994131  0.8514180570992311  1.0000
  H   H4        1.0  0.9115913659334397  0.5448388499653021  0.1485785889746154  1.0000
  H   H5        1.0  0.4046755010629256  0.6507527854900843  0.03141051940286841  1.0000
  H   H6        1.0  0.5953310720335523  0.3492488250461108  0.9685935256640903  1.0000
  H   H7        1.0  0.7850359028669017  0.3866767344704485  0.6402153458727753  1.0000
  H   H8        1.0  0.21493797302009907  0.613317203006403  0.3597888886051877  1.0000
  H   H9        1.0  0.9157024689542723  0.9604147539857164  0.21239292080684888  1.0000
  H   H10       1.0  0.0842857654075004  0.039590409278389395  0.787609366484503  1.0000
  H   H11       1.0  0.9259954021433003  0.1486889987568105  0.041883294564499414  1.0000
  H   H12       1.0  0.07400843512344576  0.8513172990859275  0.9581179255773975  1.0000
  H   H13       1.0  0.5764816380610186  0.2813262389165061  0.5248440591842964  1.0000
  H   H14       1.0  0.4234994099009484  0.7186728973609887  0.4751553053214154  1.0000
  H   H15       1.0  0.4101656143265373  0.5477109913275129  0.14563347291686313  1.0000
  H   H16       1.0  0.5898351029766573  0.45228929789411865  0.8543682267258816  1.0000
  H   H17       1.0  0.584830034814317  0.47040174377815447  0.3551322776437473  1.0000
  H   H18       1.0  0.4151665371534107  0.5296041154602448  0.644876254177646  1.0000
  H   H19       1.0  0.7907189440231547  0.5836935091124715  0.4636628215012664  1.0000
  H   H20       1.0  0.20926991490330235  0.41630510861750736  0.5363490478054871  1.0000
  H   H21       1.0  0.08213755832188217  0.8853929085893949  0.42273037353832876  1.0000
  H   H22       1.0  0.9178772012132016  0.11461252773664647  0.577268057296429  1.0000
  H   H23       1.0  0.08312376621192638  0.3438332454893995  0.9579122621819283  1.0000
  H   H24       1.0  0.9169043591288499  0.6561652195621334  0.04208218417149818  1.0000
  H   H25       1.0  0.7072798468368404  0.847273022883087  0.1040015342545146  1.0000
  H   H26       1.0  0.29270505214162773  0.15273483696215348  0.8959989657174461  1.0000
  H   H27       1.0  0.419825659281635  0.08749022619486621  0.6085162169877663  1.0000
  H   H28       1.0  0.580180875217529  0.9125067411053537  0.39149116908019727  1.0000
  H   H29       1.0  0.4163728520825529  0.9760180979022833  0.7145785544127321  1.0000
  H   H30       1.0  0.5836210496904499  0.023972839583308297  0.2854224433595149  1.0000
  H   H31       1.0  0.0860178572926528  0.7830442369758895  0.5372203920699405  1.0000
  H   H32       1.0  0.913978530575541  0.2169545854377687  0.46277260014078797  1.0000
  C   C1        1.0  0.2512038543754045  0.057067767378271086  0.44292072686018713  1.0000
  C   C2        1.0  0.748802148461138  0.942931826441338  0.5570830707661614  1.0000
  C   C3        1.0  0.7597244248351204  0.022732455984495893  0.9891380148897966  1.0000
  C   C4        1.0  0.24027098694476476  0.9772732238575088  0.01086081586089451  1.0000
  C   C5        1.0  0.69597626274696  0.9366985839429629  0.006405439399372855  1.0000
  C   C6        1.0  0.30401854413621276  0.06330978739637769  0.9935930155253987  1.0000
  C   C7        1.0  0.5721649161484381  0.8741689229511208  0.9424978645098535  1.0000
  C   C8        1.0  0.4278328406015959  0.12584008955212056  0.057500799342314196  1.0000
  C   C9        1.0  0.15887681470569254  0.47242215530740583  0.9172624785069061  1.0000
  C   C10       1.0  0.8411516615147292  0.5275776802130351  0.0827334178532126  1.0000
  C   C11       1.0  0.3346879887481151  0.5821794283468407  0.01834825772228041  1.0000
  C   C12       1.0  0.665321212629216  0.41782142689316243  0.9816532612191011  1.0000
  C   C13       1.0  0.9273891577047948  0.5569514326233075  0.6247857746719276  1.0000
  C   C14       1.0  0.07260542583755837  0.4430469410184513  0.3752173522052403  1.0000
  C   C15       1.0  0.7429144407873095  0.4074458386364909  0.5777993390073632  1.0000
  C   C16       1.0  0.2570767834212475  0.5925505753548209  0.4222046990282848  1.0000
  C   C17       1.0  0.8680421096307712  0.9756762542032006  0.14815563680247829  1.0000
  C   C18       1.0  0.1319406344641862  0.024328945219657797  0.8518451125482117  1.0000
  C   C19       1.0  0.8044163608561092  0.49398544597970323  0.5609042244199288  1.0000
  C   C20       1.0  0.1955841277631265  0.5060095277670911  0.4391007337436221  1.0000
  C   C21       1.0  0.8744831996755239  0.08106130160786049  0.052520826119078406  1.0000
  C   C22       1.0  0.12551222675117657  0.918944365238545  0.9474773621084722  1.0000
  C   C23       1.0  0.6285249494072431  0.3489947558824227  0.5143168470146692  1.0000
  C   C24       1.0  0.3714654998079183  0.6509989821490336  0.48568750362330354  1.0000
  C   C25       1.0  0.2510385220745731  0.9950115567287907  0.5067460222855615  1.0000
  C   C26       1.0  0.7489740146860556  0.004986601930077893  0.4932572839752183  1.0000
  C   C27       1.0  0.33758328965782175  0.525176261809861  0.0810789857878333  1.0000
  C   C28       1.0  0.6624210263493993  0.4748219380915444  0.918921371038806  1.0000
  C   C29       1.0  0.6317986145468878  0.4550179347373273  0.4193602163231418  1.0000
  C   C30       1.0  0.36819969385573603  0.5449837560281877  0.580642806879098  1.0000
  C   C31       1.0  0.7458753243092744  0.5173468315509026  0.47947332555854427  1.0000
  C   C32       1.0  0.2541228722619451  0.48265028095659085  0.5205362512604027  1.0000
  C   C33       1.0  0.15781469943521378  0.9076604731494341  0.48671003656351536  1.0000
  C   C34       1.0  0.8421944436768243  0.09233959289137057  0.5132856171894034  1.0000
  C   C35       1.0  0.15600798968885943  0.4112655087081761  0.9761909101320115  1.0000
  C   C36       1.0  0.8440133677007252  0.5887337582520046  0.02380587267620628  1.0000
  C   C37       1.0  0.7532119770134714  0.9134849208727116  0.08813700803783318  1.0000
  C   C38       1.0  0.24677135198823658  0.08652228227114728  0.9118633462303265  1.0000
  C   C39       1.0  0.34426910291620777  0.020578002641350696  0.5905910226770106  1.0000
  C   C40       1.0  0.6557397329346414  0.9794214951253294  0.4094096887808192  1.0000
  C   C41       1.0  0.24700034011384986  0.43727786788192446  0.0604501877111119  1.0000
  C   C42       1.0  0.7530125332015986  0.562720833059892  0.9395467757984692  1.0000
  C   C43       1.0  0.34203312487467485  0.9593727855882008  0.6494977947492799  1.0000
  C   C44       1.0  0.6579627856356397  0.040620101094127385  0.3505009435946107  1.0000
  C   C45       1.0  0.24750885162531228  0.3752356002107788  0.1239659088735792  1.0000
  C   C46       1.0  0.7524861470490903  0.624758568513208  0.8760290760682778  1.0000
  C   C47       1.0  0.1602609091493646  0.8507456881962695  0.5495493180581406  1.0000
  C   C48       1.0  0.8397380777060446  0.14925240491237443  0.4504424330732918  1.0000
  N   N1        1.0  0.10868630911359381  0.6114017662182716  0.7378704848128947  1.0000
  N   N2        1.0  0.8913131105152702  0.38860398397160617  0.2621343183168534  1.0000
  N   N3        1.0  0.09932881252431963  0.6748059011952348  0.6843990489611542  1.0000
  N   N4        1.0  0.9006610703914362  0.3251951715695468  0.3156015848498868  1.0000
  N   N5        1.0  0.3137814631344328  0.3174065175109674  0.23787585349817425  1.0000
  N   N6        1.0  0.68620208695215  0.6825864570263461  0.7621197457407903  1.0000
  N   N7        1.0  0.38736847813178327  0.7596603738678522  0.8849825485444641  1.0000
  N   N8        1.0  0.6126373588905878  0.2403423627629024  0.11501003284278263  1.0000
  N   N9        1.0  0.1839787860422959  0.2600343099187228  0.1848320557272771  1.0000
  N   N10       1.0  0.816008801508886  0.7399578677937269  0.8151597955634317  1.0000
  N   N11       1.0  0.4030445826958341  0.8177890301597797  0.8263524151745757  1.0000
  N   N12       1.0  0.596961765999204  0.18221577516992934  0.17364298374583603  1.0000
  N   N13       1.0  0.30641054684159036  0.17437193736640916  0.38399358520879906  1.0000
  N   N14       1.0  0.6935896294952999  0.8256263091474525  0.6160065819470547  1.0000
  N   N15       1.0  0.9859669090972858  0.6420928681655126  0.6132639347813509  1.0000
  N   N16       1.0  0.014025724295016969  0.357903504297134  0.3867388814316116  1.0000
  N   N17       1.0  0.24691119491340166  0.5570403498898244  0.9371230964371335  1.0000
  N   N18       1.0  0.7531040287153487  0.4429570014904768  0.06287511360550718  1.0000
  N   N19       1.0  0.5731156050799128  0.3716014912136955  0.43569182916377974  1.0000
  N   N20       1.0  0.4268752775526606  0.6283982215358674  0.564308702910445  1.0000
  N   N21       1.0  0.34118954683400193  0.14138710105544305  0.4578620903773612  1.0000
  N   N22       1.0  0.658814354363159  0.8586144625821674  0.5421379731035572  1.0000
  N   N23       1.0  0.196961340572372  0.11200884625486648  0.32613727723890673  1.0000
  N   N24       1.0  0.8030399816275277  0.8879887514694216  0.6738647982297579  1.0000
  N   N25       1.0  0.9285702201749046  0.0587346785577552  0.1314274647231883  1.0000
  N   N26       1.0  0.07141707305731866  0.9412717927391938  0.8685723542124109  1.0000
  N   N27       1.0  0.16153489024152637  0.03764596784421308  0.36166746763841934  1.0000
  N   N28       1.0  0.838467826495311  0.962351601346995  0.6383340285307  1.0000
  N   N29       1.0  0.001746088422727536  0.5368587596160379  0.7015680193885244  1.0000
  N   N30       1.0  0.9982541754730793  0.4631402501058233  0.2984367279095181  1.0000
  N   N31       1.0  0.49233428058070655  0.7938978134210398  0.9583454263725528  1.0000
  N   N32       1.0  0.5076734187108087  0.20610700236237278  0.04165132081774199  1.0000
  N   N33       1.0  0.518775988479639  0.8899680739901895  0.8610353553437591  1.0000
  N   N34       1.0  0.4812291118246606  0.11003747109823789  0.1389626329258249  1.0000
  N   N35       1.0  0.35562931863326247  0.39019231149521966  0.2008778521181114  1.0000
  N   N36       1.0  0.6443630078198411  0.6098026515117423  0.7991215865187444  1.0000
  N   N37       1.0  0.14042173949247427  0.2951204443306068  0.1129843188517015  1.0000
  N   N38       1.0  0.8595802318665803  0.7048735817280088  0.8870077695924368  1.0000
  N   N39       1.0  0.25135661395522385  0.8753904177764297  0.6300451503074598  1.0000
  N   N40       1.0  0.7486429921217308  0.12460581202083888  0.3699547694077836  1.0000
