data_image0
_chemical_formula_structural       Zn2H36C36Cl8O16
_chemical_formula_sum              "Zn2 H36 C36 Cl8 O16"
_cell_length_a       7.415614086341961
_cell_length_b       7.941203994256981
_cell_length_c       18.871979014887096
_cell_angle_alpha    99.24652947190148
_cell_angle_beta     89.99889151467299
_cell_angle_gamma    90.0002493507051

_space_group_name_H-M_alt    "P 1"
_space_group_IT_number       1

loop_
  _space_group_symop_operation_xyz
  'x, y, z'

loop_
  _atom_site_type_symbol
  _atom_site_label
  _atom_site_symmetry_multiplicity
  _atom_site_fract_x
  _atom_site_fract_y
  _atom_site_fract_z
  _atom_site_occupancy
  Zn  Zn1       1.0  0.5000001123753961  0.4999988963568853  0.5000035093460582  1.0000
  Zn  Zn2       1.0  0.9999978321310438  4.044012861496601e-06  0.5000008661564339  1.0000
  H   H1        1.0  0.9787857496922285  0.46852121757636667  0.0644265895271232  1.0000
  H   H2        1.0  0.47876257506415953  0.0314999354163135  0.9355697591424673  1.0000
  H   H3        1.0  0.021219869183653407  0.5314716353241027  0.9355758227720942  1.0000
  H   H4        1.0  0.5212484380172668  0.9685059388497522  0.0644267304771731  1.0000
  H   H5        1.0  0.543894021675797  0.4074215551949009  0.1080097116512277  1.0000
  H   H6        1.0  0.0438841229633127  0.09256393399208918  0.8919787920552907  1.0000
  H   H7        1.0  0.45610485466805534  0.5925687463624741  0.891992511255552  1.0000
  H   H8        1.0  0.9561282387162535  0.9074420827830423  0.10801399846421592  1.0000
  H   H9        1.0  0.49288392159939326  0.5222995351514327  0.23565215592821434  1.0000
  H   H10       1.0  0.9928670216089159  0.9776863938636847  0.7643368590727846  1.0000
  H   H11       1.0  0.5071203487999654  0.47769718547687035  0.7643494836183465  1.0000
  H   H12       1.0  0.0071372490104835  0.022322133533165797  0.23565717777909612  1.0000
  H   H13       1.0  0.4225304222992037  0.7079368188166485  0.333835523765309  1.0000
  H   H14       1.0  0.9225281937389269  0.792043332608209  0.6661700217551642  1.0000
  H   H15       1.0  0.5774711508913272  0.2920443087475276  0.6661723774751422  1.0000
  H   H16       1.0  0.07748416768632889  0.20795719467573553  0.3338324303297924  1.0000
  H   H17       1.0  0.3492045323813571  0.5019766429664259  0.34708547047970484  1.0000
  H   H18       1.0  0.8492148456036829  0.998012555369108  0.6529170604169182  1.0000
  H   H19       1.0  0.650775464799672  0.4980135364348045  0.6529199231507974  1.0000
  H   H20       1.0  0.15080021298254562  0.001993298539836999  0.3470799576296955  1.0000
  H   H21       1.0  0.7499728398137081  0.6711262356653123  0.45705492542653303  1.0000
  H   H22       1.0  0.24996533589476402  0.8288706974132295  0.5429452190060362  1.0000
  H   H23       1.0  0.25001524860699226  0.32887190313710596  0.5429431097945071  1.0000
  H   H24       1.0  0.7500241009955603  0.17113120732597054  0.45705468566299606  1.0000
  H   H25       1.0  0.9083659004783868  0.41206838470259294  0.4194201972478525  1.0000
  H   H26       1.0  0.4083606407847569  0.08793336545158328  0.5805810717861847  1.0000
  H   H27       1.0  0.09162218804763002  0.5879299169668429  0.5805736104359697  1.0000
  H   H28       1.0  0.5916328415940698  0.9120646715606142  0.4194196056253929  1.0000
  H   H29       1.0  0.8836566491311616  0.532121645246363  0.34681163131610054  1.0000
  H   H30       1.0  0.3836484603207708  0.9678766060191747  0.6531886619848495  1.0000
  H   H31       1.0  0.11631930278036151  0.4678829329799044  0.6531852921683168  1.0000
  H   H32       1.0  0.6163450220843885  0.0321214717097789  0.34681095854242033  1.0000
  H   H33       1.0  0.7344020128181797  0.3580055772865195  0.35413545388534834  1.0000
  H   H34       1.0  0.23439245297262093  0.141997421657905  0.6458651009627802  1.0000
  H   H35       1.0  0.2655806816211951  0.641996449600846  0.6458612801560548  1.0000
  H   H36       1.0  0.7656050749273079  0.8580044423670542  0.3541358605602128  1.0000
  C   C1        1.0  0.06422515577757791  0.5507135821016932  0.1733771174178145  1.0000
  C   C2        1.0  0.5642077115194226  0.9492887858908786  0.8266131734050222  1.0000
  C   C3        1.0  0.935777766084236  0.44927671945693953  0.8266251054737951  1.0000
  C   C4        1.0  0.4357979075796337  0.05071970078964231  0.17338192032610786  1.0000
  C   C5        1.0  0.09156231319776252  0.48128526948642764  0.10174033831579271  1.0000
  C   C6        1.0  0.5915457650997382  0.018725477770161092  0.8982571002356468  1.0000
  C   C7        1.0  0.9084379116125872  0.5187049709962324  0.8982634699123863  1.0000
  C   C8        1.0  0.40846794495730177  0.9812841624331056  0.1017412588269195  1.0000
  C   C9        1.0  0.26484576606872423  0.4300441860745324  0.07877494980421322  1.0000
  C   C10       1.0  0.7648296996985594  0.069955208394866  0.9212198081695534  1.0000
  C   C11       1.0  0.735155807273941  0.5699460951252959  0.9212278015346059  1.0000
  C   C12       1.0  0.23518131340815532  0.9300494309174566  0.07877552985691239  1.0000
  C   C13       1.0  0.40913881224553716  0.44690275940399005  0.12653528512758072  1.0000
  C   C14       1.0  0.9091223290808159  0.05308153900848108  0.8734540833840115  1.0000
  C   C15       1.0  0.5908627610839615  0.5530875014374601  0.873467994653389  1.0000
  C   C16       1.0  0.09088463854533302  0.9469206100367061  0.12653947991343983  1.0000
  C   C17       1.0  0.37968043928616885  0.5141002541146948  0.19856237225246084  1.0000
  C   C18       1.0  0.8796711820092683  0.985886778299282  0.8014302287492685  1.0000
  C   C19       1.0  0.6203197855394365  0.4858925580673345  0.8014410969512938  1.0000
  C   C20       1.0  0.12033983112586101  0.014120453070788094  0.19856424181062243  1.0000
  C   C21       1.0  0.20758229188596997  0.5673951354081267  0.2230093588605371  1.0000
  C   C22       1.0  0.7075591304301981  0.9325994642321048  0.7769845728676331  1.0000
  C   C23       1.0  0.7924192814608733  0.43260024847370465  0.7769937713137339  1.0000
  C   C24       1.0  0.2924491857192848  0.0674078078538827  0.22300884081806063  1.0000
  C   C25       1.0  0.30334628895623444  0.6328158640277621  0.345008525882271  1.0000
  C   C26       1.0  0.8033409692471807  0.8671708562017814  0.6549915174151977  1.0000
  C   C27       1.0  0.6966525872843902  0.36717682600357887  0.6549981139794525  1.0000
  C   C28       1.0  0.19665655878439034  0.132831211406959  0.3450041596862691  1.0000
  C   C29       1.0  0.22942096080385713  0.7153888003908689  0.4174851713607454  1.0000
  C   C30       1.0  0.7294241918255082  0.7845964963519664  0.5825179739011476  1.0000
  C   C31       1.0  0.7705711729820522  0.28461547246476476  0.5825196786952702  1.0000
  C   C32       1.0  0.27059221518563  0.21540668406612437  0.41748202537559825  1.0000
  C   C33       1.0  0.8116116055436465  0.46355491111048497  0.38424482049858005  1.0000
  C   C34       1.0  0.31160297804361653  0.03644825805630348  0.6157519845641419  1.0000
  C   C35       1.0  0.18836974038869417  0.5364458401059622  0.6157518188390229  1.0000
  C   C36       1.0  0.688390504376791  0.9635523913720335  0.3842472969387032  1.0000
  Cl  Cl1       1.0  0.2997883617653017  0.34528912346147683  0.9893228065152188  1.0000
  Cl  Cl2       1.0  0.799785563429218  0.15470652683145397  0.010669819860453298  1.0000
  Cl  Cl3       1.0  0.7002091660240879  0.6547061993439627  0.010681909000673805  1.0000
  Cl  Cl4       1.0  0.20022949516704358  0.845295520424365  0.9893263856174175  1.0000
  Cl  Cl5       1.0  0.8507825608659161  0.6201223299472501  0.20162525063359743  1.0000
  Cl  Cl6       1.0  0.35076265421493963  0.8798888611355409  0.7983709519583613  1.0000
  Cl  Cl7       1.0  0.14922170953762054  0.3798794933630488  0.7983767677484083  1.0000
  Cl  Cl8       1.0  0.649245661883974  0.12012088085793948  0.20162476491367443  1.0000
  O   O1        1.0  0.16661180047350396  0.6362803226112916  0.2921071352037572  1.0000
  O   O2        1.0  0.666607882985403  0.8637179563873404  0.7078905585407045  1.0000
  O   O3        1.0  0.8333843789356905  0.36372411311262454  0.707893487299863  1.0000
  O   O4        1.0  0.33340043307819667  0.1362968272129947  0.29210712249324194  1.0000
  O   O5        1.0  0.3129459508639058  0.6871235482662146  0.473737977384829  1.0000
  O   O6        1.0  0.8129521236311205  0.8128758939320451  0.5262639978379229  1.0000
  O   O7        1.0  0.687050228396302  0.3128755608335467  0.5262680791470232  1.0000
  O   O8        1.0  0.18703596473691425  0.18712216343686086  0.4737361511517336  1.0000
  O   O9        1.0  0.094930657608316  0.8131747281025027  0.41811847273807967  1.0000
  O   O10       1.0  0.5949455361678274  0.6868143526366096  0.5818849084990703  1.0000
  O   O11       1.0  0.9050709157774007  0.18683600454207996  0.581884737058239  1.0000
  O   O12       1.0  0.40506412818339044  0.3131746121784857  0.4181188049848501  1.0000
  O   O13       1.0  0.6846948864375548  0.5760596266418503  0.42571737227005  1.0000
  O   O14       1.0  0.18468633353850814  0.9239436645042431  0.5742832069015051  1.0000
  O   O15       1.0  0.3152932019415573  0.4239358997444286  0.5742820588597298  1.0000
  O   O16       1.0  0.8153044518314799  0.07605819951862001  0.42571775464677597  1.0000
