data_image0
_chemical_formula_structural       Zn2H44C62N6O14
_chemical_formula_sum              "Zn2 H44 C62 N6 O14"
_cell_length_a       7.680241627980869
_cell_length_b       10.143334600829423
_cell_length_c       17.687
_cell_angle_alpha    102.35528399005591
_cell_angle_beta     100.483537204629
_cell_angle_gamma    102.77092415911068

_space_group_name_H-M_alt    "P 1"
_space_group_IT_number       1

loop_
  _space_group_symop_operation_xyz
  'x, y, z'

loop_
  _atom_site_type_symbol
  _atom_site_label
  _atom_site_symmetry_multiplicity
  _atom_site_fract_x
  _atom_site_fract_y
  _atom_site_fract_z
  _atom_site_occupancy
  Zn  Zn1       1.0  0.0978100016833992  0.3954676958705932  0.9985224735285813  1.0000
  Zn  Zn2       1.0  0.9021905845562588  0.604532925816919  0.0014761225333330627  1.0000
  H   H1        1.0  0.24556944861036104  0.9603824576317592  0.05998775332268741  1.0000
  H   H2        1.0  0.7544371788183426  0.0396202608096132  0.9400127081212517  1.0000
  H   H3        1.0  0.7471917599027479  0.6629516332971832  0.49867745346536924  1.0000
  H   H4        1.0  0.2527969090225923  0.337048988390336  0.5013213317881835  1.0000
  H   H5        1.0  0.41550544190573646  0.3397936391841441  0.9325913544263217  1.0000
  H   H6        1.0  0.5845043711812751  0.660214321141865  0.06741113272929064  1.0000
  H   H7        1.0  0.4094928289489914  0.5600712603603242  0.24428345965121423  1.0000
  H   H8        1.0  0.5904969990586082  0.4399251678194886  0.7557165987499772  1.0000
  H   H9        1.0  0.3359205006922822  0.3481837997276216  0.2190590756588335  1.0000
  H   H10       1.0  0.6640802927860536  0.6518136768291143  0.7809391508329143  1.0000
  H   H11       1.0  0.7177894331667005  0.1031665798378185  0.2649687659712114  1.0000
  H   H12       1.0  0.28220701557108196  0.8968298483419944  0.7350295539832743  1.0000
  H   H13       1.0  0.6018964083096137  0.1695865000218006  0.9327374038652537  1.0000
  H   H14       1.0  0.39811716997682833  0.8304246054349846  0.06726802826935338  1.0000
  H   H15       1.0  0.4079961814721004  0.2720915540189424  0.3511680283071001  1.0000
  H   H16       1.0  0.5920049843086874  0.7279069709147237  0.6488297908611215  1.0000
  H   H17       1.0  0.264819985166632  0.1198368213474907  0.27861845827917625  1.0000
  H   H18       1.0  0.7351791118632107  0.8801596068323149  0.7213806363028398  1.0000
  H   H19       1.0  0.8857744930049309  0.1932368351086993  0.17269240638594846  1.0000
  H   H20       1.0  0.11422497632736395  0.8067606414480366  0.8273062808725413  1.0000
  H   H21       1.0  0.2978169171994552  0.9396004818160009  0.20490592253946013  1.0000
  H   H22       1.0  0.7021821798303949  0.060395946363804895  0.795092606655551  1.0000
  H   H23       1.0  0.5154755777275427  0.4474032404368415  0.1319280675530266  1.0000
  H   H24       1.0  0.4845297255551344  0.5525994780045309  0.8680728546576547  1.0000
  H   H25       1.0  0.0772159114089703  0.1421221696759716  0.055730581328198504  1.0000
  H   H26       1.0  0.922787695425214  0.8578795003884706  0.9442678166507149  1.0000
  H   H27       1.0  0.6155140479754166  0.9408721630279545  0.4335452445514107  1.0000
  H   H28       1.0  0.3844752004910532  0.059126361905711605  0.5664561561304922  1.0000
  H   H29       1.0  0.29816182872386326  0.7894288740976876  0.49447846377333354  1.0000
  H   H30       1.0  0.7018340404727826  0.2105696508359785  0.5055240253968947  1.0000
  H   H31       1.0  0.057482702634303016  0.1100344970838947  0.4125819908909492  1.0000
  H   H32       1.0  0.9425211114385521  0.8899640278497714  0.587418299065817  1.0000
  H   H33       1.0  0.9043128423054088  0.6333286948595145  0.23871669873991413  1.0000
  H   H34       1.0  0.09568964762141974  0.3666698300741515  0.7612823558225799  1.0000
  H   H35       1.0  0.37261082874118057  0.5950262438466183  0.5468331177697365  1.0000
  H   H36       1.0  0.6273890128935734  0.4049722810870406  0.4531679891002653  1.0000
  H   H37       1.0  0.879709760531128  0.47366822757864924  0.3042479656257484  1.0000
  H   H38       1.0  0.1202940535417341  0.5263302973550168  0.6957511935570083  1.0000
  H   H39       1.0  0.13366289823543545  0.9263049656330152  0.47215517492558234  1.0000
  H   H40       1.0  0.8663348746483737  0.0736914625467975  0.5278443804231827  1.0000
  H   H41       1.0  0.9839996515924485  0.294746979402511  0.3617115547699187  1.0000
  H   H42       1.0  0.01600681077248111  0.705251545531155  0.6382878136533705  1.0000
  H   H43       1.0  0.8326548265438803  0.8294978402318804  0.18969863578951873  1.0000
  H   H44       1.0  0.1673529599670829  0.1705006847017856  0.810300837254033  1.0000
  C   C1        1.0  0.2904606763873049  0.0422349128645223  0.031208734882902402  1.0000
  C   C2        1.0  0.7095459510414059  0.9577678055768502  0.9687917265610437  1.0000
  C   C3        1.0  0.7134483309746573  0.3274165011888428  0.1466284926874266  1.0000
  C   C4        1.0  0.2865545312546233  0.6725830721217463  0.8533712853255581  1.0000
  C   C5        1.0  0.4433092703048872  0.0497140338588054  0.9976445285073651  1.0000
  C   C6        1.0  0.5567035633766508  0.9502949748441267  0.0023588913392557725  1.0000
  C   C7        1.0  0.8193714151430741  0.3857576287765383  0.09270668886687622  1.0000
  C   C8        1.0  0.18062917109659082  0.614242992910981  0.9072936033560667  1.0000
  C   C9        1.0  0.382404466334549  0.2532543174020105  0.959617324313747  1.0000
  C   C10       1.0  0.617604394908881  0.7467546913009215  0.04038578167208582  1.0000
  C   C11       1.0  0.4244215653310094  0.6713365519560313  0.26553478814305725  1.0000
  C   C12       1.0  0.5755737243245136  0.3286640697314809  0.734467347146854  1.0000
  C   C13       1.0  0.45790519425958826  0.3152008132402386  0.20946843746470734  1.0000
  C   C14       1.0  0.5420959715211993  0.6847977116934274  0.790530512477524  1.0000
  C   C15       1.0  0.6688370513782119  0.1763422409367337  0.23512663850954146  1.0000
  C   C16       1.0  0.3311603492031452  0.823653138866149  0.7648710626147236  1.0000
  C   C17       1.0  0.34491196292355414  0.74284948724938  0.21608669278734993  1.0000
  C   C18       1.0  0.6550882510136519  0.257150086061209  0.783913441372114  1.0000
  C   C19       1.0  0.48558175248437163  0.1571055727107691  0.9599731303187936  1.0000
  C   C20       1.0  0.5144305016560368  0.8429055327460162  0.0400316318085387  1.0000
  C   C21       1.0  0.4095910809617039  0.1769555414387867  0.308015745807154  1.0000
  C   C22       1.0  0.59040876067305  0.8230429834948794  0.6919825341278028  1.0000
  C   C23       1.0  0.5943766368452472  0.6578114412261229  0.3954097033165667  1.0000
  C   C24       1.0  0.4056079331172953  0.3422111963768515  0.6045976789447352  1.0000
  C   C25       1.0  0.46349394914805236  0.9578894173003292  0.3222230771802971  1.0000
  C   C26       1.0  0.5365015477461413  0.0421080592564067  0.6777741654433811  1.0000
  C   C27       1.0  0.23166980518486474  0.6640922673933147  0.1336796067573616  1.0000
  C   C28       1.0  0.7683298292112186  0.3359094026711347  0.8663190427477688  1.0000
  C   C29       1.0  0.7658003628513939  0.2280073042559181  0.1834002040832914  1.0000
  C   C30       1.0  0.2342008029293936  0.771991220677748  0.816598180471928  1.0000
  C   C31       1.0  0.5210288850974933  0.7421229620392538  0.3441076409276462  1.0000
  C   C32       1.0  0.478961894753688  0.2578724177636289  0.6558934948043458  1.0000
  C   C33       1.0  0.3635183792605262  0.8866752694310592  0.2443510046498645  1.0000
  C   C34       1.0  0.636480510530646  0.11332430387952999  0.7556478941153202  1.0000
  C   C35       1.0  0.5581833733488751  0.3707564033339921  0.16032787615756666  1.0000
  C   C36       1.0  0.4418198611828573  0.6292442183535272  0.8396726253059015  1.0000
  C   C37       1.0  0.5143979507631188  0.2204118134227855  0.2489943809216442  1.0000
  C   C38       1.0  0.4856001944231424  0.7795856631339504  0.7510036363295712  1.0000
  C   C39       1.0  0.19385072554743496  0.1423423288305585  0.028660888220443305  1.0000
  C   C40       1.0  0.8061572260273098  0.8576603896108138  0.9713396778437584  1.0000
  C   C41       1.0  0.541418461494203  0.8852725411032836  0.37238519603643283  1.0000
  C   C42       1.0  0.4585774077024425  0.11472598383037541  0.627615031585762  1.0000
  C   C43       1.0  0.02877300806058969  0.7615514832427834  0.3606886401273997  1.0000
  C   C44       1.0  0.9712298541686908  0.23844809006780568  0.6393117032725827  1.0000
  C   C45       1.0  0.22078301458338256  0.6819723358762673  0.4630850023200281  1.0000
  C   C46       1.0  0.7792151306028856  0.3180251406804686  0.5369164072532372  1.0000
  C   C47       1.0  0.0241163976026684  0.0029113427251346  0.3752083490284194  1.0000
  C   C48       1.0  0.9758826994271816  0.9970850854546783  0.6247913109406014  1.0000
  C   C49       1.0  0.9397459247932718  0.7367039017057238  0.28036261167201815  1.0000
  C   C50       1.0  0.06025619283110471  0.2632935748510121  0.7196374156010137  1.0000
  C   C51       1.0  0.2665740970152157  0.5746625704245787  0.49248825401168966  1.0000
  C   C52       1.0  0.7334280206091607  0.42533490613216435  0.5075123386483469  1.0000
  C   C53       1.0  0.0803406401299185  0.6496236174294694  0.3936356965247896  1.0000
  C   C54       1.0  0.9196582496612535  0.3503759558811197  0.6063643330144045  1.0000
  C   C55       1.0  0.9931984538177902  0.5070254846288265  0.3570100265017757  1.0000
  C   C56       1.0  0.006801760119415715  0.4929740886817626  0.6429895422706766  1.0000
  C   C57       1.0  0.06947230727013935  0.8992421636500724  0.4086978448281045  1.0000
  C   C58       1.0  0.9305252583749992  0.1007574096605168  0.5913015147038223  1.0000
  C   C59       1.0  0.04951084427040801  0.4059650940365245  0.38981484835453273  1.0000
  C   C60       1.0  0.9504906938128387  0.5940344792740717  0.610184825038182  1.0000
  C   C61       1.0  0.8999010979174784  0.847718631215976  0.25236213078352426  1.0000
  C   C62       1.0  0.1001036679989653  0.15227884534076  0.7476375403430211  1.0000
  N   N1        1.0  0.23919607293937875  0.2468875243268371  0.9940271137307378  1.0000
  N   N2        1.0  0.7608096026457503  0.7531162424914584  0.005973401156417362  1.0000
  N   N3        1.0  0.18345239538734154  0.43841655342212965  0.4567175639347952  1.0000
  N   N4        1.0  0.8165493499345757  0.5615798747576832  0.5432823052747581  1.0000
  N   N5        1.0  0.9415858737336934  0.9798581557969825  0.29791297164526753  1.0000
  N   N6        1.0  0.05841661619312791  0.0201403691366835  0.7020855175302216  1.0000
  O   O1        1.0  0.4918597070712424  0.0981888861903784  0.35524085843932346  1.0000
  O   O2        1.0  0.5081418310119973  0.9018106871202106  0.6447576841793747  1.0000
  O   O3        1.0  0.11715917207757094  0.7207392178676386  0.10043510280802082  1.0000
  O   O4        1.0  0.8828383935675603  0.2792603554429505  0.8995642567238988  1.0000
  O   O5        1.0  0.6994306339939342  0.7317335466967663  0.46697624996952675  1.0000
  O   O6        1.0  0.3005571252627278  0.2682607847291862  0.5330205607494065  1.0000
  O   O7        1.0  0.7870338738486639  0.49411577115481725  0.07340837041257231  1.0000
  O   O8        1.0  0.21296427133760432  0.5058817054019187  0.9265890814516383  1.0000
  O   O9        1.0  0.5567838053105661  0.5287080162245203  0.3715091032768854  1.0000
  O   O10       1.0  0.4431667549682175  0.4712747830552502  0.6284946609773385  1.0000
  O   O11       1.0  0.2570838675210751  0.5463354258681647  0.10281599250209442  1.0000
  O   O12       1.0  0.7429150222700969  0.4536641474424243  0.8971829062630903  1.0000
  O   O13       1.0  0.9344865023812261  0.3231726713900116  0.0694287096360071  1.0000
  O   O14       1.0  0.06551710445295814  0.6768289986744307  0.9305713845039352  1.0000
