data_image0
_chemical_formula_structural       Ni2H40C56N12
_chemical_formula_sum              "Ni2 H40 C56 N12"
_cell_length_a       9.077095544825132
_cell_length_b       9.621559637425687
_cell_length_c       15.08622707750553
_cell_angle_alpha    77.75260128104077
_cell_angle_beta     72.52753528394598
_cell_angle_gamma    61.857021451821744

_space_group_name_H-M_alt    "P 1"
_space_group_IT_number       1

loop_
  _space_group_symop_operation_xyz
  'x, y, z'

loop_
  _atom_site_type_symbol
  _atom_site_label
  _atom_site_symmetry_multiplicity
  _atom_site_fract_x
  _atom_site_fract_y
  _atom_site_fract_z
  _atom_site_occupancy
  Ni  Ni1       1.0  0.5097640511238526  0.24991201963764814  0.7499788897000811  1.0000
  Ni  Ni2       1.0  0.4902399448587573  0.7500860577725135  0.25002071892599514  1.0000
  H   H1        1.0  0.25469285245773005  0.249596425318515  0.9514033048019712  1.0000
  H   H2        1.0  0.45560766365748157  0.250424718860863  0.5485615906247502  1.0000
  H   H3        1.0  0.7453042085514953  0.75040519682959  0.048593306617362775  1.0000
  H   H4        1.0  0.5444008744812767  0.7495745407084584  0.45143749272870776  1.0000
  H   H5        1.0  0.10306996428460743  0.4891316896648732  0.06463879998401718  1.0000
  H   H6        1.0  0.6562218377792136  0.0108854069681215  0.43532632588177467  1.0000
  H   H7        1.0  0.8969272793519573  0.5108675665029949  0.9353577154993856  1.0000
  H   H8        1.0  0.3437822143877515  0.9891103077632762  0.5646755980907585  1.0000
  H   H9        1.0  0.22265923246439495  0.7049060140293122  0.9761963494574314  1.0000
  H   H10       1.0  0.9035355184091076  0.7950987229376665  0.5236119003215832  1.0000
  H   H11       1.0  0.7773334830519121  0.29509797507169117  0.0238010381330084  1.0000
  H   H12       1.0  0.09646122416049983  0.20489344610545152  0.4763922223025005  1.0000
  H   H13       1.0  0.6541986099741455  0.7364701846025241  0.6415739002575194  1.0000
  H   H14       1.0  0.032799463558738966  0.7635945970312078  0.8582711931016361  1.0000
  H   H15       1.0  0.34580525956547375  0.26352789610910327  0.3584281196509379  1.0000
  H   H16       1.0  0.9672023596774155  0.23640466385541004  0.14172880361000031  1.0000
  H   H17       1.0  0.860269170927019  0.5263899997995055  0.5125282018978651  1.0000
  H   H18       1.0  0.8994829731425118  0.9733355324730367  0.9875673675061234  1.0000
  H   H19       1.0  0.13973381358842837  0.4736057179499157  0.48747591936787416  1.0000
  H   H20       1.0  0.10051643853548599  0.026669640549016507  0.012430797880547588  1.0000
  H   H21       1.0  0.8019206603727586  0.2637650815929078  0.5756851558758384  1.0000
  H   H22       1.0  0.6414177861397978  0.2358893781648916  0.9244717826969974  1.0000
  H   H23       1.0  0.1980787559718707  0.7362341841347659  0.42431836033169645  1.0000
  H   H24       1.0  0.35857965416001053  0.7641134271150494  0.07552498368488599  1.0000
  H   H25       1.0  0.27148450611762376  0.8808410603918944  0.7034422856886023  1.0000
  H   H26       1.0  0.8558444908021989  0.619363608620141  0.7963873868890088  1.0000
  H   H27       1.0  0.7285180007744291  0.11916411467549887  0.29655739675610693  1.0000
  H   H28       1.0  0.1441575338022148  0.38063210104790807  0.20361082273228698  1.0000
  H   H29       1.0  0.25992449152780495  0.1445669311414193  0.7050593351874567  1.0000
  H   H30       1.0  0.10954053795457981  0.3555119565515242  0.7948448423034689  1.0000
  H   H31       1.0  0.7400776173327518  0.8554382460324631  0.2949418834491126  1.0000
  H   H32       1.0  0.8904596042328023  0.6444837525496111  0.20515293933947717  1.0000
  H   H33       1.0  0.5233209069881689  0.9783474383818599  0.9155688613149164  1.0000
  H   H34       1.0  0.4170188425604383  0.5214108117870069  0.584288003828675  1.0000
  H   H35       1.0  0.47667595731941514  0.0216518276904196  0.0844348880156147  1.0000
  H   H36       1.0  0.5829829806757163  0.4785884490996041  0.41571199288296157  1.0000
  H   H37       1.0  0.5549968849089033  0.7062574138932051  0.9184925175184869  1.0000
  H   H38       1.0  0.17992705497222541  0.7936793099863737  0.5814824693400736  1.0000
  H   H39       1.0  0.44499970781017606  0.29374185098410527  0.08151035672153026  1.0000
  H   H40       1.0  0.820076360351536  0.2063211355105068  0.4185187714138079  1.0000
  C   C1        1.0  0.2734988849029067  0.35625565754384086  0.9392562105072101  1.0000
  C   C2        1.0  0.5690153062833123  0.1437912733623818  0.5606378759122917  1.0000
  C   C3        1.0  0.7265018519792081  0.6437435985628782  0.06074028584235677  1.0000
  C   C4        1.0  0.4309915133248411  0.856206804898136  0.4393623746813019  1.0000
  C   C5        1.0  0.19560626854043786  0.4815974312673888  0.9985988355202193  1.0000
  C   C6        1.0  0.6755246644056713  0.0184444814229465  0.5012952237595413  1.0000
  C   C7        1.0  0.8043883293929074  0.5184065584005281  0.00139898004856315  1.0000
  C   C8        1.0  0.324476456433665  0.9815500505212217  0.49870677837343874  1.0000
  C   C9        1.0  0.2560610756789081  0.5921436822778858  0.9529990501010132  1.0000
  C   C10       1.0  0.8010619432273531  0.9078428715649522  0.5468473173979475  1.0000
  C   C11       1.0  0.7439333068502806  0.4078579435162979  0.04700020572369816  1.0000
  C   C12       1.0  0.1989377494108029  0.0921492950270633  0.45315503591127265  1.0000
  C   C13       1.0  0.37000388470606577  0.5310752760332136  0.8665543605220306  1.0000
  C   C14       1.0  0.7677578446660369  0.9688785325342267  0.6332926946350382  1.0000
  C   C15       1.0  0.6299902590114289  0.46893107841995635  0.13344267589216932  1.0000
  C   C16       1.0  0.23224093954041097  0.031118363628294808  0.36670810036501666  1.0000
  C   C17       1.0  0.45581047154710347  0.6065586128355847  0.7961649987930597  1.0000
  C   C18       1.0  0.8587810427805145  0.893522345053775  0.7036681102087099  1.0000
  C   C19       1.0  0.5441884531382328  0.3934441951177662  0.20383373175902608  1.0000
  C   C20       1.0  0.14121993291330898  0.10647218239395069  0.2963306055513754  1.0000
  C   C21       1.0  0.5726387140816346  0.5447673023309818  0.7130978015571399  1.0000
  C   C22       1.0  0.8308894623133799  0.9553529874408045  0.7867373780879702  1.0000
  C   C23       1.0  0.42736338074303176  0.4552319597506056  0.28690307024501027  1.0000
  C   C24       1.0  0.1691098276266417  0.044645088552087514  0.21326116059225333  1.0000
  C   C25       1.0  0.6652146952138484  0.6190492733392218  0.6422476773165895  1.0000
  C   C26       1.0  0.927025433160552  0.8809626802294943  0.8575992855648946  1.0000
  C   C27       1.0  0.3347862757749526  0.38095235443913833  0.357753076432317  1.0000
  C   C28       1.0  0.07297848789679054  0.1190389450977634  0.14239969886915557  1.0000
  C   C29       1.0  0.7720741666143955  0.5108826353596072  0.5763988951770498  1.0000
  C   C30       1.0  0.8597292793664764  0.988909138258741  0.9236233507346083  1.0000
  C   C31       1.0  0.22792686055875333  0.48911662973999626  0.42360417391830646  1.0000
  C   C32       1.0  0.1402709658179688  0.0110948531099027  0.07637574876920888  1.0000
  C   C33       1.0  0.7424398434998953  0.3738104889136906  0.6083823492648289  1.0000
  C   C34       1.0  0.7248548263180871  0.12593591570932716  0.8917136944105549  1.0000
  C   C35       1.0  0.25755980698980374  0.6261899554493837  0.39161803553236035  1.0000
  C   C36       1.0  0.275146486517862  0.8740680726413005  0.1082832078000492  1.0000
  C   C37       1.0  0.4211948616442246  0.7697714087958616  0.8080866856723431  1.0000
  C   C38       1.0  0.9991808206933331  0.7302695418855407  0.6918109270807516  1.0000
  C   C39       1.0  0.5788020541810897  0.23023140189204838  0.19191402818378114  1.0000
  C   C40       1.0  0.000823339175703229  0.26972735478272364  0.3081902767638097  1.0000
  C   C41       1.0  0.3302500581990559  0.8979217085812934  0.7508475324332975  1.0000
  C   C42       1.0  0.9790587510075361  0.6021534420001089  0.7490253414079858  1.0000
  C   C43       1.0  0.6697519617003425  0.10208110141739014  0.24915271517681956  1.0000
  C   C44       1.0  0.020942149761012444  0.3978446333647128  0.2509727501600664  1.0000
  C   C45       1.0  0.32145846357799046  0.045325251371842505  0.7528203520702731  1.0000
  C   C46       1.0  0.11960234099275648  0.4546973014162958  0.7470686668189969  1.0000
  C   C47       1.0  0.6785450407069364  0.9546775613002438  0.24718185971005358  1.0000
  C   C48       1.0  0.8803974546808537  0.5453019544069662  0.25292761554140225  1.0000
  C   C49       1.0  0.46885332074631286  0.9529048580175185  0.8691721565869769  1.0000
  C   C50       1.0  0.2907924209818236  0.5469640322380301  0.6306862996558137  1.0000
  C   C51       1.0  0.5311467652183239  0.04709440679863519  0.13083069851921178  1.0000
  C   C52       1.0  0.7092092055910871  0.45303167953651513  0.3693134461573349  1.0000
  C   C53       1.0  0.48589832524041326  0.8006837808912265  0.8709457742457046  1.0000
  C   C54       1.0  0.15758507289854898  0.6993117699563527  0.6289914348038009  1.0000
  C   C55       1.0  0.514098375180737  0.1993166659229431  0.12905637986634835  1.0000
  C   C56       1.0  0.8424178554325509  0.3006863104718249  0.3710103711154885  1.0000
  N   N1        1.0  0.3778326758234486  0.3844240798917866  0.860976463680224  1.0000
  N   N2        1.0  0.6234251768451747  0.11554907546526037  0.6388971523013253  1.0000
  N   N3        1.0  0.6221642025584234  0.6155799082365475  0.13902024367504132  1.0000
  N   N4        1.0  0.3765769929047523  0.884446638699231  0.36110434369285827  1.0000
  N   N5        1.0  0.623201136641058  0.39413303757063284  0.688697330549928  1.0000
  N   N6        1.0  0.7062624248836684  0.10582278850720432  0.8112869766266256  1.0000
  N   N7        1.0  0.37679550759574476  0.6058697719223006  0.31130250821568234  1.0000
  N   N8        1.0  0.29373952479547694  0.8941764690779408  0.18871060880263704  1.0000
  N   N9        1.0  0.3938139103924317  0.0732934488795891  0.8089102516808353  1.0000
  N   N10       1.0  0.2758775532049856  0.42659542626664393  0.6909171826915637  1.0000
  N   N11       1.0  0.6061839840848297  0.9267081846513534  0.19109468266532295  1.0000
  N   N12       1.0  0.72412296827298  0.5734014659663345  0.3090807539139389  1.0000
