data_image0
_chemical_formula_structural       Cd2H40C38N8O8
_chemical_formula_sum              "Cd2 H40 C38 N8 O8"
_cell_length_a       9.748994729971583
_cell_length_b       10.091382755750743
_cell_length_c       12.048502721416895
_cell_angle_alpha    103.9449996522359
_cell_angle_beta     109.85185964472313
_cell_angle_gamma    97.34367263007067

_space_group_name_H-M_alt    "P 1"
_space_group_IT_number       1

loop_
  _space_group_symop_operation_xyz
  'x, y, z'

loop_
  _atom_site_type_symbol
  _atom_site_label
  _atom_site_symmetry_multiplicity
  _atom_site_fract_x
  _atom_site_fract_y
  _atom_site_fract_z
  _atom_site_occupancy
  Cd  Cd1       1.0  0.43188034116352725  0.022756041032216998  0.33916196301596085  1.0000
  Cd  Cd2       1.0  0.5681232311292845  0.9772455389173944  0.660841568395483  1.0000
  H   H1        1.0  0.2565920882020265  0.739736880681903  0.1429342857500089  1.0000
  H   H2        1.0  0.7434102367639854  0.26025942195576585  0.857064549809422  1.0000
  H   H3        1.0  0.37920867482155535  0.47283743208932794  0.3326425686961229  1.0000
  H   H4        1.0  0.6207881955626606  0.5271588435463811  0.6673572585578567  1.0000
  H   H5        1.0  0.2826897068361163  0.12969796614029147  0.6020043387277808  1.0000
  H   H6        1.0  0.7173164149910819  0.8703005217826529  0.3980017744774996  1.0000
  H   H7        1.0  0.1778637370090692  0.35960273350160316  0.573638388664861  1.0000
  H   H8        1.0  0.8221166143208194  0.6403975337945907  0.42635354939780257  1.0000
  H   H9        1.0  0.9663453312850336  0.9554174838123899  0.7978296949166716  1.0000
  H   H10       1.0  0.033655043826549  0.04457982309846639  0.20216631376753463  1.0000
  H   H11       1.0  0.9871541566708757  0.7874674284041348  0.7342144936431579  1.0000
  H   H12       1.0  0.01285036131958612  0.21252891088291656  0.26578660938146464  1.0000
  H   H13       1.0  0.02299069358351599  0.16537687349467228  0.5722014823849831  1.0000
  H   H14       1.0  0.9770129885518134  0.8346205287786647  0.4278020902204532  1.0000
  H   H15       1.0  0.018781814479972098  0.20720369502412686  0.7228536449923053  1.0000
  H   H16       1.0  0.9812251641868528  0.7927937783786375  0.27715499390029646  1.0000
  H   H17       1.0  0.9069186873957807  0.0470498917333586  0.6094102234486413  1.0000
  H   H18       1.0  0.09308535824431624  0.9529443980193049  0.39059532857481827  1.0000
  H   H19       1.0  0.20237772610568777  0.7731163698827856  0.5304341177292357  1.0000
  H   H20       1.0  0.7976247496748885  0.2268851917421415  0.4695682799496125  1.0000
  H   H21       1.0  0.1193262622179461  0.5958503926147856  0.6205629228431916  1.0000
  H   H22       1.0  0.8806666021122851  0.4041520773212426  0.3794320420110252  1.0000
  H   H23       1.0  0.4823050716730464  0.8226168589669101  0.806952970269968  1.0000
  H   H24       1.0  0.5176972602877968  0.17737945982612763  0.1930475303788484  1.0000
  H   H25       1.0  0.31530920139286417  0.7355084120227459  0.8100194911284075  1.0000
  H   H26       1.0  0.6846928943927965  0.2644868820030979  0.18998323401982725  1.0000
  H   H27       1.0  0.4299553599087319  0.8849881220141571  0.9348744903790659  1.0000
  H   H28       1.0  0.5700521974535634  0.11500721516902249  0.0651289081639987  1.0000
  H   H29       1.0  0.27552498029550077  0.20703865584381018  0.14848419360952647  1.0000
  H   H30       1.0  0.7244869446316927  0.7929660539810329  0.8515131075296124  1.0000
  H   H31       1.0  0.11597054663329233  0.16945671828471381  0.0079775582601158  1.0000
  H   H32       1.0  0.8840417348038444  0.8305448628640945  0.9920200572076608  1.0000
  H   H33       1.0  0.2955100582028792  0.1724796346172681  0.0027448572473857853  1.0000
  H   H34       1.0  0.7045001400523319  0.8275177322058836  0.9972505319491987  1.0000
  H   H35       1.0  0.1042872590158694  0.5376893805409182  0.9452067414723614  1.0000
  H   H36       1.0  0.8956959423997262  0.46230453680964695  0.0547747719977352  1.0000
  H   H37       1.0  0.11939567488671088  0.577815053586107  0.8137486043039599  1.0000
  H   H38       1.0  0.8805977951213819  0.42219468448313785  0.18624131094738758  1.0000
  H   H39       1.0  0.95082886572947  0.5789122333837966  0.8386593638142442  1.0000
  H   H40       1.0  0.04916205474422949  0.42110059671211525  0.16132796964327406  1.0000
  C   C1        1.0  0.3444241421398644  0.7385400946743914  0.36964050971597107  1.0000
  C   C2        1.0  0.6555799199903803  0.26146357519802166  0.6303627354200784  1.0000
  C   C3        1.0  0.3227564718259258  0.4997970863418217  0.39609545962674986  1.0000
  C   C4        1.0  0.6772381061835662  0.5002033545538395  0.6039045566021173  1.0000
  C   C5        1.0  0.1325905573680188  0.7562120779347266  0.9602520845318238  1.0000
  C   C6        1.0  0.8674094752232763  0.2437883899629014  0.039746940002494596  1.0000
  C   C7        1.0  0.2826841690597419  0.40179982061690817  0.4508882246613126  1.0000
  C   C8        1.0  0.7172992391290549  0.5981994849638426  0.5491101716432423  1.0000
  C   C9        1.0  0.16131828180463967  0.9557410897233537  0.754388903103276  1.0000
  C   C10       1.0  0.8386867295206814  0.0442573475641765  0.2456127461906447  1.0000
  C   C11       1.0  0.20097222030616285  0.9907665757520336  0.037246863461767504  1.0000
  C   C12       1.0  0.7990335205291927  0.0092349843031698  0.9627531076020331  1.0000
  C   C13       1.0  0.14138601597777983  0.0510260051983167  0.6861150564761116  1.0000
  C   C14       1.0  0.8586146372779525  0.9489724234119306  0.3138887182449536  1.0000
  C   C15       1.0  0.3199890944579664  0.2611981917271038  0.4237995552702428  1.0000
  C   C16       1.0  0.6799981959526277  0.738799064918858  0.5762003320613188  1.0000
  C   C17       1.0  0.29504142950448636  0.6336703430624764  0.4255542873689534  1.0000
  C   C18       1.0  0.7049544986794845  0.3663311813134769  0.5744488008165405  1.0000
  C   C19       1.0  0.20997262720144516  0.43716576484461467  0.5324835078573072  1.0000
  C   C20       1.0  0.7900110171625344  0.562834565503323  0.46751266394782925  1.0000
  C   C21       1.0  0.05056975579319102  0.8919077085782166  0.7995597818829622  1.0000
  C   C22       1.0  0.9494333126725183  0.10809174913786278  0.20044070562511246  1.0000
  C   C23       1.0  0.015949404628955197  0.12109716070386868  0.6453355440078424  1.0000
  C   C24       1.0  0.9840534416512271  0.878901304555754  0.3546704981784075  1.0000
  C   C25       1.0  0.22286694121976322  0.6683906579466665  0.5075327330057604  1.0000
  C   C26       1.0  0.7771276507793846  0.3316098152597248  0.4924706134018704  1.0000
  C   C27       1.0  0.3048268150086386  0.9302864017321754  0.7685238923367024  1.0000
  C   C28       1.0  0.6951820855333039  0.06971000277593478  0.23148091307360352  1.0000
  C   C29       1.0  0.17893856170073263  0.5695318610056219  0.5594203860421985  1.0000
  C   C30       1.0  0.8210483547128434  0.4304684839279602  0.44057502423726896  1.0000
  C   C31       1.0  0.12235612409208575  0.8788584942897655  0.9265695639489451  1.0000
  C   C32       1.0  0.877645255176269  0.1211430490104703  0.07343169999730753  1.0000
  C   C33       1.0  0.3875869956046358  0.8390523293085791  0.8336784110794468  1.0000
  C   C34       1.0  0.6124199690725335  0.1609451117834482  0.16632689763439157  1.0000
  C   C35       1.0  0.2239140519986407  0.14361123636182777  0.05076515662377548  1.0000
  C   C36       1.0  0.776097139921106  0.856390342617658  0.9492329902007908  1.0000
  C   C37       1.0  0.07355602193509012  0.6051543216566273  0.8858638028879326  1.0000
  C   C38       1.0  0.9264378080803655  0.3948522958142604  0.11412725923674563  1.0000
  N   N1        1.0  0.2557128854343347  0.9390288525681072  0.13277213676735758  1.0000
  N   N2        1.0  0.744294541100956  0.060970613825254795  0.8672262253135725  1.0000
  N   N3        1.0  0.21256642506409665  0.7974694322265563  0.0839626652348215  1.0000
  N   N4        1.0  0.7874374827541717  0.2025289705809215  0.9160361852371252  1.0000
  N   N5        1.0  0.3663877004509218  0.0039798010397405  0.7105121010270565  1.0000
  N   N6        1.0  0.6336215905781871  0.9960228953004914  0.28949487454794104  1.0000
  N   N7        1.0  0.2665978409423673  0.07682335488984647  0.6621799926997055  1.0000
  N   N8        1.0  0.7334063415226381  0.9231761615393307  0.33782579126440737  1.0000
  O   O1        1.0  0.3742763168412396  0.8698147815909181  0.4329991013172219  1.0000
  O   O2        1.0  0.6257253335764476  0.13018786725334758  0.5670082635765111  1.0000
  O   O3        1.0  0.3930617497992159  0.23939900098139333  0.352885585599985  1.0000
  O   O4        1.0  0.6069264933038668  0.7605930311573772  0.6471135384341336  1.0000
  O   O5        1.0  0.35378191382591245  0.6954851410665981  0.26600141382654385  1.0000
  O   O6        1.0  0.6462254273487601  0.3045185595468212  0.734002734873222  1.0000
  O   O7        1.0  0.2798524655423975  0.16997715901053567  0.4697038484384208  1.0000
  O   O8        1.0  0.7201421299541623  0.8300233222735398  0.5303003305139029  1.0000
