data_image0
_chemical_formula_structural       Cd4H40C20N8O24
_chemical_formula_sum              "Cd4 H40 C20 N8 O24"
_cell_length_a       8.155586392511266
_cell_length_b       8.155582074616778
_cell_length_c       14.023012653218192
_cell_angle_alpha    83.97063414165731
_cell_angle_beta     83.97056303766053
_cell_angle_gamma    73.24945931247791

_space_group_name_H-M_alt    "P 1"
_space_group_IT_number       1

loop_
  _space_group_symop_operation_xyz
  'x, y, z'

loop_
  _atom_site_type_symbol
  _atom_site_label
  _atom_site_symmetry_multiplicity
  _atom_site_fract_x
  _atom_site_fract_y
  _atom_site_fract_z
  _atom_site_occupancy
  Cd  Cd1       1.0  0.9497485174194011  0.7827719206833803  0.33146973549936126  1.0000
  Cd  Cd2       1.0  0.21722788266232843  0.050252230434367086  0.16852957944431776  1.0000
  Cd  Cd3       1.0  0.05025120442231669  0.21722807983504566  0.6685309188425419  1.0000
  Cd  Cd4       1.0  0.782773050467604  0.949747763560751  0.8314695683574342  1.0000
  H   H1        1.0  0.4390215260045949  0.7873659212986865  0.4688390320325198  1.0000
  H   H2        1.0  0.21263221777616087  0.5609782045680376  0.0311606542054008  1.0000
  H   H3        1.0  0.5609773193194554  0.21263276480951984  0.5311603418524768  1.0000
  H   H4        1.0  0.7873662744955255  0.43902178418964155  0.9688400827837567  1.0000
  H   H5        1.0  0.43148005441416615  0.6059951052781258  0.41447697506577436  1.0000
  H   H6        1.0  0.39400449195026965  0.5685188239805258  0.0855233189683346  1.0000
  H   H7        1.0  0.5685184287166154  0.39400487433752557  0.5855230499769419  1.0000
  H   H8        1.0  0.605994858557267  0.431482460903318  0.9144772745848397  1.0000
  H   H9        1.0  0.24669718190227025  0.6671277902985507  0.5732092253858241  1.0000
  H   H10       1.0  0.33287319569174667  0.7533032912555626  0.9267898396871457  1.0000
  H   H11       1.0  0.7533025307985356  0.3328722010778478  0.4267907170096379  1.0000
  H   H12       1.0  0.6671265170090592  0.24669670012083597  0.07321010270831611  1.0000
  H   H13       1.0  0.12397461914294894  0.8619141384523274  0.516350371793699  1.0000
  H   H14       1.0  0.13808672989093662  0.8760258387708715  0.9836488208926821  1.0000
  H   H15       1.0  0.8760259426527952  0.13808713990820104  0.4836487152193172  1.0000
  H   H16       1.0  0.8619126114756882  0.12397543697093737  0.016351060714036695  1.0000
  H   H17       1.0  0.24527759409924235  0.4029071134633708  0.525575960301694  1.0000
  H   H18       1.0  0.5970948087921926  0.7547215750144574  0.974424457282879  1.0000
  H   H19       1.0  0.7547217564082943  0.5970941714204726  0.47442463325148054  1.0000
  H   H20       1.0  0.402906495671914  0.24527713461525016  0.025574751307615908  1.0000
  H   H21       1.0  0.2678502619848829  0.45006546674498776  0.3988346967090379  1.0000
  H   H22       1.0  0.5499344694283722  0.7321499613837048  0.10116477492755391  1.0000
  H   H23       1.0  0.7321494507159301  0.5499345246314107  0.601165245686424  1.0000
  H   H24       1.0  0.45006609236737205  0.26785131697682363  0.8988343120854623  1.0000
  H   H25       1.0  0.8718603426407939  0.7799877498298002  0.5624109816822553  1.0000
  H   H26       1.0  0.2200129462594589  0.1281391095785196  0.937587979036202  1.0000
  H   H27       1.0  0.1281405996300435  0.2200122533073454  0.4375888780659523  1.0000
  H   H28       1.0  0.7799879868704664  0.8718608844165983  0.06241116876555712  1.0000
  H   H29       1.0  0.008505341980701112  0.5976586976067324  0.6221847324239604  1.0000
  H   H30       1.0  0.40234251930142767  0.9914933416384242  0.8778144995321071  1.0000
  H   H31       1.0  0.9914943707201117  0.40234129376966615  0.3778152099714944  1.0000
  H   H32       1.0  0.5976584138285049  0.008506652356693702  0.12218464826965199  1.0000
  H   H33       1.0  0.7802405576656496  0.5836033446643751  0.24361567515531854  1.0000
  H   H34       1.0  0.41639577057365773  0.21975786904466327  0.25638525537486595  1.0000
  H   H35       1.0  0.21975915503516322  0.41639664671202326  0.7563842672401434  1.0000
  H   H36       1.0  0.5836043317431461  0.7802408562503941  0.7436161717022285  1.0000
  H   H37       1.0  0.6300860652063135  0.7281415183326273  0.2921168015558777  1.0000
  H   H38       1.0  0.27185716869986726  0.3699137127158848  0.20788417775253273  1.0000
  H   H39       1.0  0.369912798399561  0.27185718605964126  0.7078839962220227  1.0000
  H   H40       1.0  0.7281413327127311  0.6300862851838288  0.7921172711830806  1.0000
  C   C1        1.0  0.3119616389799378  0.8464841193377735  0.3412682586391256  1.0000
  C   C2        1.0  0.15351359387475583  0.68804300038542  0.15873048560610667  1.0000
  C   C3        1.0  0.688040523720019  0.1535158864180914  0.658730806515379  1.0000
  C   C4        1.0  0.846483775253482  0.3119608323264629  0.841269357070395  1.0000
  C   C5        1.0  0.3535702069096232  0.7344639340161975  0.43311335543297963  1.0000
  C   C6        1.0  0.26553484321605936  0.646430082199103  0.06688697646875852  1.0000
  C   C7        1.0  0.6464286566962443  0.26553477037607104  0.5668874423449138  1.0000
  C   C8        1.0  0.7344632777214528  0.3535711909239864  0.9331136997316631  1.0000
  C   C9        1.0  0.20004853843182963  0.7302700353376748  0.5037486646564631  1.0000
  C   C10       1.0  0.2697310644592222  0.7999516349125881  0.9962504538684056  1.0000
  C   C11       1.0  0.7999511742689763  0.2697299560387235  0.49625127773899885  1.0000
  C   C12       1.0  0.7302694973365291  0.20004964344794016  0.0037486331446175123  1.0000
  C   C13       1.0  0.1744584603894523  0.45734576655536324  0.46141067937859487  1.0000
  C   C14       1.0  0.5426548722601013  0.825541444340942  0.03858880434790278  1.0000
  C   C15       1.0  0.8255408809771723  0.5426555091864458  0.538589202228124  1.0000
  C   C16       1.0  0.4573460517289191  0.17445854051214837  0.9614096315074007  1.0000
  C   C17       1.0  0.945830402703308  0.645724470388842  0.5547871087396529  1.0000
  C   C18       1.0  0.3542759700277145  0.05416997572898909  0.9452117294442813  1.0000
  C   C19       1.0  0.05417053956752943  0.3542755327483106  0.44521275100855456  1.0000
  C   C20       1.0  0.6457249539612987  0.9458300091241014  0.054786706411022144  1.0000
  N   N1        1.0  0.0810576962758703  0.6400486627973404  0.4742162647268699  1.0000
  N   N2        1.0  0.35995252663312277  0.9189415600342128  0.025783328789003714  1.0000
  N   N3        1.0  0.9189420164249424  0.3599513285790579  0.5257836776685849  1.0000
  N   N4        1.0  0.6400484064968026  0.0810584339609051  0.9742158190127554  1.0000
  N   N5        1.0  0.6429603653695537  0.058860536033172685  0.3553861786677288  1.0000
  N   N6        1.0  0.9411357578079207  0.3570417623593371  0.1446131220394946  1.0000
  N   N7        1.0  0.35703886042959004  0.9411368748516508  0.644613967952452  1.0000
  N   N8        1.0  0.05886443265364971  0.6429608003666016  0.8553859041847858  1.0000
  O   O1        1.0  0.4297613892115494  0.8450046826651626  0.2737185066782857  1.0000
  O   O2        1.0  0.1549938628035079  0.5702379597078249  0.2262826292635367  1.0000
  O   O3        1.0  0.5702367408668679  0.15499659959996137  0.7262828814685918  1.0000
  O   O4        1.0  0.8450026572297917  0.4297645860199281  0.7737180687954037  1.0000
  O   O5        1.0  0.1586653286785236  0.9434042210167417  0.33232605752833416  1.0000
  O   O6        1.0  0.056595583894683485  0.8413352555963695  0.16767291103167284  1.0000
  O   O7        1.0  0.841331553548045  0.05659703120356598  0.6676739893728936  1.0000
  O   O8        1.0  0.9434042352326982  0.15866859149497964  0.8323260544038718  1.0000
  O   O9        1.0  0.7062350386425891  0.9592433379672155  0.4273581683424013  1.0000
  O   O10       1.0  0.0407531702762327  0.29377046703737614  0.0726412063127313  1.0000
  O   O11       1.0  0.293765416726579  0.04075408467836179  0.5726418956305321  1.0000
  O   O12       1.0  0.9592477719946045  0.7062295360997694  0.9273586534354763  1.0000
  O   O13       1.0  0.7237669027718425  0.039982585580624196  0.27316871386103964  1.0000
  O   O14       1.0  0.9600160494475887  0.276235369668548  0.22683109721250364  1.0000
  O   O15       1.0  0.2762372595892372  0.9600148906312711  0.7268325260630347  1.0000
  O   O16       1.0  0.03998415929579121  0.7237672113414532  0.7731693529046806  1.0000
  O   O17       1.0  0.502134413388795  0.17303989764789654  0.36701412270736  1.0000
  O   O18       1.0  0.8269569572369165  0.4978650665582975  0.1329854123188312  1.0000
  O   O19       1.0  0.4978660328394682  0.8269575158556461  0.6329852293191252  1.0000
  O   O20       1.0  0.17304815150476574  0.5021375432106507  0.8670132833164457  1.0000
  O   O21       1.0  0.7477781268839861  0.6491295305837069  0.3020475086681174  1.0000
  O   O22       1.0  0.3508691205410558  0.2522232080463738  0.19795329578867177  1.0000
  O   O23       1.0  0.25222110805606235  0.3508678894431511  0.6979533498985191  1.0000
  O   O24       1.0  0.6491314686774174  0.7477780977402516  0.8020479270636968  1.0000
