data_image0
_chemical_formula_structural       Mn2H24C36N20
_chemical_formula_sum              "Mn2 H24 C36 N20"
_cell_length_a       9.211168148521077
_cell_length_b       9.944757435039866
_cell_length_c       9.83643912458657
_cell_angle_alpha    89.99980294193695
_cell_angle_beta     106.64322758919774
_cell_angle_gamma    90.0003040808511

_space_group_name_H-M_alt    "P 1"
_space_group_IT_number       1

loop_
  _space_group_symop_operation_xyz
  'x, y, z'

loop_
  _atom_site_type_symbol
  _atom_site_label
  _atom_site_symmetry_multiplicity
  _atom_site_fract_x
  _atom_site_fract_y
  _atom_site_fract_z
  _atom_site_occupancy
  Mn  Mn1       1.0  1.1366372235007569e-06  0.5000012885243096  0.49999800121449317  1.0000
  Mn  Mn2       1.0  0.5000012939968883  0.9999967693066414  0.999999616162718  1.0000
  H   H1        1.0  0.5852669335347187  0.4553717067209462  0.7773117795759815  1.0000
  H   H2        1.0  0.9147434762388829  0.9553827955275127  0.7226917512461527  1.0000
  H   H3        1.0  0.41473223131512776  0.5446293103942923  0.22268911624664162  1.0000
  H   H4        1.0  0.08525796317395869  0.044618221590589306  0.2773107561366857  1.0000
  H   H5        1.0  0.762752100482487  0.769626793223779  0.40759422115277016  1.0000
  H   H6        1.0  0.737253064451238  0.26962814382731903  0.09240738272108467  1.0000
  H   H7        1.0  0.23724704754172876  0.2303712072300641  0.5924046369622502  1.0000
  H   H8        1.0  0.2627483581461759  0.7303738788491574  0.9075930869499089  1.0000
  H   H9        1.0  0.531837784891266  0.9094346285316707  0.36838726095852786  1.0000
  H   H10       1.0  0.9681704312054362  0.40943698274093526  0.1316238100484455  1.0000
  H   H11       1.0  0.4681613631355006  0.09056437747711503  0.6316115971554339  1.0000
  H   H12       1.0  0.031831008199759495  0.5905610177123323  0.868378697337583  1.0000
  H   H13       1.0  0.3411296066358886  0.8629692603111894  0.4951044762518321  1.0000
  H   H14       1.0  0.1588803574906592  0.3629805785674521  0.004902521989883715  1.0000
  H   H15       1.0  0.658869541393436  0.13703075125253866  0.5048943818610567  1.0000
  H   H16       1.0  0.8411233564826331  0.6370194329985567  0.9951015969542354  1.0000
  H   H17       1.0  0.37513074602192387  0.6728940270817676  0.6675939101628857  1.0000
  H   H18       1.0  0.12488705485480268  0.17291110122805264  0.8324129187382354  1.0000
  H   H19       1.0  0.6248684104189408  0.3271069900351905  0.3324059668043374  1.0000
  H   H20       1.0  0.8751177753800689  0.8270899158986187  0.16758945884644308  1.0000
  H   H21       1.0  0.8360941520941834  0.3748958161307742  0.7391285682808828  1.0000
  H   H22       1.0  0.663919189741037  0.8749045341147481  0.7608688895754482  1.0000
  H   H23       1.0  0.1639038712645657  0.625103189874011  0.2608710123360609  1.0000
  H   H24       1.0  0.33608336593593435  0.12509849411895865  0.23913187644688344  1.0000
  C   C1        1.0  0.6994509548764042  0.6406327847213477  0.5596323517116985  1.0000
  C   C2        1.0  0.8005566997403191  0.14064331738130423  0.9403684909098969  1.0000
  C   C3        1.0  0.3005482015619023  0.3593672268406678  0.44036752525659034  1.0000
  C   C4        1.0  0.1994424314837744  0.8593617219605748  0.0596283294868982  1.0000
  C   C5        1.0  0.6799470366477037  0.7485440275343082  0.464463390043548  1.0000
  C   C6        1.0  0.8200637119447478  0.24855000185449683  0.03554279667971371  1.0000
  C   C7        1.0  0.3200532528676091  0.2514559840299952  0.535536783277152  1.0000
  C   C8        1.0  0.1799365775807686  0.7514540319295763  0.9644573766367371  1.0000
  C   C9        1.0  0.5499713042406639  0.8266250842555751  0.44367592679238754  1.0000
  C   C10       1.0  0.9500375827608567  0.32663263339819093  0.05633052117536157  1.0000
  C   C11       1.0  0.4500278521976496  0.1733749273064333  0.5563239501759014  1.0000
  C   C12       1.0  0.049963839836564695  0.6733693892782855  0.9436699484956249  1.0000
  C   C13       1.0  0.44160048419966097  0.799648671709669  0.5160358049662362  1.0000
  C   C14       1.0  0.058408903554301596  0.29965987448632353  0.983969404275868  1.0000
  C   C15       1.0  0.558399805318203  0.20035234540956998  0.48396436835340495  1.0000
  C   C16       1.0  0.9415913943725511  0.700341142631203  0.016031787899166237  1.0000
  C   C17       1.0  0.45948907812363143  0.6940341102398051  0.6124790790973335  1.0000
  C   C18       1.0  0.04052082279253  0.1940525923312393  0.887516460989758  1.0000
  C   C19       1.0  0.5405112113942323  0.3059669068794407  0.38752109422230774  1.0000
  C   C20       1.0  0.9594805913984528  0.8059504359018915  0.11248298982476963  1.0000
  C   C21       1.0  0.5896969028366429  0.6154764221485466  0.6326196535028217  1.0000
  C   C22       1.0  0.9103139813431227  0.11549076059426264  0.8673770370243546  1.0000
  C   C23       1.0  0.4103011289361972  0.384524594964411  0.3673809459673905  1.0000
  C   C24       1.0  0.08968628295542658  0.8845132731949552  0.1326200797259105  1.0000
  C   C25       1.0  0.7728476042814663  0.46288280757755024  0.6897637582762995  1.0000
  C   C26       1.0  0.7271639430382207  0.9628926744251701  0.8102359776147735  1.0000
  C   C27       1.0  0.22715155215939123  0.5371182095394078  0.3102361186909306  1.0000
  C   C28       1.0  0.272837471155313  0.0371113593629033  0.1897634731986955  1.0000
  C   C29       1.0  0.9312932982085584  0.19191571876744726  0.4447938262200495  1.0000
  C   C30       1.0  0.5686907742955043  0.6918985240373206  0.05516592865879492  1.0000
  C   C31       1.0  0.06870806550808338  0.808079265036419  0.5551995114706045  1.0000
  C   C32       1.0  0.4313083905517914  0.30810148752298266  0.944834967164894  1.0000
  C   C33       1.0  0.7824341164459482  0.04730979010314942  0.28178471083061407  1.0000
  C   C34       1.0  0.7175619890826326  0.5473410397996405  0.21821528807043225  1.0000
  C   C35       1.0  0.21756614782964329  0.9526851936915793  0.7182124059292079  1.0000
  C   C36       1.0  0.2824371757595614  0.45265696065077077  0.7817856077553742  1.0000
  N   N1        1.0  0.8124734457543283  0.5428085905047696  0.5980299398418579  1.0000
  N   N2        1.0  0.6875337041288603  0.042816686254390404  0.9019700905281454  1.0000
  N   N3        1.0  0.18752457760442806  0.45719041550001566  0.4019696407750785  1.0000
  N   N4        1.0  0.3124654439106677  0.9571873475291142  0.09802876758050158  1.0000
  N   N5        1.0  0.6418921020971808  0.5029206229656682  0.7152128029881125  1.0000
  N   N6        1.0  0.8581171199903038  0.0029349856881566005  0.7847889231774728  1.0000
  N   N7        1.0  0.35810706275266563  0.49708039414957744  0.28478809283451056  1.0000
  N   N8        1.0  0.1418831695352125  0.9970690480959165  0.215211250138978  1.0000
  N   N9        1.0  0.9129503745635359  0.08940150250335681  0.360081207879972  1.0000
  N   N10       1.0  0.5870368798703466  0.5894193039218366  0.1399163313197818  1.0000
  N   N11       1.0  0.08705105641991648  0.9105914701769109  0.6399202806559643  1.0000
  N   N12       1.0  0.41296116872302235  0.4105827187426385  0.8600863058601576  1.0000
  N   N13       1.0  0.9612585226305725  0.283606179219234  0.5242330395966377  1.0000
  N   N14       1.0  0.5387164850962165  0.7835793599901494  0.9756967567106045  1.0000
  N   N15       1.0  0.03874059176024499  0.7163928267964081  0.4757617430957382  1.0000
  N   N16       1.0  0.4612837960075566  0.21641964602091696  0.02430239775576134  1.0000
  N   N17       1.0  0.6712806444324997  0.9994444820587275  0.20628363164795624  1.0000
  N   N18       1.0  0.8287155478055084  0.49949989735359435  0.29372195161804626  1.0000
  N   N19       1.0  0.32871626265956877  0.0005515072755102001  0.7937176903305455  1.0000
  N   N20       1.0  0.17128135087757093  0.5004960919823561  0.7062783515050695  1.0000
