data_image0
_chemical_formula_structural       Zn8H48C48N40O16
_chemical_formula_sum              "Zn8 H48 C48 N40 O16"
_cell_length_a       13.15459528605898
_cell_length_b       13.157108610586663
_cell_length_c       16.346861751010586
_cell_angle_alpha    113.74047304348365
_cell_angle_beta     113.73756418702473
_cell_angle_gamma    89.9731199351117

_space_group_name_H-M_alt    "P 1"
_space_group_IT_number       1

loop_
  _space_group_symop_operation_xyz
  'x, y, z'

loop_
  _atom_site_type_symbol
  _atom_site_label
  _atom_site_symmetry_multiplicity
  _atom_site_fract_x
  _atom_site_fract_y
  _atom_site_fract_z
  _atom_site_occupancy
  Zn  Zn1       1.0  0.9181631674336543  0.3691251991326823  0.3917885017127886  1.0000
  Zn  Zn2       1.0  0.47359880356396633  0.02293917139757439  0.3919102197554949  1.0000
  Zn  Zn3       1.0  0.3690900640112602  0.4738382545945328  0.391781826935123  1.0000
  Zn  Zn4       1.0  0.02280788746484303  0.9181650477419011  0.39187758230638525  1.0000
  Zn  Zn5       1.0  0.08183625061252534  0.6308814850212913  0.6082114729914919  1.0000
  Zn  Zn6       1.0  0.5263991725172017  0.977057539278441  0.6080883241553962  1.0000
  Zn  Zn7       1.0  0.630908492156422  0.5261619410228633  0.6082181339393599  1.0000
  Zn  Zn8       1.0  0.9771930984731085  0.08184078973439311  0.6081239455178036  1.0000
  H   H1        1.0  0.5840566914867935  0.36636515642727824  0.16055653904276565  1.0000
  H   H2        1.0  0.5767720788181661  0.7947493133294186  0.16093351954852145  1.0000
  H   H3        1.0  0.36646360345733336  0.5765821360562668  0.16055328490714516  1.0000
  H   H4        1.0  0.7945456145976237  0.5843536317743913  0.1609127040943791  1.0000
  H   H5        1.0  0.41595055859643537  0.6336366743526369  0.839443620361976  1.0000
  H   H6        1.0  0.4232250007205919  0.20524971552831767  0.8390675026371496  1.0000
  H   H7        1.0  0.633534380045674  0.42341519460541116  0.8394528399028046  1.0000
  H   H8        1.0  0.20545140577129234  0.41564768214342973  0.839095833391795  1.0000
  H   H9        1.0  0.4199902504982802  0.33046190705927364  0.9997188878360532  1.0000
  H   H10       1.0  0.5800173225506383  0.6695400567039229  0.00028664049861495337  1.0000
  H   H11       1.0  0.3306896063593144  0.5796454683884562  0.9997865014366312  1.0000
  H   H12       1.0  0.6693101602357743  0.42035568426514647  0.0002197077608698723  1.0000
  H   H13       1.0  0.7531951857264544  0.15277685073269962  0.9999396027580049  1.0000
  H   H14       1.0  0.2468079672632085  0.8472200244172682  5.6496544672697796e-05  1.0000
  H   H15       1.0  0.15275370059907797  0.24698253021151828  6.846017547698745e-05  1.0000
  H   H16       1.0  0.8472510952079375  0.7530071370512915  0.9999351554754767  1.0000
  H   H17       1.0  0.019188422911234557  0.3212383892317874  0.6628957342497087  1.0000
  H   H18       1.0  0.6437339219965564  0.34166108221292285  0.662622434685744  1.0000
  H   H19       1.0  0.32113996921228244  0.6438779229231884  0.6627330217854065  1.0000
  H   H20       1.0  0.3418094068892187  0.01897314063366201  0.6628211724656622  1.0000
  H   H21       1.0  0.9808054205004166  0.6787674886532998  0.3371029249329424  1.0000
  H   H22       1.0  0.3562674297396454  0.6583382554144209  0.3373802955651398  1.0000
  H   H23       1.0  0.6788597387945288  0.35613393871204113  0.3372638753864408  1.0000
  H   H24       1.0  0.6581892587026985  0.981018757077088  0.3371746875041594  1.0000
  H   H25       1.0  0.9831426323499314  0.40629008579185205  0.5997562088673333  1.0000
  H   H26       1.0  0.6165947638325306  0.19353962623418403  0.5995082708271299  1.0000
  H   H27       1.0  0.40611029925160097  0.6167548106093577  0.5996092985435906  1.0000
  H   H28       1.0  0.19361386972407482  0.9829304517767525  0.5996943909116296  1.0000
  H   H29       1.0  0.0168524806589828  0.5937144640693645  0.40024118333784026  1.0000
  H   H30       1.0  0.3834090933463229  0.8064605459429824  0.4004927343041371  1.0000
  H   H31       1.0  0.5938867710412339  0.38325423050417134  0.400387509281515  1.0000
  H   H32       1.0  0.8063846298446578  0.01706295055969061  0.4003004634271719  1.0000
  H   H33       1.0  0.9251633596441025  0.0074853869713180825  0.2292530561287834  1.0000
  H   H34       1.0  0.3037448626242707  0.22183199552325306  0.2291014914752623  1.0000
  H   H35       1.0  0.007545618839699785  0.30398585793415833  0.22924928814588694  1.0000
  H   H36       1.0  0.22179875348265196  0.9251444592382042  0.22926315959576016  1.0000
  H   H37       1.0  0.07484237188968715  0.9925165937604417  0.7707506478211384  1.0000
  H   H38       1.0  0.6962542663733159  0.7781641950287365  0.7708998774922049  1.0000
  H   H39       1.0  0.9924504482226196  0.6960178509055622  0.7707490490509412  1.0000
  H   H40       1.0  0.7782037027396598  0.07484973887022758  0.7707356147773864  1.0000
  H   H41       1.0  0.9056587444089671  0.14387999201003512  0.23583290063109538  1.0000
  H   H42       1.0  0.3298160750449455  0.09199978310483203  0.2357252211887371  1.0000
  H   H43       1.0  0.1438842747419996  0.3303103704264174  0.23575886971629245  1.0000
  H   H44       1.0  0.09194234831052475  0.9055797083333845  0.23578780259167328  1.0000
  H   H45       1.0  0.09434566909726524  0.8561186973507162  0.7641652893619832  1.0000
  H   H46       1.0  0.6701848288760743  0.9079980555530156  0.7642779065649208  1.0000
  H   H47       1.0  0.8561132270287216  0.66969582188446  0.7642408894033181  1.0000
  H   H48       1.0  0.908057959933508  0.09441185151134592  0.7642080016979734  1.0000
  C   C1        1.0  0.7798650314427177  0.27957589680031  0.18424636743124273  1.0000
  C   C2        1.0  0.4044771338152628  0.905148100184185  0.18445379339292597  1.0000
  C   C3        1.0  0.279613363811464  0.4047935006616398  0.18439768750511112  1.0000
  C   C4        1.0  0.9050809157593134  0.7798607440197928  0.18430881092231746  1.0000
  C   C5        1.0  0.22014075200432606  0.7204163088645714  0.8157498123475689  1.0000
  C   C6        1.0  0.5955244422019348  0.09485276387811578  0.8155441104577221  1.0000
  C   C7        1.0  0.7203822728502441  0.595200870838866  0.815603587156417  1.0000
  C   C8        1.0  0.09491663626580757  0.2201394354445227  0.8156943625931276  1.0000
  C   C9        1.0  0.6788189470785326  0.26117833869531637  0.09029813617613772  1.0000
  C   C10       1.0  0.4116142702198643  0.8294676829081167  0.09059612086910097  1.0000
  C   C11       1.0  0.2611818308781721  0.411671760168467  0.0903932652477692  1.0000
  C   C12       1.0  0.829393168036148  0.6789003359998772  0.09048407964305476  1.0000
  C   C13       1.0  0.32118539166737026  0.7388198418537826  0.9097016626170172  1.0000
  C   C14       1.0  0.5883898359111583  0.17053366734108977  0.9094026066944707  1.0000
  C   C15       1.0  0.7388175973259763  0.5883195956089935  0.9096092405478373  1.0000
  C   C16       1.0  0.17060252522450967  0.32110082878158147  0.9095223015541619  1.0000
  C   C17       1.0  0.5845428815972653  0.3112449554378569  0.08997885996294734  1.0000
  C   C18       1.0  0.5056707627677922  0.7791974886186992  0.0903460778472223  1.0000
  C   C19       1.0  0.31126032430099565  0.5055406330470333  0.09002408987812062  1.0000
  C   C20       1.0  0.7790133227191659  0.5847420377357864  0.09029377899410915  1.0000
  C   C21       1.0  0.4154630003692361  0.6887527267964798  0.9100199431175681  1.0000
  C   C22       1.0  0.4943301584025617  0.2207993816905613  0.9096520178399173  1.0000
  C   C23       1.0  0.688737866233673  0.49445919239817476  0.9099822405981115  1.0000
  C   C24       1.0  0.22098045426604765  0.4152586352025906  0.9097123866184303  1.0000
  C   C25       1.0  0.492824359659913  0.29100999238308134  0.9997864418237654  1.0000
  C   C26       1.0  0.5071803521408426  0.7089891783238614  0.00021456826669207077  1.0000
  C   C27       1.0  0.2911748595147473  0.5069160661909605  0.9998279281201548  1.0000
  C   C28       1.0  0.7088200457157042  0.49308443498630067  0.00017851371642758557  1.0000
  C   C29       1.0  0.6800342882285406  0.19140757670438552  0.9998720888181083  1.0000
  C   C30       1.0  0.319969710302331  0.8085914392100122  0.00012737311163846636  1.0000
  C   C31       1.0  0.1914017768020457  0.32002743306982506  8.300632416087296e-06  1.0000
  C   C32       1.0  0.808596929051532  0.6799669101497371  0.9999960146703583  1.0000
  C   C33       1.0  0.9741464747095705  0.2372252537352608  0.5152593446631427  1.0000
  C   C34       1.0  0.5410991932533875  0.2780726374065452  0.5150087097224727  1.0000
  C   C35       1.0  0.23705647140737782  0.5414581970629513  0.515088424329697  1.0000
  C   C36       1.0  0.2781611894711559  0.9739214245682817  0.5152025651933483  1.0000
  C   C37       1.0  0.02585154146802168  0.7627807724707053  0.48474008255224976  1.0000
  C   C38       1.0  0.4589019596198014  0.7219263793233355  0.4849921404634898  1.0000
  C   C39       1.0  0.7629412865721149  0.45855666332676037  0.4849090660928183  1.0000
  C   C40       1.0  0.7218382313111604  0.026069311223516068  0.48479235970320644  1.0000
  C   C41       1.0  0.9439686819036409  0.1270245930006908  0.3639921378556962  1.0000
  C   C42       1.0  0.4197075389050298  0.23702618085633986  0.36381880040252673  1.0000
  C   C43       1.0  0.12696792967582837  0.42013203024851015  0.3639110736903177  1.0000
  C   C44       1.0  0.23699313762107715  0.9438879614007335  0.3639474534015504  1.0000
  C   C45       1.0  0.05603281844118157  0.8729810783706782  0.6360090580642747  1.0000
  C   C46       1.0  0.5802941283750299  0.7629726697686222  0.636181717879225  1.0000
  C   C47       1.0  0.873027123998007  0.5798816746939225  0.6360862617868932  1.0000
  C   C48       1.0  0.7630060423777111  0.05610377020510529  0.6360480746640603  1.0000
  N   N1        1.0  0.9868753688295088  0.13506483756248847  0.5120841374313657  1.0000
  N   N2        1.0  0.5251407130305593  0.3770359395058945  0.5118659298431253  1.0000
  N   N3        1.0  0.13497539191852315  0.525370714186991  0.5119757209750941  1.0000
  N   N4        1.0  0.3771120397952431  0.9867115437216257  0.5120073354084411  1.0000
  N   N5        1.0  0.013124347511187233  0.8649423279376833  0.4879186573702937  1.0000
  N   N6        1.0  0.4748601662192866  0.6229622475148702  0.48813464907799176  1.0000
  N   N7        1.0  0.8650213709991021  0.4746409878149862  0.48802162442050456  1.0000
  N   N8        1.0  0.6228871402035451  0.01328018788420591  0.48798819265717  1.0000
  N   N9        1.0  0.9648660565246985  0.06198568510148318  0.41289991662844044  1.0000
  N   N10       1.0  0.4478044915808823  0.3509590834173438  0.41274503293750087  1.0000
  N   N11       1.0  0.061955202645542294  0.44805555854782136  0.4128545434777208  1.0000
  N   N12       1.0  0.35095155777457887  0.9648103868164313  0.41285375548851283  1.0000
  N   N13       1.0  0.03513704455172454  0.9380209651153634  0.5871037068453331  1.0000
  N   N14       1.0  0.5521953341840556  0.6490397841761818  0.5872536609594974  1.0000
  N   N15       1.0  0.9380438414337391  0.5519554515690217  0.5871459031984898  1.0000
  N   N16       1.0  0.6490486757091175  0.03518066421664661  0.5871436576012101  1.0000
  N   N17       1.0  0.9472375946594553  0.23652300013624492  0.4248913832634642  1.0000
  N   N18       1.0  0.4774727511643491  0.188442418892798  0.42470224494762476  1.0000
  N   N19       1.0  0.2363924314995741  0.47796979364630926  0.4247471675492277  1.0000
  N   N20       1.0  0.1884603643667474  0.9470799943930289  0.42486492135095927  1.0000
  N   N21       1.0  0.052764179308709684  0.7634835009442468  0.575110083921359  1.0000
  N   N22       1.0  0.5225285759006794  0.811557267097463  0.5752979364707187  1.0000
  N   N23       1.0  0.7636026887659425  0.5220422462216945  0.575250233526546  1.0000
  N   N24       1.0  0.8115387499523974  0.05290808616650375  0.575128857846849  1.0000
  N   N25       1.0  0.9840272729472729  0.32797410704609586  0.5976555211123867  1.0000
  N   N26       1.0  0.6138837853589719  0.26972344616268634  0.5973461850522596  1.0000
  N   N27       1.0  0.3277410116432052  0.6142184227986647  0.5974423462444278  1.0000
  N   N28       1.0  0.2698349224736629  0.983635496828718  0.5975700478926526  1.0000
  N   N29       1.0  0.015968826954868006  0.6720314273167743  0.40234369051833585  1.0000
  N   N30       1.0  0.38612188866382974  0.7302770574088414  0.4026540956312131  1.0000
  N   N31       1.0  0.6722537847445763  0.3857988002067856  0.4025513691706664  1.0000
  N   N32       1.0  0.7301642912769919  0.016352744179542467  0.4024246713376129  1.0000
  N   N33       1.0  0.9223454525736443  0.08990809319462308  0.2685821128801609  1.0000
  N   N34       1.0  0.3457182068958743  0.1787197872663384  0.2684810307152858  1.0000
  N   N35       1.0  0.08993039947466025  0.34623271882228573  0.26853948363974917  1.0000
  N   N36       1.0  0.17867322931017765  0.9222277545088248  0.26854038621689813  1.0000
  N   N37       1.0  0.07765973988210807  0.9100944020049724  0.7314193741414312  1.0000
  N   N38       1.0  0.6542823568101211  0.821278886756815  0.7315217601749637  1.0000
  N   N39       1.0  0.9100646541991679  0.6537809861201467  0.7314578518374617  1.0000
  N   N40       1.0  0.8213275933407188  0.0777636392309873  0.7314550861685377  1.0000
  O   O1        1.0  0.776391409433323  0.3385546536392993  0.26802859837695087  1.0000
  O   O2        1.0  0.4918373552704053  0.9301638820361615  0.26819910738342395  1.0000
  O   O3        1.0  0.3385497749819989  0.49208885510923744  0.26811085006254837  1.0000
  O   O4        1.0  0.9301140169910339  0.77632770874731  0.26808326701040397  1.0000
  O   O5        1.0  0.22361663776080568  0.6614446985101594  0.7319681427205467  1.0000
  O   O6        1.0  0.5081620555191719  0.0698353121110173  0.7318008584502564  1.0000
  O   O7        1.0  0.661439084039621  0.5079043730718382  0.731890441653391  1.0000
  O   O8        1.0  0.06988548414935977  0.223674788083251  0.7319209965236124  1.0000
  O   O9        1.0  0.8640225888383739  0.23711591462223683  0.1783708844727273  1.0000
  O   O10       1.0  0.3143243905957858  0.941492281115039  0.17858135406904538  1.0000
  O   O11       1.0  0.2373020013535481  0.31482624246609703  0.17868828897612588  1.0000
  O   O12       1.0  0.9414579411041544  0.8640494420640082  0.17839964783426857  1.0000
  O   O13       1.0  0.13597744669436168  0.7628694993926504  0.8216229652828344  1.0000
  O   O14       1.0  0.6856750036912658  0.058509435281131096  0.8214143885334478  1.0000
  O   O15       1.0  0.7627000326368002  0.685160792189194  0.8213117484630883  1.0000
  O   O16       1.0  0.05854240648948662  0.1359498794102549  0.8216062950575775  1.0000
