data_image0
_chemical_formula_structural       Ni6H48C84N12O26
_chemical_formula_sum              "Ni6 H48 C84 N12 O26"
_cell_length_a       15.421794570492521
_cell_length_b       16.438640708941964
_cell_length_c       16.42864193641149
_cell_angle_alpha    120.02009116365818
_cell_angle_beta     89.970862070776
_cell_angle_gamma    90.000027812469

_space_group_name_H-M_alt    "P 1"
_space_group_IT_number       1

loop_
  _space_group_symop_operation_xyz
  'x, y, z'

loop_
  _atom_site_type_symbol
  _atom_site_label
  _atom_site_symmetry_multiplicity
  _atom_site_fract_x
  _atom_site_fract_y
  _atom_site_fract_z
  _atom_site_occupancy
  Ni  Ni1       1.0  0.2499092902199251  0.2681781394416801  0.5363460786064564  1.0000
  Ni  Ni2       1.0  0.24947545563871643  0.2669423484279392  0.73072977524847  1.0000
  Ni  Ni3       1.0  0.24947615821027821  0.4637917181226569  0.7307250119374302  1.0000
  Ni  Ni4       1.0  0.7500099717198198  0.7321630692246544  0.4643184378640584  1.0000
  Ni  Ni5       1.0  0.7500067340335265  0.7320391893599877  0.2676954892299577  1.0000
  Ni  Ni6       1.0  0.7500060327911771  0.5356589162482165  0.2676959089871858  1.0000
  H   H1        1.0  0.44529495987347195  0.3366941850547462  0.40123706139793563  1.0000
  H   H2        1.0  0.44464079734578393  0.06518070352254302  0.6627323907954548  1.0000
  H   H3        1.0  0.44477946924336464  0.5980183085147599  0.9350877275729701  1.0000
  H   H4        1.0  0.9450261378871548  0.6630028251141054  0.5978670227710409  1.0000
  H   H5        1.0  0.9449040582666514  0.9347317213194657  0.33661683033529494  1.0000
  H   H6        1.0  0.9451334364685382  0.4020823910538454  0.06519958516322083  1.0000
  H   H7        1.0  0.555194379815582  0.6632195013525504  0.06540084611735605  1.0000
  H   H8        1.0  0.5550378389427025  0.934862129561658  0.5979392818573998  1.0000
  H   H9        1.0  0.5556425166771888  0.4022187073580099  0.3364010459835853  1.0000
  H   H10       1.0  0.055230874037704304  0.33669985472140246  0.9344047497808888  1.0000
  H   H11       1.0  0.05497699065807641  0.06526192183359568  0.4017443934407083  1.0000
  H   H12       1.0  0.05517579296540732  0.5976899012564941  0.6630241083935432  1.0000
  H   H13       1.0  0.5550332248687654  0.6630852416008962  0.5979469319060087  1.0000
  H   H14       1.0  0.5556452543922891  0.9341889644050454  0.3363965555767407  1.0000
  H   H15       1.0  0.5551943116026692  0.4021706312577464  0.0653942329577859  1.0000
  H   H16       1.0  0.05497317359724011  0.33648035163482604  0.4017416380498275  1.0000
  H   H17       1.0  0.05517370464960441  0.06533295865209947  0.6630247363742825  1.0000
  H   H18       1.0  0.05523288892053562  0.5977001809470294  0.9344063674534695  1.0000
  H   H19       1.0  0.44477875314508714  0.33706378676975385  0.935079229076571  1.0000
  H   H20       1.0  0.4452961836364295  0.064547486106278  0.4012373508702183  1.0000
  H   H21       1.0  0.444638993926823  0.5975530010059558  0.66273588107628  1.0000
  H   H22       1.0  0.9451354518356825  0.6631112019371274  0.06519948227018083  1.0000
  H   H23       1.0  0.9450216724701549  0.9348657305617322  0.5978646142030399  1.0000
  H   H24       1.0  0.9449026185281612  0.4018891106178586  0.33661646698400455  1.0000
  H   H25       1.0  0.24916123293775885  0.0684114814344383  0.3878515528198889  1.0000
  H   H26       1.0  0.2498774849745402  0.31877939134616884  0.9320645772937793  1.0000
  H   H27       1.0  0.25017718951787776  0.6140539442754402  0.6814472878568623  1.0000
  H   H28       1.0  0.7498631588407961  0.9319426732457358  0.6129307588634205  1.0000
  H   H29       1.0  0.749822817024132  0.6810106908078737  0.0678399165408337  1.0000
  H   H30       1.0  0.7498160242760434  0.3871397074992443  0.3191079881147019  1.0000
  H   H31       1.0  0.7498135768838525  0.9319683934108909  0.31910744491188575  1.0000
  H   H32       1.0  0.7498598493011458  0.6809888630317928  0.612930897341613  1.0000
  H   H33       1.0  0.7498220891997606  0.386827984593161  0.06784156182283847  1.0000
  H   H34       1.0  0.25017963704041796  0.0673903696173283  0.6814455834198725  1.0000
  H   H35       1.0  0.24916259630994386  0.3194387391029921  0.38785462031700046  1.0000
  H   H36       1.0  0.24987691430020226  0.6132843942626494  0.9320691375617969  1.0000
  H   H37       1.0  0.24985377224602706  0.9742509299121166  0.21080019844864473  1.0000
  H   H38       1.0  0.24982802330752213  0.2364264691632343  0.026842297108132133  1.0000
  H   H39       1.0  0.25014058692789126  0.7910108394511324  0.7645861244474473  1.0000
  H   H40       1.0  0.7499383644859848  0.02616346878960485  0.7899811259206828  1.0000
  H   H41       1.0  0.7499421223903938  0.7638360229523542  0.9737378723580293  1.0000
  H   H42       1.0  0.7499218869682666  0.2102129402719655  0.2364103696697839  1.0000
  H   H43       1.0  0.749919893135399  0.02619480101635929  0.2364073298661253  1.0000
  H   H44       1.0  0.7499372655539961  0.7638176659472932  0.7899811062047917  1.0000
  H   H45       1.0  0.7499413255487682  0.20989967058035547  0.973737062250926  1.0000
  H   H46       1.0  0.25014258220458885  0.9735683233011229  0.7645825379623119  1.0000
  H   H47       1.0  0.24985551854343413  0.2365527769123048  0.2108040290632403  1.0000
  H   H48       1.0  0.24983076568170764  0.7904147116085553  0.026842314352542505  1.0000
  C   C1        1.0  0.36997342137467376  0.42592081746832383  0.5729436986864017  1.0000
  C   C2        1.0  0.36997723852595504  0.14702338007664653  0.5729386903604664  1.0000
  C   C3        1.0  0.37004058052098543  0.42624218748006365  0.8524731568158046  1.0000
  C   C4        1.0  0.8702854002546873  0.5737573813528769  0.4260433543349721  1.0000
  C   C5        1.0  0.8702828810928906  0.8522893620233772  0.42604395339276374  1.0000
  C   C6        1.0  0.870298993930142  0.5737971869507419  0.14760181394138533  1.0000
  C   C7        1.0  0.6295122961055314  0.5741244056612871  0.14826600156526837  1.0000
  C   C8        1.0  0.6295923880920995  0.8515949476475058  0.4258526221000666  1.0000
  C   C9        1.0  0.6295884233093149  0.5742603794089333  0.42585179183537764  1.0000
  C   C10       1.0  0.12895493587068071  0.42543733298445824  0.850865053394017  1.0000
  C   C11       1.0  0.12928828726889213  0.14813659121134026  0.5742057652639545  1.0000
  C   C12       1.0  0.12928706366758294  0.42607072041750627  0.5742104975477744  1.0000
  C   C13       1.0  0.43834488208587186  0.4636525317106149  0.5353960256611359  1.0000
  C   C14       1.0  0.4383486679076114  0.07174463029816278  0.535394649968957  1.0000
  C   C15       1.0  0.43818484911295746  0.4640713717350665  0.928140599515281  1.0000
  C   C16       1.0  0.9383947678752095  0.5359139495705918  0.4637756483699108  1.0000
  C   C17       1.0  0.9383916315987337  0.9278635362665852  0.46377304962917504  1.0000
  C   C18       1.0  0.9385266217715015  0.5360475961206603  0.07210169119400692  1.0000
  C   C19       1.0  0.5616747613855468  0.536250442319414  0.07250803733847991  1.0000
  C   C20       1.0  0.5617928104534117  0.9274361493219487  0.46363600430251495  1.0000
  C   C21       1.0  0.5617888130857552  0.5362090271461782  0.463642483514839  1.0000
  C   C22       1.0  0.06161670673622412  0.4636364409926443  0.9272729079771906  1.0000
  C   C23       1.0  0.061533731561681314  0.07237582288956186  0.5359336671908963  1.0000
  C   C24       1.0  0.06153318848505051  0.46355531538013384  0.5359322433618416  1.0000
  C   C25       1.0  0.46971816145981654  0.4081315142844701  0.44353405582133837  1.0000
  C   C26       1.0  0.46936003610928634  0.035764701742607395  0.5913154444732669  1.0000
  C   C27       1.0  0.4693644607650001  0.5559190910414885  0.9643803949381039  1.0000
  C   C28       1.0  0.9695161484120051  0.5915484263246498  0.5556922059719511  1.0000
  C   C29       1.0  0.9694436709901952  0.9640890048346337  0.4080671529189885  1.0000
  C   C30       1.0  0.969653647699005  0.4441576677516537  0.03583245826377627  1.0000
  C   C31       1.0  0.5306041476571722  0.5918394191089077  0.036190201904077034  1.0000
  C   C32       1.0  0.5305848480285961  0.9639506050919096  0.5556003564066144  1.0000
  C   C33       1.0  0.5309297649227745  0.4442402611209317  0.4078205304754263  1.0000
  C   C34       1.0  0.03069967031857601  0.40813660425299475  0.9637703805214527  1.0000
  C   C35       1.0  0.030518064120151702  0.036031848800128344  0.4439689532762188  1.0000
  C   C36       1.0  0.030589481023334003  0.5555633036130914  0.591604888456402  1.0000
  C   C37       1.0  0.5305802079938928  0.5916557328892224  0.5556043594122642  1.0000
  C   C38       1.0  0.5309331473133271  0.9635828468421933  0.4078173729569342  1.0000
  C   C39       1.0  0.5306021634888439  0.4443432531108726  0.03618764975337289  1.0000
  C   C40       1.0  0.0305168667505029  0.4079384217757394  0.4439700152670127  1.0000
  C   C41       1.0  0.030587396769341503  0.036041757655468194  0.5916032864504716  1.0000
  C   C42       1.0  0.030700357833893605  0.5556298915258608  0.96377216112829  1.0000
  C   C43       1.0  0.469363774513795  0.4084570970090197  0.9643740817612212  1.0000
  C   C44       1.0  0.4697200080480358  0.03540368240832942  0.4435293628348447  1.0000
  C   C45       1.0  0.4693575807958155  0.5555553670475675  0.5913192437110766  1.0000
  C   C46       1.0  0.9696536866459909  0.5916711308435438  0.03583474693354559  1.0000
  C   C47       1.0  0.9695117093476217  0.9641458653682093  0.5556922397570077  1.0000
  C   C48       1.0  0.9694454770383844  0.44397932024062214  0.40806604890334347  1.0000
  C   C49       1.0  0.24929556995179072  0.10213818319785868  0.3453521701828492  1.0000
  C   C50       1.0  0.24986273980245244  0.24256618904644267  0.8986137407198457  1.0000
  C   C51       1.0  0.25006203761434886  0.6564631009659577  0.7577551122423358  1.0000
  C   C52       1.0  0.7498656328194359  0.898244108347143  0.6554603766335703  1.0000
  C   C53       1.0  0.749830332057151  0.7572451121973742  0.10164225837400662  1.0000
  C   C54       1.0  0.7498261208503579  0.34457597373733506  0.24283316541750824  1.0000
  C   C55       1.0  0.7498256210680623  0.8982555190963808  0.24283285307789257  1.0000
  C   C56       1.0  0.749865594982147  0.7572191693011447  0.6554603667104432  1.0000
  C   C57       1.0  0.7498308694155684  0.3443938747521713  0.10164333287108455  1.0000
  C   C58       1.0  0.25006383419463424  0.10128828318379127  0.7577542218306448  1.0000
  C   C59       1.0  0.24929625579965634  0.24321386572368195  0.3453537539656395  1.0000
  C   C60       1.0  0.24986090524001983  0.6560458225856254  0.8986144949657701  1.0000
  C   C61       1.0  0.24972075462173393  0.050683751957698996  0.2476753393360625  1.0000
  C   C62       1.0  0.2498464457524535  0.19668922587067783  0.9503619350036632  1.0000
  C   C63       1.0  0.25004210138008187  0.754056428270644  0.8040644863988647  1.0000
  C   C64       1.0  0.7499150983446655  0.9497345812145142  0.7531471893645474  1.0000
  C   C65       1.0  0.7499094340505652  0.8034564741353732  0.05021945344530103  1.0000
  C   C66       1.0  0.7498991764189855  0.24695029817945618  0.19671207438215532  1.0000
  C   C67       1.0  0.7498974199597513  0.9497594926759092  0.1967111327280548  1.0000
  C   C68       1.0  0.7499144109523287  0.8034122335697516  0.7531460989139163  1.0000
  C   C69       1.0  0.7499099328307325  0.24676138717106258  0.0502204624180109  1.0000
  C   C70       1.0  0.2500425615946257  0.05000118540704785  0.8040619786151311  1.0000
  C   C71       1.0  0.24972209061715495  0.19699212628570711  0.24767580230018643  1.0000
  C   C72       1.0  0.2498459463636068  0.7536677557664219  0.9503633976355204  1.0000
  C   C73       1.0  0.24989298703959412  0.0985677944598322  0.19713462111589314  1.0000
  C   C74       1.0  0.24996081439138618  0.09827394102205715  0.9025732158230042  1.0000
  C   C75       1.0  0.2499597069280313  0.8042964317175745  0.902573354549766  1.0000
  C   C76       1.0  0.7499561916490124  0.9018603136858229  0.8037194375096988  1.0000
  C   C77       1.0  0.7499506354667034  0.9019074119620427  0.09820262962949758  1.0000
  C   C78       1.0  0.7499517426793575  0.1962936313820762  0.09820379166831121  1.0000
  C   C79       1.0  0.2500566910125244  0.046511439691393305  0.0930210137797189  1.0000
  C   C80       1.0  0.25000212269982575  0.04646600534713498  0.9547061402107674  1.0000
  C   C81       1.0  0.25000170521905574  0.9082400578946518  0.9547071521335937  1.0000
  C   C82       1.0  0.7500084204211535  0.953908676412837  0.9078165833614095  1.0000
  C   C83       1.0  0.7500130392207681  0.953958053239873  0.0462042749377716  1.0000
  C   C84       1.0  0.7500134560561449  0.09224609605888649  0.0462056527307695  1.0000
  N   N1        1.0  0.24902628078402966  0.19646816308975446  0.39293856404695054  1.0000
  N   N2        1.0  0.2500081774485921  0.19557432965849844  0.8042650443778285  1.0000
  N   N3        1.0  0.2500050452287041  0.6086876879246856  0.8042683007497116  1.0000
  N   N4        1.0  0.7498697331193825  0.8039008024046481  0.6078009617450064  1.0000
  N   N5        1.0  0.7498178087919102  0.8039043345826897  0.19604254761780734  1.0000
  N   N6        1.0  0.7498183465137275  0.39213738888646077  0.1960433605664136  1.0000
  N   N7        1.0  0.25008766588095455  0.0969668772824122  0.0491404538400175  1.0000
  N   N8        1.0  0.24991777904444498  0.9521293782781582  0.9042620451115226  1.0000
  N   N9        1.0  0.25008659836110786  0.9521740437123893  0.04914090285527095  1.0000
  N   N10       1.0  0.7500137373562694  0.9034926275626629  0.9517709754492429  1.0000
  N   N11       1.0  0.7500299355058645  0.04834255672667351  0.09668573564072601  1.0000
  N   N12       1.0  0.7500135077092906  0.04827951632828578  0.9517716065777222  1.0000
  O   O1        1.0  0.2601757006656626  0.3329869483290012  0.6659664691370183  1.0000
  O   O2        1.0  0.7562673397987469  0.6666123506140806  0.3332210347352316  1.0000
  O   O3        1.0  0.34382194601757016  0.3427385469682419  0.5173133453021563  1.0000
  O   O4        1.0  0.3433231544643789  0.17429397149125225  0.6557720723351608  1.0000
  O   O5        1.0  0.3437925580322343  0.4816469398809956  0.8248132474615559  1.0000
  O   O6        1.0  0.8440344377614154  0.6568317862858634  0.4815795767202145  1.0000
  O   O7        1.0  0.8439957164760727  0.8246991859346978  0.3429827207353354  1.0000
  O   O8        1.0  0.8439455108488048  0.5183364199251628  0.1751632779964467  1.0000
  O   O9        1.0  0.6557349990634976  0.6572420456553304  0.1761706843542967  1.0000
  O   O10       1.0  0.6557056621540271  0.8237960218358182  0.4811724451262052  1.0000
  O   O11       1.0  0.6558211151125024  0.5190697847306183  0.3426694428824888  1.0000
  O   O12       1.0  0.1549415718098643  0.34216547457518937  0.8225702831446641  1.0000
  O   O13       1.0  0.1552971623480559  0.17696013091165946  0.5195789068702368  1.0000
  O   O14       1.0  0.15566378991729124  0.48189714080383084  0.6570179658843716  1.0000
  O   O15       1.0  0.6557023748284153  0.6573863775937312  0.4811742836506454  1.0000
  O   O16       1.0  0.6558250893692802  0.8235981306526413  0.3426624140057157  1.0000
  O   O17       1.0  0.6557310722334933  0.5189175848065801  0.17616749570507298  1.0000
  O   O18       1.0  0.1552939651017127  0.3426141002231872  0.5195772100476148  1.0000
  O   O19       1.0  0.15566500397672203  0.17511716700399654  0.657019737717242  1.0000
  O   O20       1.0  0.15494485225620028  0.4803988637399712  0.8225659864426973  1.0000
  O   O21       1.0  0.3437938169999414  0.3431681881594386  0.8248159237390027  1.0000
  O   O22       1.0  0.3438225488613186  0.17457829732114755  0.517315035368  1.0000
  O   O23       1.0  0.34331610451447864  0.4814775070290764  0.6557706680047062  1.0000
  O   O24       1.0  0.8439442514896671  0.6568271320020856  0.17516202618978846  1.0000
  O   O25       1.0  0.8440299444708403  0.8247531346838883  0.4815771097446556  1.0000
  O   O26       1.0  0.8439969296864053  0.5182893029454262  0.3429879158774511  1.0000
