data_image0
_chemical_formula_structural       Zn2H48C56N8O8
_chemical_formula_sum              "Zn2 H48 C56 N8 O8"
_cell_length_a       10.715954592622033
_cell_length_b       11.64517074793716
_cell_length_c       13.616189567945295
_cell_angle_alpha    76.20589822747819
_cell_angle_beta     66.80706751551504
_cell_angle_gamma    62.59723514182871

_space_group_name_H-M_alt    "P 1"
_space_group_IT_number       1

loop_
  _space_group_symop_operation_xyz
  'x, y, z'

loop_
  _atom_site_type_symbol
  _atom_site_label
  _atom_site_symmetry_multiplicity
  _atom_site_fract_x
  _atom_site_fract_y
  _atom_site_fract_z
  _atom_site_occupancy
  Zn  Zn1       1.0  0.3088400263300102  0.2499852868786263  0.7499601308241992  1.0000
  Zn  Zn2       1.0  0.6911599715118654  0.7500145926285526  0.25004007335359546  1.0000
  H   H1        1.0  0.10736992006167159  0.1574582101940578  0.9260659293372838  1.0000
  H   H2        1.0  0.19066503553307976  0.34269076716142877  0.5739610540512032  1.0000
  H   H3        1.0  0.8926312684535489  0.8425406962632919  0.07393359921370295  1.0000
  H   H4        1.0  0.8093356976821653  0.6573091089299368  0.42603841534292286  1.0000
  H   H5        1.0  0.9141141275242646  0.2234784972189914  0.0036659217161699813  1.0000
  H   H6        1.0  0.14106509566374112  0.27669393096210376  0.49640263553838787  1.0000
  H   H7        1.0  0.08588706099094874  0.7765204092383584  0.9963336068348169  1.0000
  H   H8        1.0  0.8589349021781347  0.7233059485450752  0.5035975686394069  1.0000
  H   H9        1.0  0.04759109720850321  0.2305615272429833  0.0460567892138428  1.0000
  H   H10       1.0  0.32404939292133156  0.269593911894674  0.4539047399615511  1.0000
  H   H11       1.0  0.9524100913067103  0.7694373792143666  0.9539427393371441  1.0000
  H   H12       1.0  0.6759506393131498  0.7304059628095275  0.5460944161758476  1.0000
  H   H13       1.0  0.19571078945179485  0.5418873647513962  0.6348039789596739  1.0000
  H   H14       1.0  0.3725341799019123  0.9581570582600348  0.8650002913701015  1.0000
  H   H15       1.0  0.8042896980826555  0.4581115403187893  0.36519523633457845  1.0000
  H   H16       1.0  0.6274658523325628  0.04184281644416641  0.13499886476729014  1.0000
  H   H17       1.0  0.04026914897789177  0.7790651867460453  0.6195747070605364  1.0000
  H   H18       1.0  0.4393899486240827  0.7209470227517869  0.8801377949626213  1.0000
  H   H19       1.0  0.9597315842373537  0.2209346893453201  0.38042476233359684  1.0000
  H   H20       1.0  0.5606100836103991  0.27905285195241447  0.1198613611747703  1.0000
  H   H21       1.0  0.7970402277686974  0.8824790940837914  0.7591632892122107  1.0000
  H   H22       1.0  0.43894033365108936  0.6175676557475569  0.7406999158172383  1.0000
  H   H23       1.0  0.20296096074651618  0.11751981237355841  0.24083623933877626  1.0000
  H   H24       1.0  0.5610611349375247  0.38243221692800944  0.2592988187932193  1.0000
  H   H25       1.0  0.7049371104164167  0.7524967224050201  0.921708479654704  1.0000
  H   H26       1.0  0.37914963459702733  0.7475890060787123  0.5782659918043151  1.0000
  H   H27       1.0  0.29506337711803343  0.2475021826651655  0.0782907356395484  1.0000
  H   H28       1.0  0.6208496966566912  0.2524108672383178  0.4217328510763422  1.0000
  H   H29       1.0  0.7193108703421345  0.5828384706197839  0.07621883533272472  1.0000
  H   H30       1.0  0.378506330000171  0.917256047050579  0.4237317012422607  1.0000
  H   H31       1.0  0.2806891274997412  0.4171614088873951  0.9237813688450699  1.0000
  H   H32       1.0  0.6214922314875653  0.08274383448523542  0.576268924462468  1.0000
  H   H33       1.0  0.7832179626489052  0.4138023567168716  0.10031656994865301  1.0000
  H   H34       1.0  0.29740153756264925  0.08628729247904231  0.3996325300343102  1.0000
  H   H35       1.0  0.21678319147370928  0.5861965545434558  0.8996840066427367  1.0000
  H   H36       1.0  0.7025994069407769  0.913713559436481  0.6003682415000996  1.0000
  H   H37       1.0  0.7568804785023601  0.3741287762461241  0.885696155018671  1.0000
  H   H38       1.0  0.01654124913040529  0.12599024035721135  0.6142215217182566  1.0000
  H   H39       1.0  0.24311951933951553  0.6258711032610549  0.11430404915912362  1.0000
  H   H40       1.0  0.9834575580381253  0.8740106121997829  0.38577935808634584  1.0000
  H   H41       1.0  0.4571774833357835  0.6224127797524801  0.14506570660884674  1.0000
  H   H42       1.0  0.22477109240542584  0.8775330602231438  0.3549922889974155  1.0000
  H   H43       1.0  0.5428229698060677  0.37758613012067604  0.8549345567258086  1.0000
  H   H44       1.0  0.7752272250705305  0.12246876677085079  0.6450095796907291  1.0000
  H   H45       1.0  0.6638331578085968  0.9814498885770606  0.9462641948840297  1.0000
  H   H46       1.0  0.5917838791901529  0.518688574775581  0.5533747627550056  1.0000
  H   H47       1.0  0.3361709378074949  0.018549009020027502  0.053733442572685385  1.0000
  H   H48       1.0  0.40821450707100837  0.4813132426124654  0.4466250098523333  1.0000
  C   C1        1.0  0.01818294508480988  0.23670174362692362  0.9755522753005366  1.0000
  C   C2        1.0  0.23028246804055652  0.26345538896196535  0.5244595594938558  1.0000
  C   C3        1.0  0.9818182434304035  0.763297162830426  0.024447253250450347  1.0000
  C   C4        1.0  0.769718966155452  0.7365444885165643  0.4755402231570044  1.0000
  C   C5        1.0  0.0018274411638048642  0.36301233878150907  0.9128527300665537  1.0000
  C   C6        1.0  0.2775340569142983  0.13711639139368967  0.5871346400219366  1.0000
  C   C7        1.0  0.9981730463706456  0.6369865662886768  0.08714648522769862  1.0000
  C   C8        1.0  0.7224673772817168  0.8628834860848402  0.4128651426289239  1.0000
  C   C9        1.0  0.03751546164507853  0.5141477855349735  0.7876083504852504  1.0000
  C   C10       1.0  0.339266275656186  0.9859130448544493  0.7122965146471644  1.0000
  C   C11       1.0  0.9624843249086085  0.485851118148041  0.21239055155226802  1.0000
  C   C12       1.0  0.660731340839007  0.014088780752374002  0.2877050407842461  1.0000
  C   C13       1.0  0.08985973417499359  0.5870774802087267  0.6967091397777735  1.0000
  C   C14       1.0  0.37388100847720546  0.9129711593206764  0.803097382457949  1.0000
  C   C15       1.0  0.9101400179860876  0.412921428277265  0.3032908103001476  1.0000
  C   C16       1.0  0.626117553010538  0.08702872221514471  0.19690324324677988  1.0000
  C   C17       1.0  0.0016027962933547427  0.7194789800878781  0.688860063914241  1.0000
  C   C18       1.0  0.41031332520105224  0.7805555939662343  0.8109166482361657  1.0000
  C   C19       1.0  0.9983983922218584  0.2805199263694719  0.3111394646367458  1.0000
  C   C20       1.0  0.589687828921555  0.21944331729408623  0.18908392835522386  1.0000
  C   C21       1.0  0.8637763148062949  0.7786543433242346  0.7684697245598855  1.0000
  C   C22       1.0  0.41113067302917017  0.721393600588314  0.7313858689514561  1.0000
  C   C23       1.0  0.13622417272815576  0.2213445617459513  0.231529490734367  1.0000
  C   C24       1.0  0.5888681685319668  0.2786072471657164  0.2686139628127506  1.0000
  C   C25       1.0  0.8103100371409009  0.7069305179393128  0.859421226285228  1.0000
  C   C26       1.0  0.37670526659493936  0.7931519395876521  0.6405222628429  1.0000
  C   C27       1.0  0.18969045039354876  0.2930683871308731  0.14057798900902438  1.0000
  C   C28       1.0  0.6232919633854905  0.20685084604724585  0.3594771373508436  1.0000
  C   C29       1.0  0.899978566431102  0.5747239809795917  0.8672952694929634  1.0000
  C   C30       1.0  0.34198302556183086  0.9253798835009023  0.6326332852981906  1.0000
  C   C31       1.0  0.10001915324190953  0.42527783021831317  0.1327031418172382  1.0000
  C   C32       1.0  0.6580143796451736  0.07462096628176342  0.3673669679929432  1.0000
  C   C33       1.0  0.7510917758421981  0.49394923979915734  0.040846777302121516  1.0000
  C   C34       1.0  0.28595006218346  0.0061375635868188005  0.4591036709566936  1.0000
  C   C35       1.0  0.24890867729964566  0.5060496700739989  0.959153486032534  1.0000
  C   C36       1.0  0.7140495147510464  0.9938632807513985  0.5408954260238376  1.0000
  C   C37       1.0  0.6217947187527315  0.4988614630554836  0.017498256204440604  1.0000
  C   C38       1.0  0.13819685846436872  0.0011889888185053002  0.4824667323157001  1.0000
  C   C39       1.0  0.3782054543157187  0.501136480599463  0.9825028010707441  1.0000
  C   C40       1.0  0.861801739084989  0.9988138043936915  0.5175343424319154  1.0000
  C   C41       1.0  0.6442693708587655  0.4296377913824401  0.9365801291218145  1.0000
  C   C42       1.0  0.010424767441108424  0.07041473591821301  0.5633608378399799  1.0000
  C   C43       1.0  0.3557308022096846  0.5703601522725067  0.06342092815337  1.0000
  C   C44       1.0  0.9895749863889802  0.9295870890471393  0.43664060932123766  1.0000
  C   C45       1.0  0.47582404277668644  0.5699094322315902  0.08072211444709872  1.0000
  C   C46       1.0  0.12650106620321128  0.9300631486605865  0.41933195726918626  1.0000
  C   C47       1.0  0.5241764103651577  0.43008947764156613  0.9192781488875568  1.0000
  C   C48       1.0  0.8734978114195399  0.0699406107698266  0.5806683235378998  1.0000
  C   C49       1.0  0.499876164427981  0.0978090217167775  0.863298460539248  1.0000
  C   C50       1.0  0.46146102898742924  0.4021336949613003  0.6367074540027885  1.0000
  C   C51       1.0  0.5001264604413719  0.9021898827119301  0.13670064648480454  1.0000
  C   C52       1.0  0.5385377781811016  0.597867157595701  0.3632934258018139  1.0000
  C   C53       1.0  0.5460805407056027  0.018375379393404497  0.9560920521495929  1.0000
  C   C54       1.0  0.5206964598644247  0.48166923706297393  0.5438011140961194  1.0000
  C   C55       1.0  0.45392296037108076  0.9816215905702496  0.043908221228584  1.0000
  C   C56       1.0  0.4793000347426356  0.5183335519877305  0.4561990208812929  1.0000
  N   N1        1.0  0.0982168206180704  0.3823560800202728  0.8184945413577721  1.0000
  N   N2        1.0  0.29895275958541856  0.11773146094124343  0.6814509569893447  1.0000
  N   N3        1.0  0.9017829315430108  0.6176428284657192  0.1815054087201489  1.0000
  N   N4        1.0  0.7010465028830881  0.8822684219817347  0.3185499819721186  1.0000
  N   N5        1.0  0.8820632975763374  0.4768461085467878  0.9455548047830714  1.0000
  N   N6        1.0  0.30438720320847074  0.023263427721431605  0.5544099643346314  1.0000
  N   N7        1.0  0.1179364545847435  0.5231527999392044  0.054445145294856404  1.0000
  N   N8        1.0  0.695611638352666  0.9767374200325992  0.4455898674295752  1.0000
  O   O1        1.0  0.3590449363622597  0.1727674987623189  0.882764100248451  1.0000
  O   O2        1.0  0.41501727732291027  0.32712742146104296  0.6173627195985958  1.0000
  O   O3        1.0  0.6409571283602985  0.8272294732299696  0.11723659465666  1.0000
  O   O4        1.0  0.5849812841648258  0.6728724600747712  0.3826379061061331  1.0000
  O   O5        1.0  0.5957739868693112  0.0835677202411702  0.7720552434211639  1.0000
  O   O6        1.0  0.4520822944427464  0.41637736983798135  0.727849314792401  1.0000
  O   O7        1.0  0.4042270264193348  0.9164331220684047  0.22794343203243977  1.0000
  O   O8        1.0  0.5479165127257842  0.5836234827190199  0.2721515650122015  1.0000
