data_image0
_chemical_formula_structural       Zn8H68C112N20O32
_chemical_formula_sum              "Zn8 H68 C112 N20 O32"
_cell_length_a       13.679948499602098
_cell_length_b       16.79842115309138
_cell_length_c       19.08444780845758
_cell_angle_alpha    116.13282958896485
_cell_angle_beta     102.8880108718157
_cell_angle_gamma    89.99858518963089

_space_group_name_H-M_alt    "P 1"
_space_group_IT_number       1

loop_
  _space_group_symop_operation_xyz
  'x, y, z'

loop_
  _atom_site_type_symbol
  _atom_site_label
  _atom_site_symmetry_multiplicity
  _atom_site_fract_x
  _atom_site_fract_y
  _atom_site_fract_z
  _atom_site_occupancy
  Zn  Zn1       1.0  0.7510018023398148  0.0803212845004353  0.6493595683827849  1.0000
  Zn  Zn2       1.0  0.8107575407662467  0.15562712145661084  0.8220820124225909  1.0000
  Zn  Zn3       1.0  0.2510447654100076  0.5691487790001305  0.6492495131260441  1.0000
  Zn  Zn4       1.0  0.3108576355045614  0.6667268023283628  0.8220553446373771  1.0000
  Zn  Zn5       1.0  0.7489536546907943  0.4308513116341075  0.35075150083235934  1.0000
  Zn  Zn6       1.0  0.6891400348930292  0.33327316364600534  0.1779455460068817  1.0000
  Zn  Zn7       1.0  0.24899720968588213  0.919678169976436  0.3506394568957559  1.0000
  Zn  Zn8       1.0  0.1892431333034992  0.8443728233065501  0.1779188459394731  1.0000
  H   H1        1.0  0.0731522217409406  0.024902404900750054  0.8440091160614074  1.0000
  H   H2        1.0  0.1777842057622578  0.9013772746130189  0.8430872180549541  1.0000
  H   H3        1.0  0.0538970293116563  0.7506183392453282  0.5881717853751879  1.0000
  H   H4        1.0  0.9501995428454889  0.8750779491012112  0.5891717899402735  1.0000
  H   H5        1.0  0.5135854042217929  0.48774907530813744  0.8819824750858984  1.0000
  H   H6        1.0  0.3804106049800708  0.3347157119935531  0.6287503850756906  1.0000
  H   H7        1.0  0.48812922411035237  0.21285387206406622  0.6254795967694164  1.0000
  H   H8        1.0  0.6207890169241354  0.3650852414033779  0.8788579941543518  1.0000
  H   H9        1.0  0.8699569298176046  0.0427113420160125  0.9012706731498241  1.0000
  H   H10       1.0  0.9707835029715997  0.06172195799315008  0.0367290176520072  1.0000
  H   H11       1.0  0.9675834175161313  0.34619203698967743  0.12476269978600385  1.0000
  H   H12       1.0  0.8672575062793018  0.3159663062933404  0.9864758373023577  1.0000
  H   H13       1.0  0.18778385302770323  0.15643827907538818  0.276440698820096  1.0000
  H   H14       1.0  0.024381799524732614  0.42900714389607936  0.3625545850154026  1.0000
  H   H15       1.0  0.08666027891250387  0.5437594607616419  0.5066006684905063  1.0000
  H   H16       1.0  0.3327296026801037  0.41177886909409267  0.5440165411212945  1.0000
  H   H17       1.0  0.28558583987145875  0.29297458303098267  0.4006822786355997  1.0000
  H   H18       1.0  0.573442531382007  0.8191357306724926  0.8439391227213376  1.0000
  H   H19       1.0  0.6778216457793748  0.9419332893255971  0.8430745961853958  1.0000
  H   H20       1.0  0.5539409606391958  0.837613692196797  0.5881623069061773  1.0000
  H   H21       1.0  0.450354822822746  0.7140570691504706  0.5891291964362182  1.0000
  H   H22       1.0  0.01383768834408979  0.3946484327341366  0.8821110333662218  1.0000
  H   H23       1.0  0.8803885233686017  0.2942070567819357  0.6289045772570816  1.0000
  H   H24       1.0  0.9882708543193675  0.4125414708587201  0.6254548458474218  1.0000
  H   H25       1.0  0.12111068078152698  0.5140311933444366  0.87882115803869  1.0000
  H   H26       1.0  0.37026250249373055  0.8587870586003634  0.9014162892579095  1.0000
  H   H27       1.0  0.4711137338786386  0.9752167300721695  0.03693799307751527  1.0000
  H   H28       1.0  0.4675814755127448  0.7787083255018816  0.12477012564669816  1.0000
  H   H29       1.0  0.3672675079663605  0.6706740950851471  0.9864465299573199  1.0000
  H   H30       1.0  0.6878238813950974  0.12030799623667585  0.2767519950695174  1.0000
  H   H31       1.0  0.5242678962637299  0.9338046241466957  0.36265369170172324  1.0000
  H   H32       1.0  0.5866813666839124  0.9628306888738651  0.5065828019092607  1.0000
  H   H33       1.0  0.832811474722611  0.13228747149121733  0.544196410518893  1.0000
  H   H34       1.0  0.7856576134357738  0.10788492414361169  0.4009290585726005  1.0000
  H   H35       1.0  0.42656568216408175  0.18086973997832703  0.15606796631986697  1.0000
  H   H36       1.0  0.3221838501814603  0.058069005043151406  0.15692526139260113  1.0000
  H   H37       1.0  0.44605724140518543  0.1623823180208603  0.4118386132549574  1.0000
  H   H38       1.0  0.5496445112223399  0.28594226739693335  0.410878440870988  1.0000
  H   H39       1.0  0.9861652737098439  0.6053477272030322  0.1178859906281743  1.0000
  H   H40       1.0  0.1196080769098344  0.7057917827487615  0.3710924916237843  1.0000
  H   H41       1.0  0.011726572121773405  0.5874581336658335  0.37454366511396825  1.0000
  H   H42       1.0  0.8788906908285342  0.48596563649111607  0.12117587717732185  1.0000
  H   H43       1.0  0.6297353645567443  0.14120950938562524  0.09858250907025481  1.0000
  H   H44       1.0  0.528885956250086  0.024781688879897706  0.9630593112100242  1.0000
  H   H45       1.0  0.5324190164820878  0.2212934576975485  0.8752312484151759  1.0000
  H   H46       1.0  0.632728815943814  0.3293269022374119  0.01355675159142318  1.0000
  H   H47       1.0  0.3121778903462982  0.8796910755791814  0.723244618243953  1.0000
  H   H48       1.0  0.47572891235247994  0.0661993355019844  0.6373445220539368  1.0000
  H   H49       1.0  0.4133161916355093  0.03717339543469216  0.49341553516054404  1.0000
  H   H50       1.0  0.16718811950933346  0.8677123865296893  0.4558016771573108  1.0000
  H   H51       1.0  0.21434197593685408  0.892115453727996  0.5990695546423622  1.0000
  H   H52       1.0  0.9268477629036984  0.9751007348018704  0.15598960078978047  1.0000
  H   H53       1.0  0.8222165953264523  0.09862766978485377  0.1569139919542764  1.0000
  H   H54       1.0  0.9461050531270488  0.2493827740557251  0.41182957746506327  1.0000
  H   H55       1.0  0.04980255417117972  0.12492160464773142  0.4108279962836932  1.0000
  H   H56       1.0  0.486410608991072  0.5122498805292324  0.11801605693607088  1.0000
  H   H57       1.0  0.6195885078017228  0.6652817835637777  0.3712473312754198  1.0000
  H   H58       1.0  0.5118717833498749  0.7871466346440243  0.3745184698462012  1.0000
  H   H59       1.0  0.37920876394819913  0.6349117259500403  0.12114053648495832  1.0000
  H   H60       1.0  0.1300411455706509  0.9572903460879517  0.09872927005314108  1.0000
  H   H61       1.0  0.029214764210209392  0.9382768519731358  0.9632693587736298  1.0000
  H   H62       1.0  0.03242152213849181  0.6538061348682761  0.8752403812799372  1.0000
  H   H63       1.0  0.1327468920098838  0.6840368610227188  0.013528265324232782  1.0000
  H   H64       1.0  0.8122190750109936  0.8435615198166958  0.7235600039456358  1.0000
  H   H65       1.0  0.9756172222196042  0.5709912708793824  0.6374433891856057  1.0000
  H   H66       1.0  0.9133392291413076  0.4562407966267017  0.4933971514968362  1.0000
  H   H67       1.0  0.667269399626953  0.5882216250841807  0.4559835352347718  1.0000
  H   H68       1.0  0.7144141706732229  0.7070248377048713  0.5993187241011809  1.0000
  C   C1        1.0  0.1779760813388904  0.7426544974502605  0.7170360697438837  1.0000
  C   C2        1.0  0.9332692297685696  0.02448952913115932  0.7199079971380797  1.0000
  C   C3        1.0  0.005624084608868393  0.9565460815236121  0.7167393810283753  1.0000
  C   C4        1.0  0.07083703111220528  0.9650306158284608  0.7882567277400199  1.0000
  C   C5        1.0  0.1280344297900058  0.896546928794507  0.7877935293915073  1.0000
  C   C6        1.0  0.12069294105339877  0.818445625965083  0.7158372683224953  1.0000
  C   C7        1.0  0.05837333165118958  0.8114427995344615  0.6437075425578058  1.0000
  C   C8        1.0  0.001186828713343912  0.8802119683237491  0.6441415721162186  1.0000
  C   C9        1.0  0.383006711025793  0.4943676318794488  0.755777098869018  1.0000
  C   C10       1.0  0.4415612291119829  0.4187095379228865  0.7554103675238295  1.0000
  C   C11       1.0  0.5077897545444757  0.4267447657943748  0.8263838611440022  1.0000
  C   C12       1.0  0.43303600985242247  0.34061175104607605  0.6832879561867813  1.0000
  C   C13       1.0  0.6295171598044363  0.21186379601571304  0.7487142683843615  1.0000
  C   C14       1.0  0.559907248111152  0.2815153182854859  0.7521687961627707  1.0000
  C   C15       1.0  0.4919859614106344  0.272718162618851  0.681569743948053  1.0000
  C   C16       1.0  0.5665844929288467  0.35861994063895253  0.8247347255953841  1.0000
  C   C17       1.0  0.8927624593881449  0.10848866311062706  0.9526278511363627  1.0000
  C   C18       1.0  0.9489863396608629  0.11881991455869922  0.026759610233092732  1.0000
  C   C19       1.0  0.9780045635590966  0.2054568822028742  0.08915271803278559  1.0000
  C   C20       1.0  0.9474663246855782  0.27849066634394154  0.07666604465055826  1.0000
  C   C21       1.0  0.8910971399358587  0.26154914556705927  0.00044473603649203654  1.0000
  C   C22       1.0  0.117008593377669  0.2823392360608779  0.2865007175444561  1.0000
  C   C23       1.0  0.1398644436985137  0.192800674950675  0.2503052106315735  1.0000
  C   C24       1.0  0.15018973575449487  0.35107206513243483  0.3696896259645328  1.0000
  C   C25       1.0  0.0940555823040796  0.42318606058149305  0.40011418648305147  1.0000
  C   C26       1.0  0.12746021155017223  0.4864716207341075  0.4799907934179402  1.0000
  C   C27       1.0  0.2658060749274256  0.4124865198474908  0.5008808161178423  1.0000
  C   C28       1.0  0.23816824271847287  0.34653512434572775  0.4215980658809499  1.0000
  C   C29       1.0  0.677946960489834  0.9745561090399023  0.7170471080133537  1.0000
  C   C30       1.0  0.43342031676794335  0.695523355058107  0.719867922038908  1.0000
  C   C31       1.0  0.5058908295980232  0.7601846979837605  0.7166842959057077  1.0000
  C   C32       1.0  0.5710953163977949  0.8232686623851323  0.7881991308535489  1.0000
  C   C33       1.0  0.6281523202996058  0.891365505952365  0.7877622176246675  1.0000
  C   C34       1.0  0.6207324106447203  0.8975108722600497  0.7158335925902151  1.0000
  C   C35       1.0  0.5584753699519779  0.8323106294308645  0.6436861817440941  1.0000
  C   C36       1.0  0.5013770345311956  0.7639151566408771  0.6440981075810013  1.0000
  C   C37       1.0  0.8829716934499247  0.2617628170315313  0.7559431451897252  1.0000
  C   C38       1.0  0.9416435887407673  0.3369968226293879  0.7555487993138001  1.0000
  C   C39       1.0  0.007983754643973398  0.3999724783812724  0.8264781157373734  1.0000
  C   C40       1.0  0.93311588737496  0.34285692664296613  0.6833975967069321  1.0000
  C   C41       1.0  0.1296769749804625  0.536940321305579  0.7486189521543807  1.0000
  C   C42       1.0  0.06010670537924061  0.470754230718228  0.7521382756039969  1.0000
  C   C43       1.0  0.9921482742953459  0.4089047546753193  0.6815874983339327  1.0000
  C   C44       1.0  0.06683120495349472  0.4663435550625081  0.8247368458219029  1.0000
  C   C45       1.0  0.3929982095391935  0.8443650438339249  0.9527631724492736  1.0000
  C   C46       1.0  0.44923432546685405  0.9081439623208925  0.026922343159384365  1.0000
  C   C47       1.0  0.4781377403933434  0.8838907985453376  0.08928449372937303  1.0000
  C   C48       1.0  0.4474976750342208  0.798347844242926  0.07671657998419326  1.0000
  C   C49       1.0  0.3911381024892791  0.739075691894037  0.0004708321518833283  1.0000
  C   C50       1.0  0.6169966653159095  0.004418407251414126  0.2866941058978938  1.0000
  C   C51       1.0  0.6399050027751516  0.057776196670708706  0.2505617846763784  1.0000
  C   C52       1.0  0.650144044433013  0.018863589728844856  0.3698683597131946  1.0000
  C   C53       1.0  0.5939872083885406  0.9771357333898506  0.4002349026455079  1.0000
  C   C54       1.0  0.6274432407634905  0.9936099635587611  0.4800592372117052  1.0000
  C   C55       1.0  0.7658477025086655  0.08849596238423627  0.5010380928858211  1.0000
  C   C56       1.0  0.7381918371993876  0.07524445830934214  0.421800085005117  1.0000
  C   C57       1.0  0.3220514025887553  0.02544126185755149  0.2829504850236191  1.0000
  C   C58       1.0  0.5665825885775817  0.30447792337425034  0.2801403220000438  1.0000
  C   C59       1.0  0.49411180263512494  0.23981933810299688  0.283324721682952  1.0000
  C   C60       1.0  0.4289115700981584  0.17673576021106643  0.211808246937089  1.0000
  C   C61       1.0  0.37185201610805063  0.10863546147761133  0.21223898961924453  1.0000
  C   C62       1.0  0.3792722510382092  0.10249057710301199  0.2841707875641859  1.0000
  C   C63       1.0  0.4415236631144381  0.16768562592994832  0.3563156549588058  1.0000
  C   C64       1.0  0.49862430466706104  0.23608419243634426  0.355907519985756  1.0000
  C   C65       1.0  0.117028173894397  0.7382342833349754  0.24405416893677057  1.0000
  C   C66       1.0  0.0583562688849142  0.6630013174385212  0.24444956589021416  1.0000
  C   C67       1.0  0.9920191879726799  0.6000257609587081  0.17352101041207382  1.0000
  C   C68       1.0  0.06688247084430542  0.6571409641051887  0.31660052186879994  1.0000
  C   C69       1.0  0.8703195294011935  0.4630599572939574  0.2513789001151494  1.0000
  C   C70       1.0  0.9398922301869633  0.5292445834246707  0.2478594309081572  1.0000
  C   C71       1.0  0.007850575092717796  0.591094458835009  0.31840994048936005  1.0000
  C   C72       1.0  0.9331700804784264  0.5336536741404743  0.17525992170524768  1.0000
  C   C73       1.0  0.6070002251395721  0.1556334872482026  0.04723626489283815  1.0000
  C   C74       1.0  0.550764782455623  0.09185405308713968  0.9730758987304853  1.0000
  C   C75       1.0  0.5218626897199529  0.11610878476801638  0.9107139849498226  1.0000
  C   C76       1.0  0.5525022541916444  0.20165145600965687  0.9232836295249741  1.0000
  C   C77       1.0  0.608860403789663  0.2609239993727711  0.9995304494953814  1.0000
  C   C78       1.0  0.3830040022910879  0.9955831770757017  0.7133023644235265  1.0000
  C   C79       1.0  0.3600966779287874  0.9422237943632864  0.7494350864870042  1.0000
  C   C80       1.0  0.3498545269833572  0.9811389012865918  0.6301303781985651  1.0000
  C   C81       1.0  0.4060096002276694  0.022868226258829335  0.5997633111101521  1.0000
  C   C82       1.0  0.3725544899122113  0.006393322014936567  0.5199396352358221  1.0000
  C   C83       1.0  0.23415179582649873  0.9115053347055024  0.4989607781790397  1.0000
  C   C84       1.0  0.26180915082355244  0.9247581278015532  0.5782000837655514  1.0000
  C   C85       1.0  0.8220242334403453  0.25734860433473733  0.282965294479034  1.0000
  C   C86       1.0  0.06673036932270551  0.975509809039046  0.28008956499935767  1.0000
  C   C87       1.0  0.9943776482579666  0.0434571490978684  0.28326143659519687  1.0000
  C   C88       1.0  0.9291654611764742  0.034971699751494584  0.2117431621201717  1.0000
  C   C89       1.0  0.8719682299956376  0.10345510790128293  0.2122074213851732  1.0000
  C   C90       1.0  0.8793095415166408  0.18155772931627473  0.2841636726152217  1.0000
  C   C91       1.0  0.9416284922531021  0.18855951186888836  0.35629301721586165  1.0000
  C   C92       1.0  0.9988150000502642  0.1197898232288921  0.3558584621186895  1.0000
  C   C93       1.0  0.6169850770801946  0.5056278183442515  0.2442199197183966  1.0000
  C   C94       1.0  0.5584371242479592  0.5812888726759767  0.24458827659066879  1.0000
  C   C95       1.0  0.49220534632754476  0.5732538244165754  0.1736129611085815  1.0000
  C   C96       1.0  0.5669646739359706  0.6593871540156827  0.31671185109776445  1.0000
  C   C97       1.0  0.37048053488975796  0.7881335707051351  0.25128399456608713  1.0000
  C   C98       1.0  0.4400911914269373  0.7184826929459406  0.2478301156405891  1.0000
  C   C99       1.0  0.508014665355546  0.7272780227061162  0.31842664241505486  1.0000
  C   C100      1.0  0.4334130294090742  0.6413782248167622  0.17526300197734906  1.0000
  C   C101      1.0  0.10723662909705213  0.8915114317002164  0.04737249290855774  1.0000
  C   C102      1.0  0.05101451162448706  0.8811787116188938  0.9732412579679347  1.0000
  C   C103      1.0  0.021995466422865206  0.794540459130168  0.9108461825489511  1.0000
  C   C104      1.0  0.05253609760636382  0.7215093693380793  0.9233369144838973  1.0000
  C   C105      1.0  0.10890501896234636  0.7384526080679666  0.9995579455701461  1.0000
  C   C106      1.0  0.8829915082044691  0.7176592654568382  0.7135000273424269  1.0000
  C   C107      1.0  0.8601362255119086  0.8071997896631943  0.7496961732692569  1.0000
  C   C108      1.0  0.8498092811305186  0.6489268694937352  0.6303088737752488  1.0000
  C   C109      1.0  0.9059450250248133  0.5768122041462931  0.5998843020351073  1.0000
  C   C110      1.0  0.8725401226663436  0.5135294016480785  0.5200084686499196  1.0000
  C   C111      1.0  0.7341936770828356  0.5875140989906598  0.4991193835523616  1.0000
  C   C112      1.0  0.7618308506260407  0.6534644506144149  0.5784017526252115  1.0000
  N   N1        1.0  0.8648327782422529  0.178653863597333  0.9393323695444027  1.0000
  N   N2        1.0  0.21131061180995667  0.48109013300018694  0.5297861119160174  1.0000
  N   N3        1.0  0.03913472383933939  0.2186495680573088  0.1639204575068334  1.0000
  N   N4        1.0  0.05286502888829151  0.2967926744924867  0.2299316885668503  1.0000
  N   N5        1.0  0.08988342105534744  0.15348933408026968  0.17307450299021096  1.0000
  N   N6        1.0  0.36494171384574514  0.760879445918171  0.9393927713684533  1.0000
  N   N7        1.0  0.7113364789034905  0.04874899377425375  0.5298763961436208  1.0000
  N   N8        1.0  0.5392395333703845  0.9454777048336213  0.1640874487044995  1.0000
  N   N9        1.0  0.5529020951566892  0.933357824976284  0.23007947417524105  1.0000
  N   N10       1.0  0.5899983364285504  0.01983276315654339  0.1733191390053079  1.0000
  N   N11       1.0  0.6350552930267741  0.23911999602888304  0.06060826365052921  1.0000
  N   N12       1.0  0.2886621786910056  0.9512530978737531  0.47012260945700035  1.0000
  N   N13       1.0  0.46076164644611595  0.05452200313960259  0.8359111532888406  1.0000
  N   N14       1.0  0.4470981577410102  0.06664307692263786  0.7699189946650051  1.0000
  N   N15       1.0  0.4100043525130133  0.9801661544350324  0.8266786585387891  1.0000
  N   N16       1.0  0.13516763729308684  0.8213472792681245  0.06066768575108471  1.0000
  N   N17       1.0  0.7886897224065593  0.5189108893819993  0.47021315015184223  1.0000
  N   N18       1.0  0.9608653061426228  0.7813477732757336  0.8360784430749035  1.0000
  N   N19       1.0  0.9471357410782419  0.7032058312018351  0.7700683864065495  1.0000
  N   N20       1.0  0.9101180937550738  0.8465098161246305  0.8269262208360998  1.0000
  O   O1        1.0  0.1752446267395058  0.6760776435941835  0.6495070788919789  1.0000
  O   O2        1.0  0.22529152478306003  0.7513335328013184  0.7860168987303595  1.0000
  O   O3        1.0  0.9282118869845067  0.08146363217017688  0.7898425776676276  1.0000
  O   O4        1.0  0.8794805980041785  0.01745083989349889  0.6533275117519608  1.0000
  O   O5        1.0  0.3886631066819888  0.5615855888362021  0.8234015495311127  1.0000
  O   O6        1.0  0.3323994959044542  0.4855886362437472  0.6874339034663064  1.0000
  O   O7        1.0  0.6861934953393459  0.2210854772857759  0.815331545402586  1.0000
  O   O8        1.0  0.628630133406105  0.14957711389525488  0.6792437071296433  1.0000
  O   O9        1.0  0.675226500589645  0.9735626567196081  0.6495318501309271  1.0000
  O   O10       1.0  0.7252044268435257  0.034925482056919886  0.7860421155349613  1.0000
  O   O11       1.0  0.4283032869924385  0.7086380282575038  0.7898214653389317  1.0000
  O   O12       1.0  0.37956800420958814  0.6359699405795709  0.6532985173382144  1.0000
  O   O13       1.0  0.8886386780598701  0.2622104230555705  0.8235650059921511  1.0000
  O   O14       1.0  0.832298769545396  0.20218168581159546  0.6876025442646919  1.0000
  O   O15       1.0  0.18630831308223614  0.5944536286614336  0.8152124166617156  1.0000
  O   O16       1.0  0.1287416303684381  0.529657206118607  0.6791260084851558  1.0000
  O   O17       1.0  0.3247694458823602  0.026434619082380106  0.35046431204712997  1.0000
  O   O18       1.0  0.27479510550688957  0.9650721760779035  0.21395307675856393  1.0000
  O   O19       1.0  0.571702558854078  0.2913699870227902  0.2101935784217375  1.0000
  O   O20       1.0  0.6204358510617141  0.3640365026187951  0.3467169595466117  1.0000
  O   O21       1.0  0.11136357673510838  0.7377898915106089  0.1764368922258227  1.0000
  O   O22       1.0  0.1677005774742142  0.7978172108969517  0.31239860284681237  1.0000
  O   O23       1.0  0.8136891036402646  0.40554701556452244  0.18478714537720003  1.0000
  O   O24       1.0  0.871251678547502  0.4703459718298079  0.32087344284390446  1.0000
  O   O25       1.0  0.8247579565866376  0.32392375276763374  0.3504925531183147  1.0000
  O   O26       1.0  0.7747081556270318  0.24866592585215133  0.21398145663469847  1.0000
  O   O27       1.0  0.07178777884762155  0.9185373860354037  0.21015735431371482  1.0000
  O   O28       1.0  0.1205185001996583  0.9825482152159355  0.34667178121544134  1.0000
  O   O29       1.0  0.6113314314210571  0.4384105184279008  0.1765941081687643  1.0000
  O   O30       1.0  0.6675889745761837  0.5144041938434186  0.3125638369946984  1.0000
  O   O31       1.0  0.3138080146117518  0.7789141927698325  0.1846697039624843  1.0000
  O   O32       1.0  0.37136706040065803  0.850419969764822  0.32075628665077005  1.0000
