data_image0
_chemical_formula_structural       Zn4H12C8S4N12O16
_chemical_formula_sum              "Zn4 H12 C8 S4 N12 O16"
_cell_length_a       5.1915649630399185
_cell_length_b       7.813882744705771
_cell_length_c       14.989202023009899
_cell_angle_alpha    87.578361189845
_cell_angle_beta     88.28337070129471
_cell_angle_gamma    85.74971272095318

_space_group_name_H-M_alt    "P 1"
_space_group_IT_number       1

loop_
  _space_group_symop_operation_xyz
  'x, y, z'

loop_
  _atom_site_type_symbol
  _atom_site_label
  _atom_site_symmetry_multiplicity
  _atom_site_fract_x
  _atom_site_fract_y
  _atom_site_fract_z
  _atom_site_occupancy
  Zn  Zn1       1.0  0.4999993306605219  0.5000019154473279  4.5246250119729333e-07  1.0000
  Zn  Zn2       1.0  0.17388450371088027  0.10045822703118286  0.7341656301431385  1.0000
  Zn  Zn3       1.0  0.8261126928139502  0.8995435938907547  0.2658339668718169  1.0000
  Zn  Zn4       1.0  0.49999953349500004  0.99999795259464  0.5000002561670129  1.0000
  H   H1        1.0  0.6729087480516681  0.09645324490853817  0.8564497492528744  1.0000
  H   H2        1.0  0.32709134175325255  0.9035575367113039  0.1435516522751143  1.0000
  H   H3        1.0  0.1385429650555068  0.7179174281531642  0.8388854320644582  1.0000
  H   H4        1.0  0.8614598551069079  0.28208569654030674  0.16111274116739335  1.0000
  H   H5        1.0  0.14760989759386692  0.6668395345236532  0.4821821759749696  1.0000
  H   H6        1.0  0.8523831130650095  0.33316491376583446  0.5178134190611559  1.0000
  H   H7        1.0  0.5922438262862213  0.5499561505705372  0.24882797814651517  1.0000
  H   H8        1.0  0.4077637097123485  0.4500392486814703  0.7511716150398371  1.0000
  H   H9        1.0  0.7782084268293872  0.8461894466263968  0.9744338465797424  1.0000
  H   H10       1.0  0.22179235882258294  0.1538149232680013  0.0255669964246792  1.0000
  H   H11       1.0  0.20926968684568692  0.453771621614777  0.3520617005815794  1.0000
  H   H12       1.0  0.7907314879378616  0.5462289345074609  0.6479365386528783  1.0000
  C   C1        1.0  0.5679438321886537  0.982253323624057  0.8670942457752062  1.0000
  C   C2        1.0  0.4320481799066086  0.017743321054602693  0.13290817476315905  1.0000
  C   C3        1.0  0.29763018904831284  0.7883407350659225  0.8594709574203775  1.0000
  C   C4        1.0  0.7023723661290119  0.21166493866449798  0.14052850682364237  1.0000
  C   C5        1.0  0.2952896604599005  0.6693867166108589  0.4296775646818388  1.0000
  C   C6        1.0  0.7047057164631241  0.3306138591746333  0.5703194075832485  1.0000
  C   C7        1.0  0.5204643438514082  0.6089582379516825  0.3098015132475496  1.0000
  C   C8        1.0  0.4795390563576661  0.3910397299682983  0.6901980814702426  1.0000
  S   S1        1.0  0.02855489419415851  0.3313894825527867  0.8948107781901979  1.0000
  S   S2        1.0  0.9714464548123162  0.6686097501346493  0.10519015179674078  1.0000
  S   S3        1.0  0.0011423917287345022  0.841502871297223  0.625925192186898  1.0000
  S   S4        1.0  0.9988593631014665  0.158492528051525  0.3740744685334931  1.0000
  N   N1        1.0  0.4561124317011433  0.7340716317524851  0.924098137658042  1.0000
  N   N2        1.0  0.5438942676117478  0.2659314635267052  0.0759019923062496  1.0000
  N   N3        1.0  0.6253711451713784  0.8577955111671609  0.9279335736227876  1.0000
  N   N4        1.0  0.3746213188251488  0.14221405476276064  0.0720632689342438  1.0000
  N   N5        1.0  0.36125363076304495  0.9423887391174118  0.8225574831066211  1.0000
  N   N6        1.0  0.6387529444033788  0.05761562089698909  0.1774439596154593  1.0000
  N   N7        1.0  0.45990494287038075  0.7899070041469896  0.4172025101279643  1.0000
  N   N8        1.0  0.5400945865342949  0.210090983404008  0.5827957951090994  1.0000
  N   N9        1.0  0.6029052783145658  0.7511734961845277  0.3410365764423701  1.0000
  N   N10       1.0  0.3970942510901097  0.24882449136647009  0.6589617287947007  1.0000
  N   N11       1.0  0.3291387579576579  0.5548388742012376  0.36414557266377306  1.0000
  N   N12       1.0  0.6708606222623175  0.44516040743476276  0.6358520435759443  1.0000
  O   O1        1.0  0.8444835445127906  0.4771869228325301  0.9182205813654889  1.0000
  O   O2        1.0  0.1555161841530435  0.5228097119338809  0.08178241637919109  1.0000
  O   O3        1.0  0.299953266569446  0.3838901161590228  0.8946824579861213  1.0000
  O   O4        1.0  0.7000500345313795  0.6161090871463838  0.10532045124460149  1.0000
  O   O5        1.0  0.0011942829246721028  0.17889503334184545  0.9556974654452686  1.0000
  O   O6        1.0  0.9988076127441586  0.8210990817051564  0.04430221702075699  1.0000
  O   O7        1.0  0.9705189116647833  0.28417423282314047  0.8010374285596453  1.0000
  O   O8        1.0  0.02948587728414515  0.715828842921766  0.19896405841942058  1.0000
  O   O9        1.0  0.892100096785377  0.9759680749005993  0.6894523975595277  1.0000
  O   O10       1.0  0.1078973981088538  0.024031157851332793  0.3105485774501062  1.0000
  O   O11       1.0  0.002577681322279118  0.6694759235567103  0.6713555297283518  1.0000
  O   O12       1.0  0.9974200952492042  0.33052074059173714  0.32864548877253696  1.0000
  O   O13       1.0  0.841548193363728  0.8477525368073413  0.5452996078471128  1.0000
  O   O14       1.0  0.1584476478055521  0.15224413715661456  0.45470076591341513  1.0000
  O   O15       1.0  0.2740194306002905  0.8796516272325758  0.6031683636175841  1.0000
  O   O16       1.0  0.7259806955431927  0.12034118397840388  0.3968326976088433  1.0000
