data_image0
_chemical_formula_structural       Hg4H28C32N12Cl8O4
_chemical_formula_sum              "Hg4 H28 C32 N12 Cl8 O4"
_cell_length_a       6.145962653193894
_cell_length_b       7.949835925360973
_cell_length_c       23.189890265121132
_cell_angle_alpha    89.99963118523912
_cell_angle_beta     90.00015343998271
_cell_angle_gamma    109.04281534826858

_space_group_name_H-M_alt    "P 1"
_space_group_IT_number       1

loop_
  _space_group_symop_operation_xyz
  'x, y, z'

loop_
  _atom_site_type_symbol
  _atom_site_label
  _atom_site_symmetry_multiplicity
  _atom_site_fract_x
  _atom_site_fract_y
  _atom_site_fract_z
  _atom_site_occupancy
  Hg  Hg1       1.0  0.6682542602488509  0.9895491662523881  0.7142711921208048  1.0000
  Hg  Hg2       1.0  0.3317394714208248  0.5104520806887294  0.21426922699503584  1.0000
  Hg  Hg3       1.0  0.33175845616193567  0.0104566716493935  0.28573195273935426  1.0000
  Hg  Hg4       1.0  0.6682558388736126  0.48954693360119705  0.7857334866436858  1.0000
  H   H1        1.0  0.07512924208926108  0.1134956733285364  0.5374996438195864  1.0000
  H   H2        1.0  0.9248612546034137  0.38649897923683335  0.037493416073346  1.0000
  H   H3        1.0  0.9248628182100801  0.8864993302402553  0.4625056571566971  1.0000
  H   H4        1.0  0.07514765359870519  0.6135054901515602  0.9625092975644944  1.0000
  H   H5        1.0  0.5666702485595039  0.35266034493277226  0.48787578605200815  1.0000
  H   H6        1.0  0.4333084088908946  0.1473431010717546  0.9878679786080936  1.0000
  H   H7        1.0  0.43335762126375227  0.6473668581237175  0.5121204592320225  1.0000
  H   H8        1.0  0.5666624569243979  0.8526397377510263  0.0121217983674171  1.0000
  H   H9        1.0  0.663883773598009  0.5470984878538159  0.5751675265634687  1.0000
  H   H10       1.0  0.3361390858821806  0.952917575079283  0.07516674640853438  1.0000
  H   H11       1.0  0.3361500777163257  0.4529314332664427  0.4248287187198159  1.0000
  H   H12       1.0  0.6638519175454504  0.04707079469798709  0.9248260491252224  1.0000
  H   H13       1.0  0.9488937908168321  0.51715637338782  0.6456324245886904  1.0000
  H   H14       1.0  0.0511248244727298  0.9828596682937416  0.1456322263461658  1.0000
  H   H15       1.0  0.051116194095719415  0.4828507571951021  0.354365545600281  1.0000
  H   H16       1.0  0.9488765070126773  0.0171341186282348  0.8543618628526984  1.0000
  H   H17       1.0  0.32836106384185365  0.5547868968103555  0.674600807540898  1.0000
  H   H18       1.0  0.671653334545418  0.9452100224135193  0.17460072817858216  1.0000
  H   H19       1.0  0.671637536156169  0.4452081826778595  0.3254006124362121  1.0000
  H   H20       1.0  0.3283664400728696  0.0548011946831579  0.8254045727902762  1.0000
  H   H21       1.0  0.1643233036992839  0.014399988756068195  0.6260206883658697  1.0000
  H   H22       1.0  0.8356722711719795  0.48558912124495623  0.1260146064522658  1.0000
  H   H23       1.0  0.835663871674967  0.9855909851682012  0.373982025278643  1.0000
  H   H24       1.0  0.16433286852509352  0.5144060341587107  0.8739833637480742  1.0000
  H   H25       1.0  0.6440996926246568  0.1271652895246902  0.43729842012245257  1.0000
  H   H26       1.0  0.35588114964629364  0.3728205716846843  0.9372913514516057  1.0000
  H   H27       1.0  0.35589400259794945  0.872829733038813  0.5627042935200635  1.0000
  H   H28       1.0  0.6441120072137991  0.627173120358826  0.062705325078646  1.0000
  C   C1        1.0  0.029365878296481202  0.3139985336091796  0.5951853191357728  1.0000
  C   C2        1.0  0.9706268718907862  0.18600038114455944  0.09518387964078559  1.0000
  C   C3        1.0  0.9706484730379471  0.6860073232833556  0.4048156696130078  1.0000
  C   C4        1.0  0.02935974527137821  0.8139932349716045  0.9048175403334255  1.0000
  C   C5        1.0  0.9836251325379518  0.2073707500151798  0.546079051988471  1.0000
  C   C6        1.0  0.016366435898106588  0.2926303787883171  0.04607364062788119  1.0000
  C   C7        1.0  0.016377754467583737  0.7926389468005863  0.4539258177533085  1.0000
  C   C8        1.0  0.9836278373884043  0.7073580288476293  0.953928210577345  1.0000
  C   C9        1.0  0.8137922635751592  0.22024086449955857  0.5077928936174629  1.0000
  C   C10       1.0  0.18619164188486073  0.2797542581074737  0.007785051140182  1.0000
  C   C11       1.0  0.1862329343198893  0.7797757128765496  0.4922085263459904  1.0000
  C   C12       1.0  0.8137716273723823  0.7202218708736152  0.9922103317309805  1.0000
  C   C13       1.0  0.6978188720567714  0.3427754139483099  0.5181204913668793  1.0000
  C   C14       1.0  0.30216828146740926  0.15722750225822318  0.018119905621190896  1.0000
  C   C15       1.0  0.3022035347801121  0.6572543743634822  0.481877047579431  1.0000
  C   C16       1.0  0.6977938713701591  0.8427539110591126  0.9818780645780976  1.0000
  C   C17       1.0  0.7515061003343178  0.4503732195965496  0.5669843586867741  1.0000
  C   C18       1.0  0.24849631121823987  0.049646191021466286  0.06698051969448218  1.0000
  C   C19       1.0  0.2485125181483241  0.5496512274384457  0.43301361148638046  1.0000
  C   C20       1.0  0.7514946922078989  0.9503421787716558  0.9330105509497031  1.0000
  C   C21       1.0  0.9157531507181529  0.43663970740279706  0.6065999745468602  1.0000
  C   C22       1.0  0.08425975687756446  0.06336452858160159  0.1065972753326037  1.0000
  C   C23       1.0  0.08426329448469255  0.563383390054092  0.3934014454061199  1.0000
  C   C24       1.0  0.9157307479035308  0.9366145650735831  0.8933994012127257  1.0000
  C   C25       1.0  0.3238504154166009  0.41740963845665385  0.6732115585645531  1.0000
  C   C26       1.0  0.6761539344454446  0.0825840024930002  0.17320840021486109  1.0000
  C   C27       1.0  0.6761475469542261  0.5826039742493233  0.3267881365023371  1.0000
  C   C28       1.0  0.3238441470474951  0.9174057736801086  0.8267912948783263  1.0000
  C   C29       1.0  0.24328149163122245  0.1400796569662361  0.6479516882169847  1.0000
  C   C30       1.0  0.7567102733674885  0.35991562699221186  0.1479475485252024  1.0000
  C   C31       1.0  0.7567279549292961  0.8599261429857349  0.3520523190867734  1.0000
  C   C32       1.0  0.2432720170827948  0.640071317275648  0.8520538714547286  1.0000
  N   N1        1.0  0.3959376874520757  0.17066271733624913  0.690002794995671  1.0000
  N   N2        1.0  0.6040644785445508  0.32933721102467234  0.18999817649753226  1.0000
  N   N3        1.0  0.6040521598529976  0.8293388822406698  0.3099977625261801  1.0000
  N   N4        1.0  0.3959504508507833  0.6706620309719965  0.8099985000348084  1.0000
  N   N5        1.0  0.44680928137102427  0.3455689446725359  0.7054692751559912  1.0000
  N   N6        1.0  0.5531929313076915  0.15442672670760513  0.2054650035634111  1.0000
  N   N7        1.0  0.5531909337018205  0.654430126510391  0.2945355945964891  1.0000
  N   N8        1.0  0.44681707346153826  0.8455764310881404  0.7945364164090944  1.0000
  N   N9        1.0  0.19366791410480738  0.2925342194484698  0.6358367397202115  1.0000
  N   N10       1.0  0.8063276976471698  0.20745073740946648  0.1358308170406843  1.0000
  N   N11       1.0  0.8063214345522312  0.7074581040222154  0.3641659739236329  1.0000
  N   N12       1.0  0.19368778995950467  0.7925458624032373  0.864166290717172  1.0000
  Cl  Cl1       1.0  0.5987954638061693  0.8432612651980378  0.620403267525539  1.0000
  Cl  Cl2       1.0  0.4011910468350805  0.656736327504987  0.120401463744443  1.0000
  Cl  Cl3       1.0  0.40120638619105603  0.15673782496772048  0.3796003085603488  1.0000
  Cl  Cl4       1.0  0.5988048216706899  0.3432600446009673  0.8796016811197943  1.0000
  Cl  Cl5       1.0  0.9337523157121835  0.23844676027207604  0.7677790562706335  1.0000
  Cl  Cl6       1.0  0.06625323519607207  0.26155574947775045  0.26777892557237937  1.0000
  Cl  Cl7       1.0  0.06624680279279717  0.7615536225114211  0.23222624470238165  1.0000
  Cl  Cl8       1.0  0.9337474983792403  0.7384486250480222  0.7322246505072698  1.0000
  O   O1        1.0  0.7687611641404214  0.10963263068316556  0.46132835427223273  1.0000
  O   O2        1.0  0.2312109671167021  0.3903593090581196  0.9613168408952149  1.0000
  O   O3        1.0  0.23123847286702662  0.8903730554431772  0.5386756530279584  1.0000
  O   O4        1.0  0.7687680336232601  0.6096315700827759  0.0386781107432341  1.0000
