data_image0
_chemical_formula_structural       Ni2H46C38N2O18
_chemical_formula_sum              "Ni2 H46 C38 N2 O18"
_cell_length_a       7.619652842079805
_cell_length_b       8.939234357442649
_cell_length_c       14.821441122795363
_cell_angle_alpha    105.75764050603355
_cell_angle_beta     96.1822625514725
_cell_angle_gamma    92.43389738478388

_space_group_name_H-M_alt    "P 1"
_space_group_IT_number       1

loop_
  _space_group_symop_operation_xyz
  'x, y, z'

loop_
  _atom_site_type_symbol
  _atom_site_label
  _atom_site_symmetry_multiplicity
  _atom_site_fract_x
  _atom_site_fract_y
  _atom_site_fract_z
  _atom_site_occupancy
  Ni  Ni1       1.0  0.500000012476569  0.499999868355445  0.9999998892675139  1.0000
  Ni  Ni2       1.0  0.9999997694584265  0.49999994028156186  0.9999994193165946  1.0000
  H   H1        1.0  0.20929934248632515  0.6951793647355514  0.9658750089811792  1.0000
  H   H2        1.0  0.7907025291002084  0.30481828945638506  0.03412521401152448  1.0000
  H   H3        1.0  0.18460251708638245  0.5556659407541885  0.8786437129929325  1.0000
  H   H4        1.0  0.8153982178096227  0.4443340381091686  0.1213568423787947  1.0000
  H   H5        1.0  0.21419750698681378  0.29976528342114506  0.9783747696346199  1.0000
  H   H6        1.0  0.7858018157228058  0.7002335114943389  0.021626182025478554  1.0000
  H   H7        1.0  0.2802005376047845  0.41286066943109023  0.0903847790889714  1.0000
  H   H8        1.0  0.719800197657399  0.5871392974488501  0.9096164490024492  1.0000
  H   H9        1.0  0.22070293748437558  0.7339111769895367  0.277486804397448  1.0000
  H   H10       1.0  0.7793006214182298  0.2660911817529623  0.7225122856778513  1.0000
  H   H11       1.0  0.3410996745369204  0.9094363560615051  0.4369809187190654  1.0000
  H   H12       1.0  0.6589026557211426  0.09056716180712238  0.5630183007984828  1.0000
  H   H13       1.0  0.9567820410952235  0.11244474801973328  0.21157155971022232  1.0000
  H   H14       1.0  0.043214640051111496  0.8875540460408472  0.7884285722410881  1.0000
  H   H15       1.0  0.06617708115948769  0.13859022061277665  0.5758726725561517  1.0000
  H   H16       1.0  0.9338211957150832  0.861412100469664  0.4241267962606798  1.0000
  H   H17       1.0  0.18341720258163718  0.2975295203411291  0.7385062522035426  1.0000
  H   H18       1.0  0.8165823952576686  0.7024727951770584  0.2614939628275224  1.0000
  H   H19       1.0  0.63778744708614  0.45905352633453583  0.6336925276410598  1.0000
  H   H20       1.0  0.3622096934640809  0.5409511074359017  0.366307946274496  1.0000
  H   H21       1.0  0.7590821684267296  0.3159597241317512  0.39624712754833524  1.0000
  H   H22       1.0  0.2409171528181772  0.6840391187173933  0.6037511332329828  1.0000
  H   H23       1.0  0.7961126805743601  0.28388580610113207  0.510531617735154  1.0000
  H   H24       1.0  0.20388682421239673  0.7161153798220068  0.4894663762000421  1.0000
  H   H25       1.0  0.7331469940098214  0.46978155622358025  0.4987363858370203  1.0000
  H   H26       1.0  0.26685788512515524  0.5302208209214994  0.5012621050131258  1.0000
  H   H27       1.0  0.012483560432492914  0.518605621555814  0.3453069984146353  1.0000
  H   H28       1.0  0.9875143478936648  0.4813920613122987  0.6546903132156601  1.0000
  H   H29       1.0  0.8793939787273712  0.34695159196905917  0.2795929323734327  1.0000
  H   H30       1.0  0.12060647994041315  0.6530449022418451  0.7204063414682409  1.0000
  H   H31       1.0  0.0983206301521946  0.38062916400935615  0.250883340535168  1.0000
  H   H32       1.0  0.9016772789063194  0.6193684948919226  0.749115316534521  1.0000
  H   H33       1.0  0.5709668001418963  0.802497450807415  0.16363574038387438  1.0000
  H   H34       1.0  0.42903639204318716  0.19750020980368524  0.8363645561033695  1.0000
  H   H35       1.0  0.2712412574889953  0.9504508778938713  0.004448079509870634  1.0000
  H   H36       1.0  0.7287539209816528  0.049545518739897376  0.9955549366718089  1.0000
  H   H37       1.0  0.3900129824511325  0.13690938635588878  0.0517958499482702  1.0000
  H   H38       1.0  0.6099821952871524  0.8630870342447068  0.9482058207940157  1.0000
  H   H39       1.0  0.20559963890461563  0.08732959153936548  0.10507689794678751  1.0000
  H   H40       1.0  0.7943981807631317  0.9126668179327166  0.8949262652239725  1.0000
  H   H41       1.0  0.6060921354799332  0.03046799851501449  0.2596474035637186  1.0000
  H   H42       1.0  0.3939084155080437  0.9695296492577651  0.7403527459344376  1.0000
  H   H43       1.0  0.41959472675566184  0.14565403006545094  0.2615114915533497  1.0000
  H   H44       1.0  0.5804072378834134  0.854344753721527  0.7384909525352158  1.0000
  H   H45       1.0  0.6005583650590366  0.18191837065243985  0.2014001314441742  1.0000
  H   H46       1.0  0.39943954436565576  0.8180792762654291  0.7985991983452082  1.0000
  C   C1        1.0  0.9989157326093616  0.8049491218048173  0.14377489896320128  1.0000
  C   C2        1.0  0.0010850011881088997  0.19505089300877637  0.8562236382494464  1.0000
  C   C3        1.0  0.07883595330037708  0.913059995629851  0.2369147728202208  1.0000
  C   C4        1.0  0.9211675136482143  0.08694119756735567  0.7630841143182895  1.0000
  C   C5        1.0  0.1896259523806236  0.8552808900484264  0.29908760946516116  1.0000
  C   C6        1.0  0.8103776068881599  0.14472145671066267  0.7009121533298314  1.0000
  C   C7        1.0  0.255488254506666  0.9532750988702431  0.3877279230245634  1.0000
  C   C8        1.0  0.7445139845297389  0.046727229486265294  0.6122724389955823  1.0000
  C   C9        1.0  0.216385130070023  0.10915928584721256  0.41540306820441236  1.0000
  C   C10       1.0  0.7836156044598042  0.8908407049995544  0.5845968144476217  1.0000
  C   C11       1.0  0.11305752186773789  0.16879082890168454  0.35003098921620085  1.0000
  C   C12       1.0  0.8869446248484817  0.8312103458929484  0.6499684971474693  1.0000
  C   C13       1.0  0.041134757082318195  0.0700851520112948  0.2620111014943447  1.0000
  C   C14       1.0  0.9588672976798874  0.929914857238053  0.7379881819325362  1.0000
  C   C15       1.0  0.2836635076515321  0.20865729775231756  0.5117356748549399  1.0000
  C   C16       1.0  0.7163359978675813  0.7913438642039947  0.4882636645196428  1.0000
  C   C17       1.0  0.19084214778546027  0.20979469479765805  0.5881424394193575  1.0000
  C   C18       1.0  0.8091562210431247  0.7902087918300679  0.4118572323342562  1.0000
  C   C19       1.0  0.25620172974404193  0.298316405968066  0.6794179448618964  1.0000
  C   C20       1.0  0.7437979604154562  0.7016870631119971  0.32058314582565123  1.0000
  C   C21       1.0  0.4166672734675813  0.3888158274657129  0.6952586505702741  1.0000
  C   C22       1.0  0.5833310957271889  0.6111876471786033  0.3047416939030327  1.0000
  C   C23       1.0  0.512872556850695  0.38837617961353027  0.6196308989877508  1.0000
  C   C24       1.0  0.48712572002387583  0.6116261414689105  0.3803685698290736  1.0000
  C   C25       1.0  0.4477175083242102  0.29749562201859436  0.5285855105539667  1.0000
  C   C26       1.0  0.5522808605043751  0.7025078646091313  0.47141416119964674  1.0000
  C   C27       1.0  0.49244592405075577  0.4793572796645619  0.7935438801488105  1.0000
  C   C28       1.0  0.5075534902466927  0.5206426927796313  0.20645660172837668  1.0000
  C   C29       1.0  0.7162317452732124  0.343365790062002  0.46641844328600973  1.0000
  C   C30       1.0  0.2837677595135446  0.6566353958611371  0.5335795506491863  1.0000
  C   C31       1.0  0.015626784084830096  0.39503012086012745  0.30846402692365166  1.0000
  C   C32       1.0  0.9843714004695554  0.604971046660438  0.6915345662366974  1.0000
  C   C33       1.0  0.477851755377955  0.8322522713497021  0.11058820678184127  1.0000
  C   C34       1.0  0.5221489795180502  0.16774770751364798  0.8894123485898933  1.0000
  C   C35       1.0  0.3189740827261075  0.04134779647403519  0.069379286364132  1.0000
  C   C36       1.0  0.6810225075647477  0.9586497960910091  0.9306226608094833  1.0000
  C   C37       1.0  0.5206751136837154  0.0906354148088298  0.21888167685290233  1.0000
  C   C38       1.0  0.47932420939207526  0.9093633681232444  0.7811199475268894  1.0000
  N   N1        1.0  0.438002581734537  0.9797287638311474  0.1318142708176921  1.0000
  N   N2        1.0  0.5619966493872467  0.02026885355563479  0.8681871506253103  1.0000
  O   O1        1.0  0.06773083600175768  0.6740368045908838  0.1193394308731897  1.0000
  O   O2        1.0  0.9322698985280694  0.32596318625588333  0.8806604517788444  1.0000
  O   O3        1.0  0.8694360439585792  0.8472318483233178  0.09713300928130042  1.0000
  O   O4        1.0  0.1305646909374332  0.15276813054003205  0.9028675460904271  1.0000
  O   O5        1.0  0.6415384460245546  0.554291711751432  0.8060481200240377  1.0000
  O   O6        1.0  0.35846115181474386  0.4457106037667558  0.1939520950070275  1.0000
  O   O7        1.0  0.4000630682729494  0.47036292994053497  0.8605719168249241  1.0000
  O   O8        1.0  0.5999374830812126  0.529634705848828  0.1394289053929256  1.0000
  O   O9        1.0  0.08916091455785849  0.3244597868853701  0.37883484925509253  1.0000
  O   O10       1.0  0.9108385913274332  0.6755413630875253  0.6211651628391835  1.0000
  O   O11       1.0  0.5343130143691113  0.2847093409974447  0.45118609096783063  1.0000
  O   O12       1.0  0.4656868589660589  0.7152964831400224  0.5488140601539016  1.0000
  O   O13       1.0  0.11384183817121848  0.6316660251529952  0.9183103651246967  1.0000
  O   O14       1.0  0.8861601257355075  0.36833278260081664  0.08169073352448208  1.0000
  O   O15       1.0  0.25152397792734144  0.412144570323619  0.020540081837580677  1.0000
  O   O16       1.0  0.7484753447822783  0.587854224591865  0.9794608698225107  1.0000
  O   O17       1.0  0.41845701077667735  0.7297923293337406  0.03459092606586716  1.0000
  O   O18       1.0  0.5815448604436781  0.2702053368416131  0.965408624207136  1.0000
