data_image0
_chemical_formula_structural       Zn8H68C72N4O26
_chemical_formula_sum              "Zn8 H68 C72 N4 O26"
_cell_length_a       17.795701411671597
_cell_length_b       18.643338157947902
_cell_length_c       23.335179232616564
_cell_angle_alpha    66.65275647430778
_cell_angle_beta     69.75964593021241
_cell_angle_gamma    89.95219495723333

_space_group_name_H-M_alt    "P 1"
_space_group_IT_number       1

loop_
  _space_group_symop_operation_xyz
  'x, y, z'

loop_
  _atom_site_type_symbol
  _atom_site_label
  _atom_site_symmetry_multiplicity
  _atom_site_fract_x
  _atom_site_fract_y
  _atom_site_fract_z
  _atom_site_occupancy
  Zn  Zn1       1.0  0.1177546768706037  0.5313025845314385  0.9411423002246054  1.0000
  Zn  Zn2       1.0  0.9715640195712965  0.5595132922616911  0.051485190704738636  1.0000
  Zn  Zn3       1.0  0.9752550417230524  0.3893496050428311  0.05157555674539074  1.0000
  Zn  Zn4       1.0  0.9384151569959586  0.5306437793860682  0.9348566579128174  1.0000
  Zn  Zn5       1.0  0.38499107423911744  0.97696778853949  0.05061112314058373  1.0000
  Zn  Zn6       1.0  0.5289612821589956  0.11603982243018149  0.936154330156988  1.0000
  Zn  Zn7       1.0  0.5232689202238917  0.9463080862817179  0.9369753667987479  1.0000
  Zn  Zn8       1.0  0.5668510719947336  0.9729824000758995  0.051049136921520084  1.0000
  H   H1        1.0  0.49883211888229084  0.8661403061838088  0.26320226975879973  1.0000
  H   H2        1.0  0.4354550335057042  0.8018478474221951  0.38890715631362843  1.0000
  H   H3        1.0  0.2619511490780297  0.8725060906690416  0.2535451439711451  1.0000
  H   H4        1.0  0.24872711005081533  0.6301505412864472  0.736945325856098  1.0000
  H   H5        1.0  0.013206877425709303  0.6359848599917939  0.7246890909030056  1.0000
  H   H6        1.0  0.07809813561669192  0.6974027599761854  0.5990528567062938  1.0000
  H   H7        1.0  0.6320327058978279  0.017321118275376104  0.7301430614149781  1.0000
  H   H8        1.0  0.7035829002470919  0.07972397060341048  0.6048138582568114  1.0000
  H   H9        1.0  0.6285354388546338  0.247631311534839  0.7303964598406978  1.0000
  H   H10       1.0  0.8700261609188189  0.2571713662851706  0.25901148224630083  1.0000
  H   H11       1.0  0.8709909892207648  0.48831043680478103  0.25772190777974646  1.0000
  H   H12       1.0  0.814130901846923  0.4267501968343268  0.3836850987811218  1.0000
  H   H13       1.0  0.19714235414567585  0.30181991319901863  0.91115613583694  1.0000
  H   H14       1.0  0.12547202658179663  0.2300335266249576  0.9875146635111065  1.0000
  H   H15       1.0  0.21483046238058284  0.138311819708143  0.9845781668987711  1.0000
  H   H16       1.0  0.2862308894471042  0.21083809044007049  0.9085182965455303  1.0000
  H   H17       1.0  0.21484356557468942  0.1240722960765837  0.0958343244954207  1.0000
  H   H18       1.0  0.28674948834567  0.1848820407318641  0.10013135980788229  1.0000
  H   H19       1.0  0.12642487818563813  0.21699823556063796  0.09893617787209044  1.0000
  H   H20       1.0  0.19968842059823547  0.2779660945131255  0.1016504793129727  1.0000
  H   H21       1.0  0.30146065637654834  0.39111912750769307  0.9143944236441328  1.0000
  H   H22       1.0  0.30253576871717774  0.38246639860388854  0.9918757359319982  1.0000
  H   H23       1.0  0.39111635447149956  0.2898907331814017  0.9905679591434617  1.0000
  H   H24       1.0  0.3907122032172766  0.2994929267701281  0.9127212537596775  1.0000
  H   H25       1.0  0.8903596546532597  0.8005280252342077  0.904769490740975  1.0000
  H   H26       1.0  0.8876984582057831  0.7879868580365753  0.9847243354139721  1.0000
  H   H27       1.0  0.7987823392004857  0.8804815234817057  0.9859107747881096  1.0000
  H   H28       1.0  0.8016852617156758  0.8919610524494814  0.9061330731450494  1.0000
  H   H29       1.0  0.6956517171595921  0.7773673630969926  0.09162331906725989  1.0000
  H   H30       1.0  0.6234306779335128  0.7158586368593447  0.08827866366922874  1.0000
  H   H31       1.0  0.7832147434364599  0.6835754647738383  0.09065994776439375  1.0000
  H   H32       1.0  0.7111349592944051  0.6235990304261066  0.08566098323923654  1.0000
  H   H33       1.0  0.7888357424626804  0.7128770381277364  0.8970889495437007  1.0000
  H   H34       1.0  0.7159378619747869  0.6401694511252954  0.9706641137827106  1.0000
  H   H35       1.0  0.6265708912474537  0.7318929646612915  0.972928567929138  1.0000
  H   H36       1.0  0.6992981923143304  0.8042976716659567  0.8991486415339196  1.0000
  H   H37       1.0  0.16178287053903517  0.7928846636782295  0.9373924048500937  1.0000
  H   H38       1.0  0.24602609812617973  0.7566279522730852  0.8965726147209949  1.0000
  H   H39       1.0  0.3332628743519876  0.8521569471545617  0.8944612299239624  1.0000
  H   H40       1.0  0.2485367476198874  0.8871716557629413  0.9361837367352948  1.0000
  H   H41       1.0  0.3934309087146702  0.7433167246921786  0.9614222013399354  1.0000
  H   H42       1.0  0.35250272502069185  0.7021010842921598  0.05029536918955542  1.0000
  H   H43       1.0  0.30501700914388863  0.647470935298209  0.964490867951497  1.0000
  H   H44       1.0  0.26395477906160636  0.607749783371446  0.053335169364352515  1.0000
  H   H45       1.0  0.10146018122856049  0.7349216324941422  0.06545456049622793  1.0000
  H   H46       1.0  0.14275550913001916  0.6589834759895793  0.11279229725919748  1.0000
  H   H47       1.0  0.2314889835427962  0.75308632331636  0.11077113332935791  1.0000
  H   H48       1.0  0.18960143139599245  0.8290421912908172  0.06404547184941102  1.0000
  H   H49       1.0  0.8993576678876991  0.267335021868135  0.9289620841732855  1.0000
  H   H50       1.0  0.8550200060828673  0.3433664875979758  0.8837237663463994  1.0000
  H   H51       1.0  0.768756423106048  0.24780978046200636  0.8849659799876406  1.0000
  H   H52       1.0  0.812161250039111  0.17219248341001503  0.9316113538161872  1.0000
  H   H53       1.0  0.6495707894946962  0.29835800140386937  0.9446791126271847  1.0000
  H   H54       1.0  0.606572492679547  0.2575986028228954  0.03346273025888281  1.0000
  H   H55       1.0  0.736536541270965  0.39265333591824697  0.9447489494414613  1.0000
  H   H56       1.0  0.6939263105944562  0.3504022014589054  0.03354438617586201  1.0000
  H   H57       1.0  0.839546184745224  0.205568477543018  0.05696563289927068  1.0000
  H   H58       1.0  0.7565803126768743  0.2398061145985437  0.1002384275118899  1.0000
  H   H59       1.0  0.667171183668714  0.14722694242430384  0.10131142893319374  1.0000
  H   H60       1.0  0.750169969324226  0.11149023160706409  0.05971421034266202  1.0000
  H   H61       1.0  0.15559194727563866  0.787313188150556  0.4364201950999415  1.0000
  H   H62       1.0  0.1451147435126998  0.8291042858504198  0.35996297878292444  1.0000
  H   H63       1.0  0.3569799134234657  0.7288087932750926  0.5542348914697256  1.0000
  H   H64       1.0  0.3666075697911283  0.6941978193127198  0.6309757617937065  1.0000
  H   H65       1.0  0.7246015845106585  0.352209688763935  0.5466705584278202  1.0000
  H   H66       1.0  0.678947575601562  0.3627478371003718  0.6202948635075458  1.0000
  H   H67       1.0  0.7758469922295177  0.1544694883647182  0.44290477412419443  1.0000
  H   H68       1.0  0.8059512654577077  0.1433834524548416  0.3690092623010486  1.0000
  C   C1        1.0  0.14120089875298453  0.6347645094055423  0.003626094958995803  1.0000
  C   C2        1.0  0.9076640414359007  0.4121021269784394  0.1766336305495883  1.0000
  C   C3        1.0  0.144045879237261  0.36431106419232867  0.0012559451733906528  1.0000
  C   C4        1.0  0.8611149211007074  0.3659567482092569  0.9900018837542675  1.0000
  C   C5        1.0  0.09004907790242105  0.5932299425974393  0.812878542495639  1.0000
  C   C6        1.0  0.8608622302820167  0.6436996929878661  0.9890506170785683  1.0000
  C   C7        1.0  0.3601019666403858  0.14209799174616927  0.9965993812512011  1.0000
  C   C8        1.0  0.5838194424326417  0.0928669856969293  0.8114175103746105  1.0000
  C   C9        1.0  0.35541804563588647  0.8627447072073621  0.9988143955991048  1.0000
  C   C10       1.0  0.6440546813136124  0.8657424424758704  0.9921133931540354  1.0000
  C   C11       1.0  0.4196873067253649  0.9122977620928837  0.1761904246802785  1.0000
  C   C12       1.0  0.646841820889648  0.14004983699665982  0.991657196207342  1.0000
  C   C13       1.0  0.3834488369728177  0.873171136290118  0.25147311895551633  1.0000
  C   C14       1.0  0.4332112874403364  0.8531031571263058  0.2892388118016882  1.0000
  C   C15       1.0  0.3976612235205438  0.8174067218967237  0.3589864238924961  1.0000
  C   C16       1.0  0.3125365684088948  0.8003302479020817  0.3930806352322802  1.0000
  C   C17       1.0  0.2621756391985315  0.8201044074052037  0.35451605519221363  1.0000
  C   C18       1.0  0.2991053873144481  0.85665587549083  0.2840515625389912  1.0000
  C   C19       1.0  0.27565740442680214  0.7648397767528295  0.464033152853176  1.0000
  C   C20       1.0  0.23810444174799272  0.7343313108378593  0.5252532820068366  1.0000
  C   C21       1.0  0.200494796283806  0.699008310351438  0.5961608356233511  1.0000
  C   C22       1.0  0.2500103594612426  0.6796831211400445  0.6354391343280028  1.0000
  C   C23       1.0  0.21223531538130666  0.6454586511996612  0.7058774961108936  1.0000
  C   C24       1.0  0.1278144323643247  0.6298706033198727  0.7376767502964086  1.0000
  C   C25       1.0  0.07889184877955562  0.6484779379810988  0.6991831079723596  1.0000
  C   C26       1.0  0.11527784644421502  0.6825424545676454  0.6294917134702231  1.0000
  C   C27       1.0  0.6259989931707112  0.12956261585105008  0.7367167582363408  1.0000
  C   C28       1.0  0.6472277134496522  0.08127214989077908  0.701959229499586  1.0000
  C   C29       1.0  0.6868731925581316  0.11619375530384701  0.6326192056578038  1.0000
  C   C30       1.0  0.7063172316366746  0.19922041280985073  0.5962445363096903  1.0000
  C   C31       1.0  0.685760068450449  0.24812144734223548  0.6317922726320263  1.0000
  C   C32       1.0  0.6452779265489283  0.2118106192712546  0.7019405377079836  1.0000
  C   C33       1.0  0.7441186942869181  0.2352479812286887  0.5254891718962753  1.0000
  C   C34       1.0  0.7750363922339715  0.27129322703829933  0.46399351496869917  1.0000
  C   C35       1.0  0.8090737024297212  0.306930672731788  0.39305570212729174  1.0000
  C   C36       1.0  0.8249918051890432  0.25758427501151  0.3577995720020796  1.0000
  C   C37       1.0  0.8570478710203987  0.29341500789918484  0.28720456354037077  1.0000
  C   C38       1.0  0.8731988141429597  0.3756736161026737  0.2517450357428216  1.0000
  C   C39       1.0  0.8578840393653664  0.4243680864261136  0.2863327029040121  1.0000
  C   C40       1.0  0.8263939420281687  0.3899154572783203  0.3560712508005464  1.0000
  C   C41       1.0  0.1888681763094624  0.25960254826430423  0.9625630360150623  1.0000
  C   C42       1.0  0.2481142622638545  0.19876984645896562  0.9608150269675945  1.0000
  C   C43       1.0  0.3032271188331209  0.20298171673479712  0.9985472133255088  1.0000
  C   C44       1.0  0.24841594072319137  0.18435478205878297  0.07201091186761488  1.0000
  C   C45       1.0  0.18997673946016388  0.24582653382525158  0.07351468532053931  1.0000
  C   C46       1.0  0.20385301673245237  0.3058055917835176  0.0011021856775811777  1.0000
  C   C47       1.0  0.29208887960216157  0.3480875863882744  0.9656661161206941  1.0000
  C   C48       1.0  0.350904834035596  0.2871521518075256  0.964552459373607  1.0000
  C   C49       1.0  0.849486335864313  0.7868377600699927  0.9567626909445793  1.0000
  C   C50       1.0  0.7903809226520906  0.8480105943952907  0.9576754041559354  1.0000
  C   C51       1.0  0.7017106221362185  0.8053351350336015  0.9907222056538741  1.0000
  C   C52       1.0  0.6869879731056231  0.7451850055208382  0.06331182471237178  1.0000
  C   C53       1.0  0.7453526285322596  0.683731703013912  0.0621613037996197  1.0000
  C   C54       1.0  0.8012720895557947  0.7024498381513808  0.9888080383285355  1.0000
  C   C55       1.0  0.7490849351590115  0.7003394821872108  0.9490035314159043  1.0000
  C   C56       1.0  0.6899555290551191  0.7610381035528421  0.9503613372960088  1.0000
  C   C57       1.0  0.21847253377541162  0.7709131856375252  0.939960521804892  1.0000
  C   C58       1.0  0.2764097455768849  0.8338409033760357  0.9387804934442698  1.0000
  C   C59       1.0  0.2964704829595206  0.7999127366637921  0.0030905324825594967  1.0000
  C   C60       1.0  0.3364570025194312  0.7257424055418652  0.005470035452091776  1.0000
  C   C61       1.0  0.277836483515415  0.6627568959047992  0.007303694193033859  1.0000
  C   C62       1.0  0.19807913780032751  0.6941047037898898  0.00545111794548351  1.0000
  C   C63       1.0  0.15878637839503543  0.7136795156061951  0.06629473283450682  1.0000
  C   C64       1.0  0.21727759014066095  0.7761161935648246  0.06509179316039833  1.0000
  C   C65       1.0  0.8413251783954439  0.2879076761067196  0.9292600261275581  1.0000
  C   C66       1.0  0.7834145728117364  0.2247652451588706  0.9303923856118246  1.0000
  C   C67       1.0  0.7036750650850581  0.19987567790590793  0.9931408976274624  1.0000
  C   C68       1.0  0.6643523963618988  0.274603741237577  0.9899902787987642  1.0000
  C   C69       1.0  0.722318841744972  0.3367392003650592  0.9898329949627751  1.0000
  C   C70       1.0  0.8018142643761905  0.30514921684999047  0.9919927605690759  1.0000
  C   C71       1.0  0.7826208287923961  0.22738728180985388  0.05564228389678768  1.0000
  C   C72       1.0  0.7238039660990835  0.16549771496917737  0.056739822793154815  1.0000
  N   N1        1.0  0.17916728847112753  0.8010982373986693  0.3864000228085798  1.0000
  N   N2        1.0  0.3331718416640967  0.6923197114283964  0.6041114736404722  1.0000
  N   N3        1.0  0.7078367187329135  0.3289276176371771  0.5974231288682716  1.0000
  N   N4        1.0  0.8112693262849717  0.17656403912621949  0.39318141605929924  1.0000
  O   O1        1.0  0.0005985062465682845  0.5031004014509719  0.9936682503855607  1.0000
  O   O2        1.0  0.1713103159628702  0.6066400008939752  0.9602126790735426  1.0000
  O   O3        1.0  0.9185473488424662  0.4876045618888724  0.14709189861599742  1.0000
  O   O4        1.0  0.07043348590522672  0.3355211541247911  0.0408963183987439  1.0000
  O   O5        1.0  0.0676247866898407  0.6190773441362651  0.044308253610473934  1.0000
  O   O6        1.0  0.17127632042992502  0.4368630169390357  0.9609910073910585  1.0000
  O   O7        1.0  0.923735423512966  0.3651873721931978  0.14773398552009795  1.0000
  O   O8        1.0  0.9009418663669495  0.339340746091132  0.028058177922559706  1.0000
  O   O9        1.0  0.012563094594369828  0.579678298144124  0.8396006321791347  1.0000
  O   O10       1.0  0.8676321593552959  0.4382786766222253  0.9498815796232021  1.0000
  O   O11       1.0  0.1384644137604383  0.5783988158259206  0.8443825338931461  1.0000
  O   O12       1.0  0.9011608616587381  0.6367276592992539  0.026367998486051654  1.0000
  O   O13       1.0  0.8665342339874725  0.6065133036501108  0.952543277680178  1.0000
  O   O14       1.0  0.5011466945689094  0.002533056150546993  0.9949574417478145  1.0000
  O   O15       1.0  0.3285170023753778  0.0692434848396175  0.031692315578219214  1.0000
  O   O16       1.0  0.5646628819858465  0.1396504535264143  0.8402352857257255  1.0000
  O   O17       1.0  0.42692742822661245  0.8781812219189292  0.9542349847667849  1.0000
  O   O18       1.0  0.4347744485264543  0.16838629025293975  0.9595730891777307  1.0000
  O   O19       1.0  0.3292750472912829  0.8958309743774961  0.038818220256636705  1.0000
  O   O20       1.0  0.570310983549767  0.0173032217223508  0.8408187579152013  1.0000
  O   O21       1.0  0.6033462946583441  0.8773657168693773  0.9547059492894264  1.0000
  O   O22       1.0  0.49697686930588975  0.922630508628508  0.14780370087230196  1.0000
  O   O23       1.0  0.640933965496629  0.9001037483107481  0.03047371209247265  1.0000
  O   O24       1.0  0.36993638011711744  0.9323953557282323  0.146206129036173  1.0000
  O   O25       1.0  0.6173438864677578  0.16671218074907304  0.9458679843013158  1.0000
  O   O26       1.0  0.6332943265046822  0.0686137525828983  0.035324898910452915  1.0000
