data_image0
_chemical_formula_structural       Zn2H24C30N8O8
_chemical_formula_sum              "Zn2 H24 C30 N8 O8"
_cell_length_a       9.834837359562618
_cell_length_b       10.963480672807899
_cell_length_c       13.980067305163217
_cell_angle_alpha    93.56438678949752
_cell_angle_beta     97.65686402952832
_cell_angle_gamma    87.2361717593229

_space_group_name_H-M_alt    "P 1"
_space_group_IT_number       1

loop_
  _space_group_symop_operation_xyz
  'x, y, z'

loop_
  _atom_site_type_symbol
  _atom_site_label
  _atom_site_symmetry_multiplicity
  _atom_site_fract_x
  _atom_site_fract_y
  _atom_site_fract_z
  _atom_site_occupancy
  Zn  Zn1       1.0  0.34835938601045063  0.48299396214839857  0.4995920724231411  1.0000
  Zn  Zn2       1.0  0.6487714483224636  0.46910859095090973  0.5109845351266173  1.0000
  H   H1        1.0  0.3466737957555496  0.4493822391603359  0.9821732042415762  1.0000
  H   H2        1.0  0.18174592695419986  0.813096470569576  0.661985055368099  1.0000
  H   H3        1.0  0.2617082275569445  0.7156174738381296  0.5769556941269373  1.0000
  H   H4        1.0  0.32114033538616127  0.7086862563915444  0.7020780480080191  1.0000
  H   H5        1.0  0.19434855277803817  0.4722767910588386  0.2482369232226844  1.0000
  H   H6        1.0  0.07855331660979199  0.6503945081704288  0.1897364487139797  1.0000
  H   H7        1.0  0.0799939047121967  0.6598146422914082  0.3175789157703832  1.0000
  H   H8        1.0  0.9296979970529408  0.6139878775582799  0.24006701276088896  1.0000
  H   H9        1.0  0.7034207771659312  0.03589850315843529  0.7085973714702831  1.0000
  H   H10       1.0  0.8751241883930305  0.07338872478825918  0.6054909263140473  1.0000
  H   H11       1.0  0.8552980381625872  0.1965443396281188  0.6941171887072244  1.0000
  H   H12       1.0  0.11771508219842268  0.32249405522890123  0.3252831178099811  1.0000
  H   H13       1.0  0.777542521818738  0.2085623632656635  0.572557867480711  1.0000
  H   H14       1.0  0.33287655299854185  0.2052726925827811  0.3209578254319895  1.0000
  H   H15       1.0  0.08912313076848481  0.15541612145486278  0.2359527317048133  1.0000
  H   H16       1.0  0.1818548550030812  0.034355382013032496  0.17797296688461023  1.0000
  H   H17       1.0  0.2198616843734769  0.1888887227955038  0.16555778915266472  1.0000
  H   H18       1.0  0.8276745544170723  0.4390551571499371  0.277248318398037  1.0000
  H   H19       1.0  0.872242075522962  0.28973129069568415  0.3206252532319169  1.0000
  H   H20       1.0  0.6427824689255032  0.5384557788301619  0.03015071775381979  1.0000
  H   H21       1.0  0.6668481343771901  0.8598008105934055  0.6165613675715349  1.0000
  H   H22       1.0  0.18582438779746724  0.8652222425338888  0.385912009905475  1.0000
  H   H23       1.0  0.8820937392502799  0.548961261281505  0.6465254519717831  1.0000
  H   H24       1.0  0.07311097371157868  0.6430441251894904  0.7103253231046409  1.0000
  C   C1        1.0  0.47667959610615185  0.24561497564123866  0.5198530977627627  1.0000
  C   C2        1.0  0.2713876309051813  0.05613199301906489  0.3794994112128762  1.0000
  C   C3        1.0  0.9203115731325584  0.4415045701374395  0.4299215160609151  1.0000
  C   C4        1.0  0.477826103191461  0.4514959668823264  0.3183118440683756  1.0000
  C   C5        1.0  0.9325575701257446  0.5239706724341031  0.5827175390218214  1.0000
  C   C6        1.0  0.0704935377562208  0.5573619289841146  0.5800071529508415  1.0000
  C   C7        1.0  0.05665469781499869  0.46548257021812117  0.4291558496639993  1.0000
  C   C8        1.0  0.05680598957057731  0.40885679572694744  0.32482726626926706  1.0000
  C   C9        1.0  0.898597865800184  0.38634132571652896  0.3279575634710667  1.0000
  C   C10       1.0  0.5042672295237266  0.7082548594450556  0.4972843583819255  1.0000
  C   C11       1.0  0.5460683901681733  0.49986487421539727  0.6932083460317173  1.0000
  C   C12       1.0  0.462011287773322  0.4558171138255388  0.2146117369992098  1.0000
  C   C13       1.0  0.5469785280281839  0.5106345208542676  0.796778514258456  1.0000
  C   C14       1.0  0.5484656541335085  0.5120397200679604  0.9845203792170453  1.0000
  C   C15       1.0  0.4417264226416933  0.4749523255888447  0.027201498936776095  1.0000
  C   C16       1.0  0.4504997119275913  0.4655176222811122  0.127365603058827  1.0000
  C   C17       1.0  0.5455614073935849  0.5136304578591647  0.8840957890906936  1.0000
  C   C18       1.0  0.2296307320368882  0.7217059997068773  0.649148972146854  1.0000
  C   C19       1.0  0.04255799582848141  0.6068311750936883  0.2497763315222556  1.0000
  C   C20       1.0  0.8037800272519179  0.14579448044128895  0.6303859736087389  1.0000
  C   C21       1.0  0.310307374954249  0.8529955236462782  0.2756502151137994  1.0000
  C   C22       1.0  0.19094843088393526  0.12489889437939179  0.2159118960400477  1.0000
  C   C23       1.0  0.3931306318820802  0.0406652058402486  0.4589175733254011  1.0000
  C   C24       1.0  0.14200085753846986  0.09769793573764221  0.41669139561773966  1.0000
  C   C25       1.0  0.4853227366258963  0.10922972979282256  0.5218001214826771  1.0000
  C   C26       1.0  0.5854833382920431  0.04017888286980308  0.5819510287796704  1.0000
  C   C27       1.0  0.5873652994026628  0.9112023592889283  0.5717250560514273  1.0000
  C   C28       1.0  0.4952418499126025  0.8443795100777507  0.5056114304903048  1.0000
  C   C29       1.0  0.39681227431476884  0.914198614851301  0.44991855390432534  1.0000
  C   C30       1.0  0.2785137241530791  0.906348733205206  0.3679816267904314  1.0000
  N   N1        1.0  0.8566178077787753  0.46648128699024466  0.5084682714012558  1.0000
  N   N2        1.0  0.13819072567821422  0.519992148733756  0.502666264189223  1.0000
  N   N3        1.0  0.13050478060655732  0.6287457390511333  0.655236589717852  1.0000
  N   N4        1.0  0.09039629078339571  0.47871760896418875  0.24808880048426124  1.0000
  N   N5        1.0  0.6773397181873052  0.09650299990276778  0.6561254607369024  1.0000
  N   N6        1.0  0.33423520069485585  0.8074122222783655  0.2017907772489664  1.0000
  N   N7        1.0  0.2999463175374757  0.11999226332422812  0.29799295996171793  1.0000
  N   N8        1.0  0.0373365807172732  0.13214592628611396  0.44146855056851564  1.0000
  O   O1        1.0  0.3589668572248854  0.29835846860802917  0.5226873289153104  1.0000
  O   O2        1.0  0.5868717902212878  0.29621230294717543  0.509608491469578  1.0000
  O   O3        1.0  0.3714315301977891  0.4255728483261266  0.3558403934852734  1.0000
  O   O4        1.0  0.5955301229476219  0.4745213315391507  0.36311078311028666  1.0000
  O   O5        1.0  0.39291596811094825  0.6554420183479194  0.46493402378915505  1.0000
  O   O6        1.0  0.6195784066669531  0.6558207230238436  0.5241871210382314  1.0000
  O   O7        1.0  0.429005604077183  0.5142860560244316  0.6428048791516545  1.0000
  O   O8        1.0  0.6608013992769486  0.47732215905110553  0.6619623673817827  1.0000
