data_image0
_chemical_formula_structural       Cu4H12C8S4N16
_chemical_formula_sum              "Cu4 H12 C8 S4 N16"
_cell_length_a       4.908593208002108
_cell_length_b       8.634175410010132
_cell_length_c       11.64821810909813
_cell_angle_alpha    110.3972670573732
_cell_angle_beta     90.00010489491596
_cell_angle_gamma    89.99994976889059

_space_group_name_H-M_alt    "P 1"
_space_group_IT_number       1

loop_
  _space_group_symop_operation_xyz
  'x, y, z'

loop_
  _atom_site_type_symbol
  _atom_site_label
  _atom_site_symmetry_multiplicity
  _atom_site_fract_x
  _atom_site_fract_y
  _atom_site_fract_z
  _atom_site_occupancy
  Cu  Cu1       1.0  0.5058817587677779  0.3282073244108971  0.8442204099342163  1.0000
  Cu  Cu2       1.0  0.0058848513454137  0.1717933971896812  0.6557782264607112  1.0000
  Cu  Cu3       1.0  0.4941128863360617  0.6717931956596955  0.15577911969225508  1.0000
  Cu  Cu4       1.0  0.9941199799728575  0.8282058703061211  0.34421926849770296  1.0000
  H   H1        1.0  0.6545123156631331  0.5880569615552389  0.6478125324789801  1.0000
  H   H2        1.0  0.15451385868810513  0.9119432825029037  0.8521889348837204  1.0000
  H   H3        1.0  0.3454843666877493  0.4119448110891426  0.35218903182001066  1.0000
  H   H4        1.0  0.84549097263735  0.08805725450366  0.1478123160824865  1.0000
  H   H5        1.0  0.8913336829393257  0.758456106827431  0.6843693036315557  1.0000
  H   H6        1.0  0.39133125133484  0.7415428629564145  0.8156320234179119  1.0000
  H   H7        1.0  0.10866503665538828  0.24154443017962993  0.3156319473324202  1.0000
  H   H8        1.0  0.6086695055053112  0.25845768251888757  0.18437008821481266  1.0000
  H   H9        1.0  0.8649756020781535  0.6141694248405045  0.5308957388597476  1.0000
  H   H10       1.0  0.3649715800775296  0.8858283220750423  0.9691061162639227  1.0000
  H   H11       1.0  0.13502515476251628  0.3858286493604837  0.4691057461014551  1.0000
  H   H12       1.0  0.6350251022775807  0.11417099623183449  0.030896542699558386  1.0000
  C   C1        1.0  0.5005534734209788  0.9491045678061454  0.6493604737145944  1.0000
  C   C2        1.0  0.0005494455313054999  0.550894431860115  0.8506371251544634  1.0000
  C   C3        1.0  0.49945135789491246  0.0508971624955592  0.350636787247339  1.0000
  C   C4        1.0  0.999447236814255  0.4491060797419024  0.1493615438047442  1.0000
  C   C5        1.0  0.753186068846304  0.679021875154504  0.6152389481775556  1.0000
  C   C6        1.0  0.2531838166140474  0.8209783443368934  0.8847617306077494  1.0000
  C   C7        1.0  0.24681468798987538  0.32097988902113866  0.38476175545491736  1.0000
  C   C8        1.0  0.7468149029825282  0.1790222011385723  0.1152403810242291  1.0000
  S   S1        1.0  0.6959138267276899  0.0760584835465465  0.7671506348727987  1.0000
  S   S2        1.0  0.19591279670066086  0.42394343421933195  0.7328475930276426  1.0000
  S   S3        1.0  0.3040869301031677  0.9239420195867395  0.23284717341989136  1.0000
  S   S4        1.0  0.8040859228884685  0.5760570773825224  0.2671510759323041  1.0000
  N   N1        1.0  0.28239509419829995  0.9855411931728285  0.5927232153867621  1.0000
  N   N2        1.0  0.7823927509161307  0.514457768979156  0.9072754500671321  1.0000
  N   N3        1.0  0.7176076998785063  0.014456847154384899  0.4072748269031549  1.0000
  N   N4        1.0  0.21760393143314619  0.4855427595596709  0.09272494022809502  1.0000
  N   N5        1.0  0.21404140273129  0.8441526176462517  0.49954097346934384  1.0000
  N   N6        1.0  0.7140370805450046  0.6558477465881863  0.0004592447652810598  1.0000
  N   N7        1.0  0.7859613913452603  0.1558466583181186  0.5004573821563341  1.0000
  N   N8        1.0  0.2859575645606967  0.3441527819508039  0.9995411455291929  1.0000
  N   N9        1.0  0.3724351412699319  0.722329193128985  0.4972632560235296  1.0000
  N   N10       1.0  0.8724286069712901  0.7776711452636534  0.002737077934291664  1.0000
  N   N11       1.0  0.6275696900520629  0.27767009130361947  0.502735960270904  1.0000
  N   N12       1.0  0.12756603813414805  0.22233061891249406  0.9972636256959503  1.0000
  N   N13       1.0  0.5502031327710027  0.7846639872556977  0.5900478575037836  1.0000
  N   N14       1.0  0.050199112762875586  0.715336256884157  0.9099518123115756  1.0000
  N   N15       1.0  0.44979762406357077  0.21533653281439064  0.4099516721249259  1.0000
  N   N16       1.0  0.9497975695863939  0.28466427165466257  0.09004857798364438  1.0000
