data_image0
_chemical_formula_structural       Zn6H24C70Br4Cl8O24
_chemical_formula_sum              "Zn6 H24 C70 Br4 Cl8 O24"
_cell_length_a       18.566271031657607
_cell_length_b       18.55615692030195
_cell_length_c       18.75430758520958
_cell_angle_alpha    109.7982620118433
_cell_angle_beta     109.10568543951156
_cell_angle_gamma    108.98837221367751

_space_group_name_H-M_alt    "P 1"
_space_group_IT_number       1

loop_
  _space_group_symop_operation_xyz
  'x, y, z'

loop_
  _atom_site_type_symbol
  _atom_site_label
  _atom_site_symmetry_multiplicity
  _atom_site_fract_x
  _atom_site_fract_y
  _atom_site_fract_z
  _atom_site_occupancy
  Zn  Zn1       1.0  0.0704490536380433  0.0010593299355506002  0.5661124876464356  1.0000
  Zn  Zn2       1.0  0.9450991309830671  0.0017127555929477016  0.44171798610435087  1.0000
  Zn  Zn3       1.0  0.5027402497779718  0.5705996647129583  0.5588606727751825  1.0000
  Zn  Zn4       1.0  0.5093763286942803  0.4443653967213095  0.43905604398621273  1.0000
  Zn  Zn5       1.0  0.9282984960509921  0.43235454221994735  0.9978901299744933  1.0000
  Zn  Zn6       1.0  0.05708903759084897  0.5478386523757095  0.9909701813824157  1.0000
  H   H1        1.0  0.5933624220487774  0.6913336512741068  0.37131828968808384  1.0000
  H   H2        1.0  0.3147211381589301  0.7912208530318736  0.3495107884774598  1.0000
  H   H3        1.0  0.16651054541211607  0.6690153133567662  0.23551079058306354  1.0000
  H   H4        1.0  0.8754597592875016  0.6168777875309034  0.16131275818206342  1.0000
  H   H5        1.0  0.18846336907984812  0.23166451542341096  0.6552395021132611  1.0000
  H   H6        1.0  0.43694181435830615  0.46900765511510667  0.80804178757829  1.0000
  H   H7        1.0  0.43478026460513763  0.4647408643331943  0.6745462866535732  1.0000
  H   H8        1.0  0.9917929562129899  0.22907574522909607  0.6412274519237259  1.0000
  H   H9        1.0  0.7474561467183067  0.6928644295799488  0.37233135910427256  1.0000
  H   H10       1.0  0.04421074704859511  0.0530669282236786  0.7678747483652445  1.0000
  H   H11       1.0  0.03294267072242721  0.035977672202214706  0.8897495022106982  1.0000
  H   H12       1.0  0.9610194551032977  0.2382160755722182  0.9504360428405435  1.0000
  H   H13       1.0  0.9664562354991587  0.33270564365108163  0.742134545257116  1.0000
  H   H14       1.0  0.28331899951759  0.4665236157347223  0.4100147629426586  1.0000
  H   H15       1.0  0.1565959002058719  0.4663195888205678  0.4239797096318725  1.0000
  H   H16       1.0  0.06535478906044281  0.49457411794160316  0.1985662833838617  1.0000
  H   H17       1.0  0.2851591938409682  0.5124120560240968  0.11087699716571818  1.0000
  H   H18       1.0  0.7381521983445795  0.6555691370613561  0.6678843364560406  1.0000
  H   H19       1.0  0.8576040628114756  0.8045654838876217  0.7834596317832236  1.0000
  H   H20       1.0  0.7597212637706292  0.3874862384916895  0.7631024534232012  1.0000
  H   H21       1.0  0.7311184896043557  0.852809148447264  0.6299416388756356  1.0000
  H   H22       1.0  0.6929548566020503  0.8780263612804547  0.4830184186870952  1.0000
  H   H23       1.0  0.893869187079929  0.7486857351202046  0.2780597020342483  1.0000
  H   H24       1.0  0.3342314283674526  0.9364616552188921  0.4438942855039585  1.0000
  C   C1        1.0  0.03373561433084399  0.8883892486265453  0.40835336391543814  1.0000
  C   C2        1.0  0.7337128264225611  0.8170732313851444  0.5718969513669734  1.0000
  C   C3        1.0  0.7125188323786914  0.8304941553092532  0.4908657980190726  1.0000
  C   C4        1.0  0.7973902703519472  0.8305423031257109  0.49182175525108823  1.0000
  C   C5        1.0  0.19734966942058918  0.8897291046708559  0.39460048436301776  1.0000
  C   C6        1.0  0.2689930491874649  0.8797640831934432  0.39909993434253005  1.0000
  C   C7        1.0  0.2575069120109958  0.7983437619013357  0.3442900756509174  1.0000
  C   C8        1.0  0.17474541708342162  0.7297547737840374  0.28152919706705853  1.0000
  C   C9        1.0  0.0997195147670524  0.7373557533037883  0.27600469901124564  1.0000
  C   C10       1.0  0.11014801288661877  0.816769424099654  0.3389192002022341  1.0000
  C   C11       1.0  0.03341859507516183  0.817567600510465  0.3391553184632983  1.0000
  C   C12       1.0  0.8636343740437982  0.8897916041735527  0.48090534141642394  1.0000
  C   C13       1.0  0.9511752253305659  0.7460816653785898  0.27648156392211126  1.0000
  C   C14       1.0  0.9406931640716678  0.6712655865586471  0.2115994372424054  1.0000
  C   C15       1.0  0.01314044965467795  0.666975033831399  0.21006591727179816  1.0000
  C   C16       1.0  0.24105912756937192  0.2822894427299758  0.6578615026768732  1.0000
  C   C17       1.0  0.310543305112553  0.3508340028028272  0.7376137736954007  1.0000
  C   C18       1.0  0.3818835352096031  0.41651681106557  0.7442602709273631  1.0000
  C   C19       1.0  0.38053551229887717  0.41340189838380326  0.669476982957903  1.0000
  C   C20       1.0  0.30923681016504645  0.34523823966069506  0.585693099439908  1.0000
  C   C21       1.0  0.23910994331699703  0.2766029174273826  0.5797252002384995  1.0000
  C   C22       1.0  0.16937704975391196  0.20463814277879067  0.4955643008276667  1.0000
  C   C23       1.0  0.024483543736707202  0.10616133206384862  0.6493386684388157  1.0000
  C   C24       1.0  0.16880812234177967  0.2033436144303806  0.42086953148214695  1.0000
  C   C25       1.0  0.2369788724628493  0.27316711749968203  0.4268525385165916  1.0000
  C   C26       1.0  0.3066198295343909  0.34217260650951437  0.5077534955712366  1.0000
  C   C27       1.0  0.025641218014641306  0.09326658918697461  0.8071946851371763  1.0000
  C   C28       1.0  0.019928731153242986  0.08396242376364428  0.875204379027771  1.0000
  C   C29       1.0  0.9965417629053024  0.13701843157149807  0.9265785159769425  1.0000
  C   C30       1.0  0.9791817860842756  0.19825503642038464  0.9102377737730765  1.0000
  C   C31       1.0  0.9840781204002697  0.2086753155966932  0.8400622019854822  1.0000
  C   C32       1.0  0.007803947805989295  0.154772486612444  0.7868682701991433  1.0000
  C   C33       1.0  0.009431618124047228  0.16329512331677173  0.7144074270194309  1.0000
  C   C34       1.0  0.10042909585977362  0.12902820750414182  0.4901186323247942  1.0000
  C   C35       1.0  0.9916383650906795  0.224730505462972  0.6976482491306372  1.0000
  C   C36       1.0  0.9752434941459641  0.28138400754208  0.7529842283870496  1.0000
  C   C37       1.0  0.9699247881264556  0.2734080586547307  0.8222295152485162  1.0000
  C   C38       1.0  0.3926733731727623  0.4806814934460064  0.35533295648737345  1.0000
  C   C39       1.0  0.6164176296391304  0.6490118608598863  0.5179092420241957  1.0000
  C   C40       1.0  0.6280020921345298  0.49520946366087065  0.5998484193779916  1.0000
  C   C41       1.0  0.38174062325129654  0.41200066552112713  0.5137884875260427  1.0000
  C   C42       1.0  0.9007318440629177  0.5256879974208175  0.8916283157544173  1.0000
  C   C43       1.0  0.99770217437969  0.592359924621839  0.13200896383689553  1.0000
  C   C44       1.0  0.13486657569305288  0.5015932838264732  0.09728593926781307  1.0000
  C   C45       1.0  0.742177359320003  0.7274039070352106  0.42886973501425274  1.0000
  C   C46       1.0  0.9578596883878561  0.34140607607244533  0.8797069076144696  1.0000
  C   C47       1.0  0.2362052529394205  0.4721132703684461  0.3627320601017416  1.0000
  C   C48       1.0  0.1655970971580629  0.47258611109641896  0.37140252231402127  1.0000
  C   C49       1.0  0.1048711601757049  0.4819921760973429  0.3117274440644309  1.0000
  C   C50       1.0  0.1141734784118498  0.4890912311721038  0.2441356604802394  1.0000
  C   C51       1.0  0.18616559504892646  0.488128311275659  0.23342087122726693  1.0000
  C   C52       1.0  0.24971918384345324  0.4807647562725991  0.2949481628551709  1.0000
  C   C53       1.0  0.32444586209965115  0.4823926055386424  0.28685692935449947  1.0000
  C   C54       1.0  0.3355452116604668  0.49361806460640173  0.22106292704020092  1.0000
  C   C55       1.0  0.2746279119081265  0.5026921747330135  0.16146621232482516  1.0000
  C   C56       1.0  0.6583398462589047  0.7284701891813015  0.4286206506716538  1.0000
  C   C57       1.0  0.2006603748923084  0.4983976419379417  0.16601966531557366  1.0000
  C   C58       1.0  0.7830779591247747  0.6652273501557104  0.7290038493961576  1.0000
  C   C59       1.0  0.8486915445663286  0.7485652603368536  0.793544649899019  1.0000
  C   C60       1.0  0.9035788316816918  0.7632440549028771  0.8756785203475699  1.0000
  C   C61       1.0  0.8957908708258274  0.6929904447732937  0.8900047979738516  1.0000
  C   C62       1.0  0.8360178202247539  0.6044475494684677  0.8199506049628056  1.0000
  C   C63       1.0  0.7732373274214269  0.5914990591956908  0.7404291683734386  1.0000
  C   C64       1.0  0.7018017596760304  0.5053179454085068  0.6740152532987125  1.0000
  C   C65       1.0  0.696911762142868  0.43371718618161037  0.684311910410031  1.0000
  C   C66       1.0  0.762744370694783  0.4450184526029802  0.7580244049822157  1.0000
  C   C67       1.0  0.6795256203057038  0.7153938125837487  0.5107291321608687  1.0000
  C   C68       1.0  0.8314323061956586  0.5275500070499746  0.8239929850316656  1.0000
  C   C69       1.0  0.763325300404766  0.7135537547887622  0.5089298161599415  1.0000
  C   C70       1.0  0.8175773846668619  0.8155583821766043  0.57248690598837  1.0000
  Br  Br1       1.0  0.0819795892688404  0.10596678886024341  0.30890432260088835  1.0000
  Br  Br2       1.0  0.4365547735938193  0.5040694002870509  0.21031738293400795  1.0000
  Br  Br3       1.0  0.8012226444403724  0.632518139132401  0.5217332516216971  1.0000
  Br  Br4       1.0  0.9561931740151125  0.7178312881529082  0.00613930677168628  1.0000
  Cl  Cl1       1.0  0.31139317945606854  0.3565890656063502  0.8320215477628565  1.0000
  Cl  Cl2       1.0  0.23102673478329197  0.2717075259532394  0.3328393616333401  1.0000
  Cl  Cl3       1.0  0.9900511227809548  0.12407055513465791  0.0119021678696925  1.0000
  Cl  Cl4       1.0  0.01724134916162968  0.4846573812204227  0.3241047635055949  1.0000
  Cl  Cl5       1.0  0.6096875750739487  0.3287576399329737  0.6102496824023903  1.0000
  Cl  Cl6       1.0  0.9768969073121812  0.8706457815148739  0.95682343650126  1.0000
  Cl  Cl7       1.0  0.916958551159702  0.8668822125975737  0.6663003098494613  1.0000
  Cl  Cl8       1.0  0.21763722359526128  0.9956930683333881  0.45291446448096906  1.0000
  O   O1        1.0  0.08032760038685183  0.9099876439414774  0.4877563714629928  1.0000
  O   O2        1.0  0.4172901925997863  0.42356481779573574  0.3329225900391322  1.0000
  O   O3        1.0  0.5910849754633034  0.6755096673239507  0.573276405835891  1.0000
  O   O4        1.0  0.5929034164621073  0.569688389274809  0.46853483055565437  1.0000
  O   O5        1.0  0.5915892575026334  0.5395858409466425  0.6216517263271725  1.0000
  O   O6        1.0  0.6061475014097937  0.44334385203035254  0.5216415572992404  1.0000
  O   O7        1.0  0.40300327031511785  0.4927849458980944  0.5602959372925583  1.0000
  O   O8        1.0  0.42017612699286383  0.3871563607980235  0.4744163581845484  1.0000
  O   O9        1.0  0.8738842352752626  0.4777382319986074  0.9222826909195732  1.0000
  O   O10       1.0  0.9799727782679143  0.5662106049158453  0.9079951830094758  1.0000
  O   O11       1.0  0.9378108775242423  0.5142577225814762  0.10381755505369486  1.0000
  O   O12       1.0  0.9829548526240758  0.9173856207938016  0.3827335766513966  1.0000
  O   O13       1.0  0.04260291322588468  0.61178798924351  0.09611550983681381  1.0000
  O   O14       1.0  0.0549323771469048  0.4526298479944373  0.07061136520577083  1.0000
  O   O15       1.0  0.16216097527658502  0.5528466274678864  0.06845246055544864  1.0000
  O   O16       1.0  0.9062954586838713  0.3207983096797093  0.9103958124464101  1.0000
  O   O17       1.0  0.0014230937717343373  0.4187784600175562  0.8948138296041678  1.0000
  O   O18       1.0  0.9416791169157436  0.9073476069444624  0.5233454102470959  1.0000
  O   O19       1.0  0.8380056840000237  0.9182618825156368  0.42884654747762596  1.0000
  O   O20       1.0  0.08019816959037479  0.08003143624203798  0.6731466753481996  1.0000
  O   O21       1.0  0.9805979344823686  0.08708364758516751  0.5713362415798074  1.0000
  O   O22       1.0  0.1274217738692371  0.09587919511822922  0.5349011393665323  1.0000
  O   O23       1.0  0.0199213908139839  0.10363031597186281  0.44134918371854337  1.0000
  O   O24       1.0  0.4215090151877022  0.5379385565907743  0.4329762539860911  1.0000
