data_image0
_chemical_formula_structural       Cu4H28C40N4O16
_chemical_formula_sum              "Cu4 H28 C40 N4 O16"
_cell_length_a       9.757666587400706
_cell_length_b       9.757644472659884
_cell_length_c       13.838786639261077
_cell_angle_alpha    77.17322669683779
_cell_angle_beta     77.17336195034773
_cell_angle_gamma    65.8991722188884

_space_group_name_H-M_alt    "P 1"
_space_group_IT_number       1

loop_
  _space_group_symop_operation_xyz
  'x, y, z'

loop_
  _atom_site_type_symbol
  _atom_site_label
  _atom_site_symmetry_multiplicity
  _atom_site_fract_x
  _atom_site_fract_y
  _atom_site_fract_z
  _atom_site_occupancy
  Cu  Cu1       1.0  0.08296640756132224  0.5826730938582046  0.4877254509641062  1.0000
  Cu  Cu2       1.0  0.417329332425453  0.9170307329234928  0.012274993029585301  1.0000
  Cu  Cu3       1.0  0.9170354891291834  0.4173271463087715  0.5122741912612907  1.0000
  Cu  Cu4       1.0  0.5826721458530456  0.0829649825706369  0.9877261511199718  1.0000
  H   H1        1.0  0.5912022835120468  0.7354726126354975  0.7276222580786751  1.0000
  H   H2        1.0  0.2645291113932799  0.4087957394818885  0.7723784001571943  1.0000
  H   H3        1.0  0.4087928670751139  0.2645231414417283  0.2723769871619623  1.0000
  H   H4        1.0  0.7354740613960258  0.5912067688533895  0.22762790936840815  1.0000
  H   H5        1.0  0.8426978260247252  0.8581914309217638  0.7130375110817082  1.0000
  H   H6        1.0  0.14180966739634465  0.15730150407190283  0.7869602311643858  1.0000
  H   H7        1.0  0.1572960548879081  0.1418077247470961  0.2869592302202548  1.0000
  H   H8        1.0  0.8581920196453081  0.8427021366599519  0.21304035320400064  1.0000
  H   H9        1.0  0.057019557078035535  0.86345200668827  0.567124893663525  1.0000
  H   H10       1.0  0.1365498199882396  0.9429810547039852  0.9328741966682371  1.0000
  H   H11       1.0  0.9429804356342473  0.13655050472725352  0.4328710776170579  1.0000
  H   H12       1.0  0.8634522915268262  0.0570214534110249  0.06712794456102954  1.0000
  H   H13       1.0  0.2124927805183887  0.009330434247935704  0.569892852036844  1.0000
  H   H14       1.0  0.9906690651769238  0.7875093686672585  0.9301077272778285  1.0000
  H   H15       1.0  0.7875099576275416  0.9906675332031941  0.43010557062236643  1.0000
  H   H16       1.0  0.009330093571335895  0.21249542294625456  0.06989379685688848  1.0000
  H   H17       1.0  0.5798918155741147  0.6944957353054805  0.39182770799789784  1.0000
  H   H18       1.0  0.30550134068162277  0.4201063234337851  0.10817366691313168  1.0000
  H   H19       1.0  0.42010966020725243  0.3054999776945948  0.6081719917223437  1.0000
  H   H20       1.0  0.6944959238954952  0.5798950858796488  0.8918294117057993  1.0000
  H   H21       1.0  0.4031422630676146  0.567142574229976  0.39323365773972796  1.0000
  H   H22       1.0  0.4328581498859307  0.5968548193109413  0.10676727719949496  1.0000
  H   H23       1.0  0.5968589980706229  0.43285653434689664  0.6067640952648786  1.0000
  H   H24       1.0  0.5671435394714237  0.4031431603901439  0.8932341993099653  1.0000
  H   H25       1.0  0.6287245536714322  0.8888491490822119  0.43541755335462534  1.0000
  H   H26       1.0  0.11114845764148382  0.37127576542857105  0.06458041122591845  1.0000
  H   H27       1.0  0.37127712819452807  0.1111488231367304  0.5645795898668878  1.0000
  H   H28       1.0  0.888848169067664  0.6287301733255293  0.9354198860311412  1.0000
  C   C1        1.0  0.794449187278694  0.6785715820221299  0.6127814666316735  1.0000
  C   C2        1.0  0.32142883018504154  0.2055466443400391  0.8872199092991904  1.0000
  C   C3        1.0  0.20554680494532115  0.3214275628640664  0.3872171113310258  1.0000
  C   C4        1.0  0.6785741263497084  0.7944479312753716  0.11278262671963551  1.0000
  C   C5        1.0  0.6950428377610862  0.7568301901431554  0.6979595511269139  1.0000
  C   C6        1.0  0.24317150955177166  0.3049537346967242  0.8020406694643255  1.0000
  C   C7        1.0  0.30495062616953555  0.2431701056246993  0.3020399666021163  1.0000
  C   C8        1.0  0.7568274443604537  0.6950487989449528  0.1979641333837775  1.0000
  C   C9        1.0  0.7387609267735795  0.8372238411005952  0.7432168346016823  1.0000
  C   C10       1.0  0.1627790992734788  0.2612369141336046  0.7567815218737123  1.0000
  C   C11       1.0  0.26123401166758947  0.1627753110474686  0.2567819083526358  1.0000
  C   C12       1.0  0.8372232195747457  0.7387678544472891  0.243218785071484  1.0000
  C   C13       1.0  0.6522602676959295  0.8985569994037305  0.8371218848801689  1.0000
  C   C14       1.0  0.10144647008682027  0.3477386659043589  0.6628768445271477  1.0000
  C   C15       1.0  0.3477380442397617  0.10143873288789962  0.16287686538561272  1.0000
  C   C16       1.0  0.8985543742508497  0.6522672462963259  0.33712423719276063  1.0000
  C   C17       1.0  0.1736383575500469  0.8309912757697476  0.5287006281413935  1.0000
  C   C18       1.0  0.16901101929562393  0.8263596553801308  0.9712988928523599  1.0000
  C   C19       1.0  0.8263620546413789  0.16901009804082176  0.47129401114143826  1.0000
  C   C20       1.0  0.8309908836377103  0.17364059102196452  0.028704360446319303  1.0000
  C   C21       1.0  0.2621128600965152  0.9110640346474737  0.5304577297008208  1.0000
  C   C22       1.0  0.08893605106458581  0.7378858109550279  0.969542763805009  1.0000
  C   C23       1.0  0.7378879753197508  0.0889362052992198  0.46953774422824074  1.0000
  C   C24       1.0  0.9110631124964925  0.2621133221217633  0.030461096900097517  1.0000
  C   C25       1.0  0.4126416638355507  0.8643472456927698  0.4804399053048413  1.0000
  C   C26       1.0  0.13565104112426238  0.5873578110428072  0.01955940857074977  1.0000
  C   C27       1.0  0.5873610680675442  0.13565071552323357  0.5195549062810798  1.0000
  C   C28       1.0  0.8643477004605411  0.41264245714488373  0.9804443397027924  1.0000
  C   C29       1.0  0.4637233459219559  0.7377001403609142  0.4303883325388966  1.0000
  C   C30       1.0  0.2622977573912023  0.5362753684737387  0.0696119981709771  1.0000
  C   C31       1.0  0.5362779127191571  0.26229896572191075  0.5696079760363872  1.0000
  C   C32       1.0  0.7377005609687541  0.463726033577828  0.9303909154563357  1.0000
  C   C33       1.0  0.36658923061107634  0.6653299005234247  0.4316609895490798  1.0000
  C   C34       1.0  0.3346705618603848  0.6334076926907102  0.068339203464447  1.0000
  C   C35       1.0  0.6334113949748996  0.3346680764633376  0.568334874234736  1.0000
  C   C36       1.0  0.6653296542349735  0.3665914318771897  0.9316637700343903  1.0000
  C   C37       1.0  0.5160022144046792  0.9389966757507439  0.4777973689666623  1.0000
  C   C38       1.0  0.061001718347576166  0.48399939013971505  0.022201610489709384  1.0000
  C   C39       1.0  0.4840009419718284  0.06100015284840769  0.5221989994801388  1.0000
  C   C40       1.0  0.9389968098426776  0.51600427487179  0.9778009132828486  1.0000
  N   N1        1.0  0.22354075461933562  0.7100161011063479  0.48019745871207664  1.0000
  N   N2        1.0  0.28998491282361266  0.7764584719475707  0.019802887473950613  1.0000
  N   N3        1.0  0.7764611333312103  0.28998413033146164  0.5197971280107082  1.0000
  N   N4        1.0  0.7100180426440089  0.22354176594563308  0.9801994786184521  1.0000
  O   O1        1.0  0.9046616195532379  0.7184239071363694  0.5687537664350797  1.0000
  O   O2        1.0  0.28157845415672966  0.09533326871743242  0.9312482182740993  1.0000
  O   O3        1.0  0.09533543269645854  0.28157523672307866  0.4312482576092903  1.0000
  O   O4        1.0  0.7184234448494777  0.9046613104187742  0.06875231609237173  1.0000
  O   O5        1.0  0.2360942284223312  0.42819453677873304  0.4047518572581054  1.0000
  O   O6        1.0  0.5718070253805295  0.7639030282934202  0.0952460097748541  1.0000
  O   O7        1.0  0.7639034431482726  0.5718057224595159  0.595242667216496  1.0000
  O   O8        1.0  0.4281931919634019  0.23609609752150357  0.9047576859386337  1.0000
  O   O9        1.0  0.6947398151936782  0.9903252357177762  0.8637622741509359  1.0000
  O   O10       1.0  0.009678542973908574  0.30526314441928554  0.6362342952243907  1.0000
  O   O11       1.0  0.3052624995459681  0.009668202072404599  0.13623476157380307  1.0000
  O   O12       1.0  0.9903237758743084  0.6947416241616082  0.36376601172081274  1.0000
  O   O13       1.0  0.5471004353763647  0.8519988415579648  0.8833222545305617  1.0000
  O   O14       1.0  0.14800566165823872  0.45289928723715894  0.6166783180765165  1.0000
  O   O15       1.0  0.4528980926324521  0.14799915992871604  0.11667971695375454  1.0000
  O   O16       1.0  0.8519991904776416  0.5471043354501718  0.3833239379609877  1.0000
