data_image0
_chemical_formula_structural       Dy4H60C44O24
_chemical_formula_sum              "Dy4 H60 C44 O24"
_cell_length_a       8.18508338302699
_cell_length_b       10.725424531046798
_cell_length_c       14.760812933016073
_cell_angle_alpha    90.00016905670778
_cell_angle_beta     89.99999765445304
_cell_angle_gamma    90.00029378352637

_space_group_name_H-M_alt    "P 1"
_space_group_IT_number       1

loop_
  _space_group_symop_operation_xyz
  'x, y, z'

loop_
  _atom_site_type_symbol
  _atom_site_label
  _atom_site_symmetry_multiplicity
  _atom_site_fract_x
  _atom_site_fract_y
  _atom_site_fract_z
  _atom_site_occupancy
  Dy  Dy1       1.0  0.07821123459818581  0.1995195323123156  0.0019445502286927995  1.0000
  Dy  Dy2       1.0  0.42179189567814035  0.8004857778503693  0.5019433970574025  1.0000
  Dy  Dy3       1.0  0.9217913505016069  0.6995135904960819  0.4980552854310075  1.0000
  Dy  Dy4       1.0  0.5782101112514654  0.30048637075896073  0.9980611986162413  1.0000
  H   H1        1.0  0.27236187866074607  0.1738012652710239  0.3043607909915451  1.0000
  H   H2        1.0  0.2276339008013792  0.8262006113333343  0.8043563103845414  1.0000
  H   H3        1.0  0.7276307600573516  0.6737979960126098  0.19564305436045965  1.0000
  H   H4        1.0  0.7723658351291292  0.32619514276427003  0.6956402107691841  1.0000
  H   H5        1.0  0.187910441548226  0.46196472892891205  0.1784317222931547  1.0000
  H   H6        1.0  0.31208901161193847  0.5380375685750495  0.6784259444522929  1.0000
  H   H7        1.0  0.8120829083717495  0.9619585726965669  0.321575450615839  1.0000
  H   H8        1.0  0.6879149000553325  0.038034145188909504  0.8215665716749213  1.0000
  H   H9        1.0  0.358930260315887  0.5163742234836945  0.23962962743109975  1.0000
  H   H10       1.0  0.14106918870854201  0.48362552548854865  0.7396244146468118  1.0000
  H   H11       1.0  0.6410637658753159  0.016369435569089305  0.26037794528907193  1.0000
  H   H12       1.0  0.8589352684127078  0.9836230337625552  0.7603697340746007  1.0000
  H   H13       1.0  0.15821162840719438  0.5626471228145532  0.2721583757288712  1.0000
  H   H14       1.0  0.34179148364039236  0.43735648773973423  0.7721537362818651  1.0000
  H   H15       1.0  0.8417839299044516  0.06264112477128952  0.22785065111548156  1.0000
  H   H16       1.0  0.6582151065768046  0.9373512124457195  0.7278409907277062  1.0000
  H   H17       1.0  0.4394469720031394  0.012916847881015802  0.8925389261530012  1.0000
  H   H18       1.0  0.0605549101679372  0.9870797926947932  0.39253567068976736  1.0000
  H   H19       1.0  0.560556771174646  0.5129181597968114  0.6074623432356956  1.0000
  H   H20       1.0  0.9394459386744956  0.4870876739406499  0.10746139402672125  1.0000
  H   H21       1.0  0.5513126938960511  0.38223674259075596  0.4475272450528748  1.0000
  H   H22       1.0  0.9486887712673352  0.6177639457889158  0.9475250220870916  1.0000
  H   H23       1.0  0.44868622991356216  0.8822355279792973  0.0524756921465652  1.0000
  H   H24       1.0  0.051316896933869295  0.11776346086359275  0.5524710522851137  1.0000
  H   H25       1.0  0.5227048825063035  0.478848986741184  0.3527066906064035  1.0000
  H   H26       1.0  0.9772941455811405  0.5211513165149029  0.8527049373145983  1.0000
  H   H27       1.0  0.4772873589506688  0.9788473370016747  0.14729713115175258  1.0000
  H   H28       1.0  0.0227096528238349  0.021150172222746705  0.6472916074359247  1.0000
  H   H29       1.0  0.590669374205291  0.2970267770287124  0.26929103495209006  1.0000
  H   H30       1.0  0.9093272160278759  0.702970390331899  0.769288995601826  1.0000
  H   H31       1.0  0.4093216476196914  0.797024267330997  0.23071036465843514  1.0000
  H   H32       1.0  0.0906765802651961  0.20297358068617646  0.7307059064765722  1.0000
  H   H33       1.0  0.5334784122905134  0.19621685027703964  0.35839374369622584  1.0000
  H   H34       1.0  0.966516950206419  0.8037825437046494  0.858391241555999  1.0000
  H   H35       1.0  0.4665180419964016  0.6962151352141748  0.14160676235820086  1.0000
  H   H36       1.0  0.03348019189632371  0.30378235090757505  0.6416045540805156  1.0000
  H   H37       1.0  0.9930929243041362  0.30817952266494336  0.24509996238545984  1.0000
  H   H38       1.0  0.5069036675821863  0.6918240729806017  0.7450931667735077  1.0000
  H   H39       1.0  0.006899394060944501  0.8081755339424962  0.2549048484768335  1.0000
  H   H40       1.0  0.49309638871073963  0.1918186828839055  0.7549017114034624  1.0000
  H   H41       1.0  0.959860851858238  0.40807313238548915  0.3401686820240569  1.0000
  H   H42       1.0  0.5401369553526081  0.5919308493910833  0.8401623489391808  1.0000
  H   H43       1.0  0.040132136573483  0.9080688877920057  0.1598376979001657  1.0000
  H   H44       1.0  0.45986609607453494  0.09192401054514932  0.65983028270535  1.0000
  H   H45       1.0  0.017403213543794004  0.24961045756295158  0.35622522753571667  1.0000
  H   H46       1.0  0.4825962276346587  0.7503944267910612  0.8562205781466188  1.0000
  H   H47       1.0  0.9825899336907539  0.7496079769584509  0.14377878031515215  1.0000
  H   H48       1.0  0.517407886730595  0.25038588353033486  0.643773748103797  1.0000
  H   H49       1.0  0.31169612947655884  0.3263654819819096  0.5415260760132554  1.0000
  H   H50       1.0  0.18830333291140994  0.673635327112102  0.04152282299232009  1.0000
  H   H51       1.0  0.6883011641258391  0.8263705849915296  0.9584758652609224  1.0000
  H   H52       1.0  0.8116978568363179  0.17363201257703056  0.458472214900837  1.0000
  H   H53       1.0  0.279415070747234  0.2105087624182147  0.4578029211580627  1.0000
  H   H54       1.0  0.22058314183495037  0.789492805048667  0.9578017493889204  1.0000
  H   H55       1.0  0.7205827011563316  0.710511368848728  0.042196260596959696  1.0000
  H   H56       1.0  0.7794151261392983  0.28948953797126364  0.5421926606751126  1.0000
  H   H57       1.0  0.11572128658474408  0.3102006018589947  0.49182148159889744  1.0000
  H   H58       1.0  0.3842769237036592  0.6898011037787627  0.9918214470413743  1.0000
  H   H59       1.0  0.8842771540408164  0.8102055764466769  0.008179268788367697  1.0000
  H   H60       1.0  0.6157231190146318  0.18979425985146758  0.5081754592061642  1.0000
  C   C1        1.0  0.32729987324783133  0.24779258937721957  0.1761714529080223  1.0000
  C   C2        1.0  0.172693471378814  0.7522059694876264  0.6761702023981753  1.0000
  C   C3        1.0  0.6726895966092244  0.7477961519755211  0.323829163705426  1.0000
  C   C4        1.0  0.8273094334189536  0.2522021692716763  0.823830902435027  1.0000
  C   C5        1.0  0.32789122976450363  0.2598324141069739  0.2780527108840188  1.0000
  C   C6        1.0  0.17210332973363052  0.7401684232827748  0.7780500796447355  1.0000
  C   C7        1.0  0.6721019860403531  0.7598308987774589  0.22194793153146714  1.0000
  C   C8        1.0  0.8278970508511135  0.24016514393898086  0.7219469345696435  1.0000
  C   C9        1.0  0.23216540962477691  0.48464750652673433  0.24679789937078306  1.0000
  C   C10       1.0  0.2678377041265065  0.5153541362966507  0.7467934289385807  1.0000
  C   C11       1.0  0.7678317576526014  0.9846418315349013  0.253208644690055  1.0000
  C   C12       1.0  0.7321684988503422  0.015349676316461103  0.75320039350418  1.0000
  C   C13       1.0  0.3363241918725706  0.0658815081997375  0.9216742358829818  1.0000
  C   C14       1.0  0.163681353563021  0.9341227096287811  0.4216701868849099  1.0000
  C   C15       1.0  0.6636762413605198  0.565877511771518  0.5783244371526733  1.0000
  C   C16       1.0  0.8363289139347999  0.4341319330990246  0.07833218407438379  1.0000
  C   C17       1.0  0.21548468380356667  0.3712031417706286  0.31006190878440515  1.0000
  C   C18       1.0  0.28451353874651636  0.6287996903626407  0.8100597135200898  1.0000
  C   C19       1.0  0.7845105007845562  0.8712000722884242  0.1899410047624244  1.0000
  C   C20       1.0  0.7154897599966219  0.1287949080635968  0.6899377394417313  1.0000
  C   C21       1.0  0.47982292815977695  0.39277218944338427  0.38521429355805736  1.0000
  C   C22       1.0  0.020178954523920798  0.607230015567815  0.8852113811085756  1.0000
  C   C23       1.0  0.5201748445836215  0.8927705757572472  0.11478934369330317  1.0000
  C   C24       1.0  0.9798241995426693  0.10722782881096289  0.6147839932127539  1.0000
  C   C25       1.0  0.49754259322567407  0.2805191949684983  0.321256313509636  1.0000
  C   C26       1.0  0.0024556285634176004  0.7194818178997907  0.8212522871727542  1.0000
  C   C27       1.0  0.5024532048023361  0.7805149745050104  0.17874776059262837  1.0000
  C   C28       1.0  0.997547056736721  0.21948089274658864  0.678743327763179  1.0000
  C   C29       1.0  0.03570996395607301  0.3321833618455585  0.3134539587787585  1.0000
  C   C30       1.0  0.4642894801125904  0.6678232135151491  0.8134477779078678  1.0000
  C   C31       1.0  0.9642849588875537  0.8321781861210268  0.1865515810042453  1.0000
  C   C32       1.0  0.535712858649795  0.16781584809186972  0.6865463713513333  1.0000
  C   C33       1.0  0.29553528029347126  0.4015566018210066  0.4047518470667128  1.0000
  C   C34       1.0  0.2044666010666774  0.5984438178123598  0.9047475563023752  1.0000
  C   C35       1.0  0.7044601079162974  0.901558428182291  0.0952531639567908  1.0000
  C   C36       1.0  0.795538937539746  0.0984436264945501  0.5952477991877316  1.0000
  C   C37       1.0  0.24438167060406368  0.5272308594760773  0.44337112908486614  1.0000
  C   C38       1.0  0.25562265161836706  0.47276878464944627  0.9433652127348464  1.0000
  C   C39       1.0  0.7556160936515469  0.027236881402082195  0.05663849932656719  1.0000
  C   C40       1.0  0.7443890630941398  0.9727687458928288  0.5566262028396876  1.0000
  C   C41       1.0  0.24705652592428615  0.3058765267439583  0.47796316002553135  1.0000
  C   C42       1.0  0.2529429070333009  0.6941251226028771  0.9779597506280379  1.0000
  C   C43       1.0  0.7529406639568279  0.8058801104895751  0.02203893603046939  1.0000
  C   C44       1.0  0.7470583864294368  0.1941197820994844  0.5220358099507578  1.0000
  O   O1        1.0  0.35703420764265564  0.18283919215677003  0.9389965776579243  1.0000
  O   O2        1.0  0.1429750018134257  0.8171604342058317  0.43898821364845014  1.0000
  O   O3        1.0  0.6429718970709573  0.6828387736819154  0.5610091207764825  1.0000
  O   O4        1.0  0.8570381463275396  0.31716966849539574  0.061011196722766683  1.0000
  O   O5        1.0  0.20183424317853144  0.0134264757141835  0.937038511256432  1.0000
  O   O6        1.0  0.2981700794769324  0.9865750074313269  0.4370386361937688  1.0000
  O   O7        1.0  0.7981658382134712  0.5134276058193804  0.5629539521215037  1.0000
  O   O8        1.0  0.7018332094133443  0.48657245299158813  0.0629719768187371  1.0000
  O   O9        1.0  0.20123013659819117  0.1998212045642377  0.1386341750848032  1.0000
  O   O10       1.0  0.2987644322879106  0.8001753371109714  0.6386309918828273  1.0000
  O   O11       1.0  0.7987626766943804  0.6998291432173361  0.361369048583839  1.0000
  O   O12       1.0  0.7012241334248728  0.30016000683376387  0.8613695382917113  1.0000
  O   O13       1.0  0.09257878034354408  0.5522347075663492  0.4468797720995922  1.0000
  O   O14       1.0  0.4074255416331809  0.44776215370242056  0.9468663462429772  1.0000
  O   O15       1.0  0.9074215951043598  0.052241310238287014  0.05313194231690939  1.0000
  O   O16       1.0  0.5925872270755336  0.9477624380894131  0.5531175635657561  1.0000
  O   O17       1.0  0.4482468542665431  0.2883011541392976  0.13081220445701547  1.0000
  O   O18       1.0  0.05174282823951871  0.711704679403667  0.6308122250458154  1.0000
  O   O19       1.0  0.551744109019971  0.7882960356401654  0.3691857890999159  1.0000
  O   O20       1.0  0.9482573614506294  0.21171179346661265  0.8691854056367487  1.0000
  O   O21       1.0  0.35457626608422294  0.5986716692048689  0.47537147434242394  1.0000
  O   O22       1.0  0.1454341626535012  0.40132810492303156  0.9753748921479966  1.0000
  O   O23       1.0  0.6454280860573649  0.09867806163480004  0.024639662142583098  1.0000
  O   O24       1.0  0.8545831815255411  0.9013293004262337  0.524623144988368  1.0000
