data_image0
_chemical_formula_structural       Cu2H20C26N6Cl2
_chemical_formula_sum              "Cu2 H20 C26 N6 Cl2"
_cell_length_a       8.883688327495156
_cell_length_b       8.883546936568301
_cell_length_c       10.648000079337722
_cell_angle_alpha    102.73057105159178
_cell_angle_beta     102.73100383901216
_cell_angle_gamma    116.27056732407142

_space_group_name_H-M_alt    "P 1"
_space_group_IT_number       1

loop_
  _space_group_symop_operation_xyz
  'x, y, z'

loop_
  _atom_site_type_symbol
  _atom_site_label
  _atom_site_symmetry_multiplicity
  _atom_site_fract_x
  _atom_site_fract_y
  _atom_site_fract_z
  _atom_site_occupancy
  Cu  Cu1       1.0  0.9004852609169163  0.0995319161611832  0.5000010764181299  1.0000
  Cu  Cu2       1.0  0.09952516836277421  0.9004698159791148  0.5000016094628493  1.0000
  H   H1        1.0  0.8479112016785492  0.3969070962962533  0.46268541922760426  1.0000
  H   H2        1.0  0.6030993906225247  0.15207440072659037  0.5373173489263509  1.0000
  H   H3        1.0  0.15207729168265163  0.603092218327646  0.5373121833951657  1.0000
  H   H4        1.0  0.3969021631359907  0.8479230865813959  0.4626807164670197  1.0000
  H   H5        1.0  0.774176753132636  0.49764498207892427  0.2736875417262255  1.0000
  H   H6        1.0  0.5023618073441368  0.225813796322214  0.7263135156826481  1.0000
  H   H7        1.0  0.22582263202476577  0.5023576435209662  0.7263111435008583  1.0000
  H   H8        1.0  0.497639594088298  0.7741878954213491  0.273681631661134  1.0000
  H   H9        1.0  0.701982701913721  0.014399531607892908  0.993262586457725  1.0000
  H   H10       1.0  0.9856117462619521  0.2980370055391078  0.006744849119471036  1.0000
  H   H11       1.0  0.29801864033526465  0.9855933874044708  0.0067429498715652686  1.0000
  H   H12       1.0  0.01438095796396497  0.701958792939102  0.993250075664605  1.0000
  H   H13       1.0  0.7819109189511054  0.9351163287415291  0.19780052165089054  1.0000
  H   H14       1.0  0.06489725780806306  0.21811132428290134  0.8022062925499186  1.0000
  H   H15       1.0  0.21808002687340888  0.06487447795240088  0.8022061675712566  1.0000
  H   H16       1.0  0.935114841514512  0.781907961338355  0.19779476001642143  1.0000
  H   H17       1.0  0.4394959310466858  0.2774742067514424  0.11550099036296758  1.0000
  H   H18       1.0  0.7225241829243174  0.5605034003960583  0.8844967171204632  1.0000
  H   H19       1.0  0.5605129185607252  0.7225288958772538  0.8844997699377048  1.0000
  H   H20       1.0  0.27747885015752866  0.43950203286419054  0.115503315560268  1.0000
  C   C1        1.0  0.8168421977352265  0.3157502131536845  0.3571344742790643  1.0000
  C   C2        1.0  0.684264282905218  0.18316373265557223  0.6428716511048976  1.0000
  C   C3        1.0  0.18315920168947736  0.6842554130993648  0.6428793720191096  1.0000
  C   C4        1.0  0.3157354141106693  0.8168341447992872  0.35711952147919845  1.0000
  C   C5        1.0  0.7747420753667382  0.3719870421310887  0.24977486589971679  1.0000
  C   C6        1.0  0.6280102012376502  0.22524380954124723  0.7502201304145901  1.0000
  C   C7        1.0  0.22524209638363146  0.6280099146079365  0.7502147558443257  1.0000
  C   C8        1.0  0.3719845780322685  0.7747518171061216  0.24977895544695636  1.0000
  C   C9        1.0  0.7335612169714806  0.26493690000098274  0.1142857816074425  1.0000
  C   C10       1.0  0.7350693441168872  0.2664324959841906  0.8857158992375318  1.0000
  C   C11       1.0  0.26643906696551767  0.7350611441598717  0.8857215445170327  1.0000
  C   C12       1.0  0.26492567424438823  0.733558309746151  0.11427658455829715  1.0000
  C   C13       1.0  0.7360746534013742  0.10440973648699982  0.0960248683128385  1.0000
  C   C14       1.0  0.8956015402103643  0.26394333908863377  0.9039828537057134  1.0000
  C   C15       1.0  0.26391934622016316  0.8955800504351857  0.9039803635647418  1.0000
  C   C16       1.0  0.10440253039348586  0.7360620082561837  0.09601925951375286  1.0000
  C   C17       1.0  0.7816763523921822  0.060206844387607795  0.20958548992925335  1.0000
  C   C18       1.0  0.9398090063586721  0.2183300419865617  0.7904240647717984  1.0000
  C   C19       1.0  0.21830596739967922  0.9397900870281929  0.7904206771640362  1.0000
  C   C20       1.0  0.060198118042208516  0.7816742855865114  0.20957659110310095  1.0000
  C   C21       1.0  0.5935233883096628  0.406484054853685  0.9999974543756525  1.0000
  C   C22       1.0  0.40648021059920575  0.5935212102579328  0.9999970881298524  1.0000
  C   C23       1.0  0.4661385411665506  0.37423578277797276  0.06386872847389918  1.0000
  C   C24       1.0  0.62576909546798  0.5338818772059638  0.9361305993208476  1.0000
  C   C25       1.0  0.5338648105656175  0.6257605523576544  0.9361285307679736  1.0000
  C   C26       1.0  0.37423453174128707  0.4661273834863807  0.06387223815810472  1.0000
  N   N1        1.0  0.8238385477710182  0.1637049778444393  0.34052296343334393  1.0000
  N   N2        1.0  0.8362987875581708  0.1761567455500526  0.659480485670038  1.0000
  N   N3        1.0  0.17615571013860884  0.8362868941428374  0.6594724070527179  1.0000
  N   N4        1.0  0.16370585277778812  0.8238379280091338  0.34052234146120236  1.0000
  N   N5        1.0  0.6876182274388968  0.3123830254962384  0.9999957199887891  1.0000
  N   N6        1.0  0.31238524903753256  0.6876184944164763  3.5884324631857437e-06  1.0000
  Cl  Cl1       1.0  0.7835351097544246  0.783537110451071  0.40348183641228264  1.0000
  Cl  Cl2       1.0  0.21647301938805433  0.21646892518363356  0.596514680918908  1.0000
