data_image0
_chemical_formula_structural       Cd8H16C16S8Br8N24
_chemical_formula_sum              "Cd8 H16 C16 S8 Br8 N24"
_cell_length_a       7.975597047005147
_cell_length_b       10.891489516002666
_cell_length_c       14.176810913005896
_cell_angle_alpha    89.99999599898139
_cell_angle_beta     89.99989648440747
_cell_angle_gamma    89.99991989369572

_space_group_name_H-M_alt    "P 1"
_space_group_IT_number       1

loop_
  _space_group_symop_operation_xyz
  'x, y, z'

loop_
  _atom_site_type_symbol
  _atom_site_label
  _atom_site_symmetry_multiplicity
  _atom_site_fract_x
  _atom_site_fract_y
  _atom_site_fract_z
  _atom_site_occupancy
  Cd  Cd1       1.0  0.809130527125248  0.3149399471420366  0.662609113519089  1.0000
  Cd  Cd2       1.0  0.6908707220397688  0.18505972552449612  0.1626088557960941  1.0000
  Cd  Cd3       1.0  0.8091311445619741  0.6850610311513774  0.8373917135269124  1.0000
  Cd  Cd4       1.0  0.690869837703737  0.8149395868666004  0.3373907440510847  1.0000
  Cd  Cd5       1.0  0.190871030375142  0.6850604541796769  0.33739099912886417  1.0000
  Cd  Cd6       1.0  0.30912958163599313  0.8149406757978563  0.8373912568524915  1.0000
  Cd  Cd7       1.0  0.19087041293841622  0.31493937017033596  0.16260839912104064  1.0000
  Cd  Cd8       1.0  0.3091292121485339  0.18506081445643474  0.6626086632208725  1.0000
  H   H1        1.0  0.1736884426196283  0.5177821390795572  0.5440524407542355  1.0000
  H   H2        1.0  0.32631186580196925  0.982218101675883  0.0440534427313324  1.0000
  H   H3        1.0  0.17368780942359055  0.48221857170751276  0.9559476157844669  1.0000
  H   H4        1.0  0.32631337307699243  0.017780665844512097  0.4559472298071583  1.0000
  H   H5        1.0  0.8263131148818986  0.482218262242192  0.45594696651645705  1.0000
  H   H6        1.0  0.6736846764016636  0.017780463352273998  0.9559466699191929  1.0000
  H   H7        1.0  0.8263137480765297  0.5177809114661043  0.0440532022407609  1.0000
  H   H8        1.0  0.6736881844231277  0.9822188173291051  0.5440535882180767  1.0000
  H   H9        1.0  0.4057987016566004  0.6201334886416914  0.6465640927448532  1.0000
  H   H10       1.0  0.0942025285169379  0.8798658238566615  0.14656462823433  1.0000
  H   H11       1.0  0.40579734210508894  0.3798679026317516  0.8534364353062427  1.0000
  H   H12       1.0  0.0942041724690625  0.12013134502866049  0.353435572791156  1.0000
  H   H13       1.0  0.5942041096695618  0.3798669126794109  0.3534353145252069  1.0000
  H   H14       1.0  0.9057965213356809  0.12013182302212037  0.8534361897922123  1.0000
  H   H15       1.0  0.5942042153950311  0.6201315805418657  0.1465643827189922  1.0000
  H   H16       1.0  0.9057961312075734  0.8798681381456315  0.6465645398574509  1.0000
  C   C1        1.0  0.0015581484648806005  0.5876744070966848  0.6472936572742326  1.0000
  C   C2        1.0  0.49844182552161703  0.9123258234784827  0.14729307849653844  1.0000
  C   C3        1.0  0.0015592369598920002  0.41232556178883334  0.8527072780726357  1.0000
  C   C4        1.0  0.49844227997377294  0.08767460409149659  0.35270742061102567  1.0000
  C   C5        1.0  0.9984434090372648  0.41232415792890725  0.3527064553737702  1.0000
  C   C6        1.0  0.5015559705071695  0.08767457784522749  0.8527056233987975  1.0000
  C   C7        1.0  0.9984423205396169  0.587675757680948  0.1472928345752962  1.0000
  C   C8        1.0  0.501558023701719  0.912324879082767  0.6472933974148418  1.0000
  C   C9        1.0  0.2721647952984443  0.6205797763072168  0.6609263463932676  1.0000
  C   C10       1.0  0.2278351345261314  0.8794204529236607  0.16092604188372656  1.0000
  C   C11       1.0  0.2721647369491649  0.37942175179585297  0.8390736109242098  1.0000
  C   C12       1.0  0.227836824148703  0.12057841542883806  0.3390740244987071  1.0000
  C   C13       1.0  0.727836762201946  0.37942062501450363  0.33907376625468527  1.0000
  C   C14       1.0  0.7721626615012485  0.12057903025191757  0.8390740707661379  1.0000
  C   C15       1.0  0.7278368205512182  0.6205786495258607  0.1609265017237433  1.0000
  C   C16       1.0  0.7721647333516801  0.8794219858928752  0.660926088149246  1.0000
  S   S1        1.0  0.8074740957126424  0.5405059759406683  0.6093693495623995  1.0000
  S   S2        1.0  0.692523863731701  0.9594946645639765  0.1093676659444327  1.0000
  S   S3        1.0  0.8074762251321986  0.45949500404802984  0.8906314791518  1.0000
  S   S4        1.0  0.6925255392051852  0.040505564281225793  0.3906312268585381  1.0000
  S   S5        1.0  0.19252620796425657  0.4594944253817276  0.3906300577089254  1.0000
  S   S6        1.0  0.3074714246501102  0.04050573676108368  0.890629625197647  1.0000
  S   S7        1.0  0.19252533236590352  0.5405053972736197  0.1093700442506673  1.0000
  S   S8        1.0  0.3074747644703066  0.9594939188930308  0.6093695911673292  1.0000
  Br  Br1       1.0  0.010208822691886603  0.18115149836374658  0.5546353063676435  1.0000
  Br  Br2       1.0  0.4897798677356633  0.31884686061945894  0.054638973164493586  1.0000
  Br  Br3       1.0  0.010220119379390302  0.8188466253630434  0.9453613879945021  1.0000
  Br  Br4       1.0  0.48979142729237424  0.6811526576657412  0.4453650615512359  1.0000
  Br  Br5       1.0  0.989780196568809  0.8188479848165  0.445361279400366  1.0000
  Br  Br6       1.0  0.5102078976898596  0.6811517044130183  0.9453646663767399  1.0000
  Br  Br7       1.0  0.9897801842963717  0.18115377595931648  0.0546387246540831  1.0000
  Br  Br8       1.0  0.5102088763825138  0.3188486618046794  0.5546350510973284  1.0000
  N   N1        1.0  0.19724233581584374  0.6767787359330482  0.7320488662411078  1.0000
  N   N2        1.0  0.3027573636138783  0.8232224044326485  0.2320491943790302  1.0000
  N   N3        1.0  0.19724261514814861  0.3232219507362899  0.7679511665651544  1.0000
  N   N4        1.0  0.3027579225199518  0.17677730535422137  0.267950796515251  1.0000
  N   N5        1.0  0.8027592216856833  0.3232216653887078  0.2679505410295846  1.0000
  N   N6        1.0  0.6972416862383995  0.17677799689038654  0.7679502128929271  1.0000
  N   N7        1.0  0.8027576885264693  0.6767784505860275  0.23204965146068446  1.0000
  N   N8        1.0  0.6972423811566841  0.8232221778200707  0.7320493161333557  1.0000
  N   N9        1.0  0.027824330650709304  0.6566530175329105  0.7239145415526735  1.0000
  N   N10       1.0  0.4721766489561148  0.843347205486232  0.22391399262571096  1.0000
  N   N11       1.0  0.02782454521003791  0.34334876075478593  0.7760856619525496  1.0000
  N   N12       1.0  0.47217721992933553  0.15665233082906835  0.2760858275683232  1.0000
  N   N13       1.0  0.972177226848807  0.34334830193687077  0.2760855710952512  1.0000
  N   N14       1.0  0.52782365471991  0.15665411398422438  0.7760854146455998  1.0000
  N   N15       1.0  0.9721757584657242  0.656651640567574  0.2239144506960358  1.0000
  N   N16       1.0  0.5278243375707846  0.843347152344549  0.7239149904569046  1.0000
  N   N17       1.0  0.1549047495546532  0.5637822816725444  0.6072775287973541  1.0000
  N   N18       1.0  0.3450966078837183  0.9362179528478619  0.10727710335203967  1.0000
  N   N19       1.0  0.15490440898436475  0.4362193664953862  0.892723252044149  1.0000
  N   N20       1.0  0.3450969783240724  0.063779877291033  0.39272284488301773  1.0000
  N   N21       1.0  0.8450968079451259  0.43621995594533297  0.3927218784732958  1.0000
  N   N22       1.0  0.6549011881456794  0.06378061217968417  0.8927223039205998  1.0000
  N   N23       1.0  0.8450971485154853  0.5637791985301346  0.10727827135836068  1.0000
  N   N24       1.0  0.6549033253514197  0.9362196058832236  0.6072779731428495  1.0000
