data_image0
_chemical_formula_structural       La2H30C24S4O30
_chemical_formula_sum              "La2 H30 C24 S4 O30"
_cell_length_a       7.002730091801408
_cell_length_b       10.872131445359233
_cell_length_c       12.354982371863802
_cell_angle_alpha    83.85042180564933
_cell_angle_beta     77.12252156933815
_cell_angle_gamma    89.15277482977096

_space_group_name_H-M_alt    "P 1"
_space_group_IT_number       1

loop_
  _space_group_symop_operation_xyz
  'x, y, z'

loop_
  _atom_site_type_symbol
  _atom_site_label
  _atom_site_symmetry_multiplicity
  _atom_site_fract_x
  _atom_site_fract_y
  _atom_site_fract_z
  _atom_site_occupancy
  La  La1       1.0  0.2101420875770117  0.598283478779578  0.2134280175444516  1.0000
  La  La2       1.0  0.7898542098583688  0.4017211728031072  0.7865723723928184  1.0000
  H   H1        1.0  0.971577158728081  0.22321632619930645  0.2644987029531407  1.0000
  H   H2        1.0  0.028420249657315794  0.7767716840752215  0.735499021633096  1.0000
  H   H3        1.0  0.771341915878949  0.5863231440295633  0.1660064371908448  1.0000
  H   H4        1.0  0.2286572645427398  0.41367872429731983  0.8339946456213169  1.0000
  H   H5        1.0  0.8604672134574683  0.4486786094895549  0.17046550805624608  1.0000
  H   H6        1.0  0.13953344525106098  0.5513232507950931  0.8295370037773111  1.0000
  H   H7        1.0  0.3568812140825486  0.35030670286005966  0.09827575483440401  1.0000
  H   H8        1.0  0.6431136032179621  0.649696092741685  0.9017274241312094  1.0000
  H   H9        1.0  0.2749593524209502  0.4337265150736729  0.008399336525528198  1.0000
  H   H10       1.0  0.7250353557225536  0.5662716630780409  0.9916018513969007  1.0000
  H   H11       1.0  0.8677111195339362  0.44034494074271185  0.3957553586834663  1.0000
  H   H12       1.0  0.1322924350494148  0.5596569281975404  0.6042427321278723  1.0000
  H   H13       1.0  0.0633775184331  0.43605703557317094  0.4395953046589725  1.0000
  H   H14       1.0  0.9366301208586375  0.563931898523009  0.5603961603146459  1.0000
  H   H15       1.0  0.4409773348746738  0.3501734127857432  0.24535280431719286  1.0000
  H   H16       1.0  0.5590071619953108  0.6498266307068262  0.7546503381057407  1.0000
  H   H17       1.0  0.4933367343855721  0.41978130661772173  0.33940444122054453  1.0000
  H   H18       1.0  0.5066551220450747  0.580220574431351  0.6605975843346386  1.0000
  H   H19       1.0  0.8348522085455128  0.7327438601498032  0.3299505707658455  1.0000
  H   H20       1.0  0.16514839191228958  0.26725709148888643  0.6700471754200662  1.0000
  H   H21       1.0  0.9727071648963559  0.8494996991203224  0.2743650090914826  1.0000
  H   H22       1.0  0.027296360861690492  0.1505003167923533  0.7256340646295881  1.0000
  H   H23       1.0  0.09822186547785348  0.24997351973950535  0.9869825369913131  1.0000
  H   H24       1.0  0.9017655603884193  0.7500293160734018  0.013013496867309028  1.0000
  H   H25       1.0  0.4992761752171899  0.9779029500587056  0.8453595564985719  1.0000
  H   H26       1.0  0.5007244007114763  0.0220970791895283  0.1546374679647045  1.0000
  H   H27       1.0  0.31904751290004196  0.211697749371865  0.4211606018707101  1.0000
  H   H28       1.0  0.6809574690638769  0.7883004027220862  0.5788416925664918  1.0000
  H   H29       1.0  0.17789834895354056  0.8432153768385787  0.3688690086576258  1.0000
  H   H30       1.0  0.8221080800237671  0.15678184757158684  0.63113318429334  1.0000
  C   C1        1.0  0.12778222847793327  0.1543567993099373  0.9711163338806159  1.0000
  C   C2        1.0  0.8722110700698096  0.8456460208274307  0.028880563353581638  1.0000
  C   C3        1.0  0.3102314701577669  0.12386941849825922  0.9114678012748031  1.0000
  C   C4        1.0  0.6897647536902197  0.8761324659130878  0.08853042349455359  1.0000
  C   C5        1.0  0.3537085048139801  8.271030120710112e-05  0.8910018579801857  1.0000
  C   C6        1.0  0.6462876945048777  0.9999182517196915  0.1089956450665355  1.0000
  C   C7        1.0  0.21274417256826433  0.9095678429650819  0.9290871528266322  1.0000
  C   C8        1.0  0.7872535093336097  0.09043404165072391  0.07091007460912377  1.0000
  C   C9        1.0  0.020567986787163785  0.9368170618240581  0.9892831468688001  1.0000
  C   C10       1.0  0.97942528723145  0.0631848359228542  0.010713028642761939  1.0000
  C   C11       1.0  0.46628642510759727  0.2196663033070578  0.8677648768982849  1.0000
  C   C12       1.0  0.5337142581300681  0.7803364793680387  0.1322383566579077  1.0000
  C   C13       1.0  0.34220449940599446  0.1125830745859133  0.4332232991003124  1.0000
  C   C14       1.0  0.6578033919213764  0.8874150806658533  0.5667761918846709  1.0000
  C   C15       1.0  0.23269940632585664  0.0332907383927861  0.39011180431721465  1.0000
  C   C16       1.0  0.767309949799724  0.9667074143145413  0.6098874981191644  1.0000
  C   C17       1.0  0.2628801779593886  0.9044378538326255  0.4040567814978431  1.0000
  C   C18       1.0  0.7371335658164924  0.09556029399028182  0.5959411465077267  1.0000
  C   C19       1.0  0.40219802527728626  0.8562919461403663  0.4587644634266042  1.0000
  C   C20       1.0  0.5978128177274725  0.14370805979901038  0.5412328587664419  1.0000
  C   C21       1.0  0.5167678376317324  0.9341591421092087  0.5067978474201312  1.0000
  C   C22       1.0  0.4832444413459384  0.0658390082581448  0.4932002691340358  1.0000
  C   C23       1.0  0.08473402586118077  0.07801967159051061  0.3252273033352396  1.0000
  C   C24       1.0  0.9152649834567227  0.9219729425940172  0.6747754588855699  1.0000
  S   S1        1.0  0.279460607812446  0.755834674160418  0.9015201529668815  1.0000
  S   S2        1.0  0.7205341224120331  0.2441653597677771  0.09847924326081883  1.0000
  S   S3        1.0  0.4341147791883699  0.6921050254492584  0.46361847558939934  1.0000
  S   S4        1.0  0.5658931164351699  0.3078940604396436  0.5363793107632163  1.0000
  O   O1        1.0  0.6400206921067377  0.18493612932113726  0.8307820173674116  1.0000
  O   O2        1.0  0.35998438982171876  0.8150675763577836  0.16921894591060044  1.0000
  O   O3        1.0  0.42437908444465217  0.3357316085190831  0.8684855930167501  1.0000
  O   O4        1.0  0.5756230721835606  0.6642730328858519  0.13151404272610284  1.0000
  O   O5        1.0  0.23192641228661154  0.676147781413526  0.007867008114622816  1.0000
  O   O6        1.0  0.7680655778301781  0.3238596394760265  0.9921377302063732  1.0000
  O   O7        1.0  0.16484330260275468  0.7173028126976392  0.8239610188042832  1.0000
  O   O8        1.0  0.8351572316121078  0.28269257161159084  0.1760421024658285  1.0000
  O   O9        1.0  0.4918150087108514  0.761118554041893  0.8517930591389273  1.0000
  O   O10       1.0  0.5081826603025164  0.23888053866249237  0.14820928219393179  1.0000
  O   O11       1.0  0.067699825061915  0.20058234102213393  0.312685128743837  1.0000
  O   O12       1.0  0.9322875615387004  0.7994149164657286  0.6873195153389846  1.0000
  O   O13       1.0  0.9863673860483927  0.008031314221312898  0.28610437749600237  1.0000
  O   O14       1.0  0.013646362623781296  0.9919649668295278  0.7138985773443024  1.0000
  O   O15       1.0  0.32069295453982244  0.6506803820218393  0.38740467246535104  1.0000
  O   O16       1.0  0.6793105798105612  0.34932149516511396  0.6125909919909844  1.0000
  O   O17       1.0  0.3498529664188723  0.6407980539547183  0.5801287664685476  1.0000
  O   O18       1.0  0.6501506550075502  0.3592065849057774  0.41987068072570116  1.0000
  O   O19       1.0  0.6443735986487766  0.6693296332317544  0.4311504055649138  1.0000
  O   O20       1.0  0.355628339665408  0.33066577327311103  0.5688452480915771  1.0000
  O   O21       1.0  0.8908180017103999  0.5370522749154388  0.1700825274388508  1.0000
  O   O22       1.0  0.1091782785402984  0.4629486541186905  0.8299246810278973  1.0000
  O   O23       1.0  0.27193299058612297  0.42215773162712383  0.08814047407194178  1.0000
  O   O24       1.0  0.7280706486251062  0.5778478323727185  0.9118588860599387  1.0000
  O   O25       1.0  0.9973968896045378  0.48111165232297287  0.3861116621790829  1.0000
  O   O26       1.0  0.002605251687015198  0.5188911305565751  0.6138905740435021  1.0000
  O   O27       1.0  0.40992917570965653  0.42518201884420387  0.2840189593088098  1.0000
  O   O28       1.0  0.5900582709897079  0.5748180113128  0.715986232371918  1.0000
  O   O29       1.0  0.9575702140588689  0.7587744948444453  0.2752382854235266  1.0000
  O   O30       1.0  0.04243328042572609  0.2412246014266728  0.7247592577899055  1.0000
