data_image0
_chemical_formula_structural       Ni2H40C32N8O12
_chemical_formula_sum              "Ni2 H40 C32 N8 O12"
_cell_length_a       7.907110288963572
_cell_length_b       10.692662710689108
_cell_length_c       11.331428617805974
_cell_angle_alpha    103.69746198664821
_cell_angle_beta     102.32568614518945
_cell_angle_gamma    103.96219509480831

_space_group_name_H-M_alt    "P 1"
_space_group_IT_number       1

loop_
  _space_group_symop_operation_xyz
  'x, y, z'

loop_
  _atom_site_type_symbol
  _atom_site_label
  _atom_site_symmetry_multiplicity
  _atom_site_fract_x
  _atom_site_fract_y
  _atom_site_fract_z
  _atom_site_occupancy
  Ni  Ni1       1.0  0.5000012708274326  0.4999991846301839  0.9999992237776  1.0000
  Ni  Ni2       1.0  0.5000012321409457  3.805862789006557e-07  3.1900324872907875e-07  1.0000
  H   H1        1.0  0.4185080162536181  0.719537307633878  0.6881098618581731  1.0000
  H   H2        1.0  0.5814911670809054  0.2804612290375345  0.3118881264102384  1.0000
  H   H3        1.0  0.4678364768978157  0.6035189205727819  0.5692817939237572  1.0000
  H   H4        1.0  0.5321627064367078  0.396479616098631  0.4307161943446475  1.0000
  H   H5        1.0  0.23264844692002376  0.5225318014623851  0.3831852867811065  1.0000
  H   H6        1.0  0.7673511772973001  0.47746774807124115  0.6168121122130472  1.0000
  H   H7        1.0  0.0954712279317249  0.5679517434177085  0.7349077064140844  1.0000
  H   H8        1.0  0.904527524630659  0.43204578310862735  0.2650891082515088  1.0000
  H   H9        1.0  0.476289741127438  0.6407157169436104  0.19908380153037095  1.0000
  H   H10       1.0  0.5237081484419902  0.3592828321213516  0.8009148762375774  1.0000
  H   H11       1.0  0.5266240197834763  0.7602096364203844  0.13321819342009183  1.0000
  H   H12       1.0  0.4733777409705839  0.23978887274678579  0.8667801787263157  1.0000
  H   H13       1.0  0.1593115217150611  0.3346425538190303  0.7474340008679193  1.0000
  H   H14       1.0  0.8406919975148597  0.6653600054384369  0.2525628956199952  1.0000
  H   H15       1.0  0.17461104655563275  0.43464752852292315  0.13292833657992992  1.0000
  H   H16       1.0  0.8253915771913896  0.5653499581056349  0.8670681724641156  1.0000
  H   H17       1.0  0.8454458525284068  0.28955643535298486  0.003065015369038771  1.0000
  H   H18       1.0  0.1545563541637804  0.7104430880349852  0.9969318860645728  1.0000
  H   H19       1.0  0.8115168382165976  0.22946767302286727  0.7658891878256072  1.0000
  H   H20       1.0  0.18848410359377965  0.7705349137388353  0.23410732478431123  1.0000
  H   H21       1.0  0.08921019543865319  0.9888282122113168  0.570471391888205  1.0000
  H   H22       1.0  0.9107902903229502  0.0111733576124564  0.4295283543115858  1.0000
  H   H23       1.0  0.24238443847860944  0.15248535350956155  0.6639915862571613  1.0000
  H   H24       1.0  0.7576147535178986  0.8475162287077534  0.3360088494421731  1.0000
  H   H25       1.0  0.2535701834470884  0.8040839046034094  0.4983293569401681  1.0000
  H   H26       1.0  0.7464277097289912  0.1959176886488834  0.5016726496972481  1.0000
  H   H27       1.0  0.5092202747888449  0.23479945740972843  0.6042480089884634  1.0000
  H   H28       1.0  0.49078020086209767  0.7652021096969008  0.39575350008841076  1.0000
  H   H29       1.0  0.2550140487368324  0.8126163688296799  0.8382180950537262  1.0000
  H   H30       1.0  0.744985143259676  0.18738521338763545  0.1617823406456154  1.0000
  H   H31       1.0  0.37530756435897655  0.7248953910109603  0.8934014986656038  1.0000
  H   H32       1.0  0.6246920548030135  0.275104157164094  0.10659678176708816  1.0000
  H   H33       1.0  0.20244373174502073  0.15561863958139097  0.9798703630314806  1.0000
  H   H34       1.0  0.7975502527011501  0.8443768970425721  0.020130580119783387  1.0000
  H   H35       1.0  0.035142385617042686  0.20929183736752313  0.17234173067610206  1.0000
  H   H36       1.0  0.9648588938116022  0.790705648068858  0.8276642822528756  1.0000
  H   H37       1.0  0.16457032054623977  0.10183327696152839  0.3304374212949455  1.0000
  H   H38       1.0  0.8354395729066156  0.898166151686574  0.6695685647195049  1.0000
  H   H39       1.0  0.38769507767803907  0.983073543757051  0.26048936989200666  1.0000
  H   H40       1.0  0.6123126944040608  0.0169269293332235  0.7395129986545753  1.0000
  C   C1        1.0  0.4475696611392125  0.5395163781788881  0.732766864308573  1.0000
  C   C2        1.0  0.5524269447757748  0.46048218599675295  0.26723074008183545  1.0000
  C   C3        1.0  0.3885178352503759  0.6117538587146215  0.6378119462909524  1.0000
  C   C4        1.0  0.6114792064920779  0.3882457169646685  0.36218595026374356  1.0000
  C   C5        1.0  0.18766485740141556  0.5519697290721909  0.5673685956740186  1.0000
  C   C6        1.0  0.8123330509406512  0.4480318682558106  0.43263076664778305  1.0000
  C   C7        1.0  0.13022620498217918  0.5124136841883525  0.4345343031802713  1.0000
  C   C8        1.0  0.8697729834076712  0.4875848538416321  0.5654628036496021  1.0000
  C   C9        1.0  0.054425317159036944  0.5384137302587532  0.631606177832758  1.0000
  C   C10       1.0  0.9455738712308203  0.46158480777123145  0.3683909289971083  1.0000
  C   C11       1.0  0.1118802772442251  0.3375637879816152  0.8306228049393525  1.0000
  C   C12       1.0  0.8881210765656604  0.6624367606621105  0.16937419671953796  1.0000
  C   C13       1.0  0.1255511907180136  0.3923751871629122  0.030671496537877433  1.0000
  C   C14       1.0  0.874451015974174  0.6076243362250578  0.9693254048957273  1.0000
  C   C15       1.0  0.9391806365581487  0.2846808382222718  0.8381379280135377  1.0000
  C   C16       1.0  0.060820712196409804  0.7153197090628821  0.16185995508389078  1.0000
  C   C17       1.0  0.261385347299253  0.9876829627388019  0.7428806913104752  1.0000
  C   C18       1.0  0.7386142704140682  0.012319628265011293  0.2571217994302231  1.0000
  C   C19       1.0  0.22854633438658573  0.0445750656318538  0.6308385719244995  1.0000
  C   C20       1.0  0.7714494273080775  0.9554275693454597  0.36916158012212463  1.0000
  C   C21       1.0  0.36443146993563164  0.022165980211425993  0.5586668822939203  1.0000
  C   C22       1.0  0.6355668540125877  0.9778366231859364  0.4413362979463217  1.0000
  C   C23       1.0  0.36044325586165377  0.890399115830661  0.4980374638396868  1.0000
  C   C24       1.0  0.6395520598948892  0.10960250492586707  0.5019641589197336  1.0000
  C   C25       1.0  0.5053298490448058  0.13153798703718414  0.5594325057183696  1.0000
  C   C26       1.0  0.4946684799587402  0.8684646177187503  0.440569793083327  1.0000
  C   C27       1.0  0.21555310213345544  0.12805197170358434  0.0664011999563812  1.0000
  C   C28       1.0  0.7844439006150524  0.8719445502783644  0.9335995377986281  1.0000
  C   C29       1.0  0.133663761640598  0.1567458774669888  0.16024500704413921  1.0000
  C   C30       1.0  0.866337963726167  0.8432526221901779  0.8397595351720426  1.0000
  C   C31       1.0  0.3156372503543566  0.036183469067672995  0.2082703158903954  1.0000
  C   C32       1.0  0.6843692330179751  0.9638170177747228  0.791731860717185  1.0000
  N   N1        1.0  0.22726781144641714  0.40426795883751504  0.9515761970549336  1.0000
  N   N2        1.0  0.7727343851351165  0.595731561833304  0.04842246725575454  1.0000
  N   N3        1.0  0.9508866924070603  0.31992420992251874  0.9652308419488237  1.0000
  N   N4        1.0  0.049115509229800076  0.6800753121068793  0.03476694092332619  1.0000
  N   N5        1.0  0.3288492300232022  0.053294499894867876  0.09743768301409969  1.0000
  N   N6        1.0  0.671152951392351  0.9467050167002355  0.9025636256122027  1.0000
  N   N7        1.0  0.19810613740416017  0.09761978482013228  0.24843633562152695  1.0000
  N   N8        1.0  0.8019007478570191  0.9023786611871359  0.7515680929121089  1.0000
  O   O1        1.0  0.4908077387408342  0.4338946536188004  0.6931635395932645  1.0000
  O   O2        1.0  0.5091888671741528  0.5661039105568475  0.3068340647971439  1.0000
  O   O3        1.0  0.44620567287778107  0.5886500073598953  0.8475424813293914  1.0000
  O   O4        1.0  0.5537930883465805  0.41135056471235026  0.1524567807671247  1.0000
  O   O5        1.0  0.4504171807734423  0.6660605740815342  0.11815727794373028  1.0000
  O   O6        1.0  0.5495845799806246  0.3339379350856362  0.8818410942026773  1.0000
  O   O7        1.0  0.37801326229711674  0.0674207655841457  0.8470289019848138  1.0000
  O   O8        1.0  0.6219885121742548  0.9325807904875061  0.15297103615397836  1.0000
  O   O9        1.0  0.1788177860971843  0.8646951119554134  0.7230217217124563  1.0000
  O   O10       1.0  0.8211762409495904  0.13530652255322917  0.2769797091079624  1.0000
  O   O11       1.0  0.3148986980617535  0.7955061063199266  0.9192354174108033  1.0000
  O   O12       1.0  0.6851026456374784  0.20449443960665545  0.08076334712517051  1.0000
