data_image0
_chemical_formula_structural       Ag4H8C12N12O8
_chemical_formula_sum              "Ag4 H8 C12 N12 O8"
_cell_length_a       6.065676945028246
_cell_length_b       6.850617890882657
_cell_length_c       12.264719464374176
_cell_angle_alpha    89.99682315219599
_cell_angle_beta     89.9998977405867
_cell_angle_gamma    90.00038343578338

_space_group_name_H-M_alt    "P 1"
_space_group_IT_number       1

loop_
  _space_group_symop_operation_xyz
  'x, y, z'

loop_
  _atom_site_type_symbol
  _atom_site_label
  _atom_site_symmetry_multiplicity
  _atom_site_fract_x
  _atom_site_fract_y
  _atom_site_fract_z
  _atom_site_occupancy
  Ag  Ag1       1.0  0.750006896600368  0.04617728974984909  0.2737050040999521  1.0000
  Ag  Ag2       1.0  0.2500530653190153  0.9538068608849599  0.7262856907264208  1.0000
  Ag  Ag3       1.0  0.24997207202083865  0.04611264394949189  0.22625213647435774  1.0000
  Ag  Ag4       1.0  0.7499724865889944  0.953893403913419  0.7737034981601952  1.0000
  H   H1        1.0  0.7500069074291457  0.8479286714732622  0.5107803106338552  1.0000
  H   H2        1.0  0.24999535294001152  0.15210218845893314  0.48924544339230647  1.0000
  H   H3        1.0  0.25001440925413476  0.8479775583767263  0.989222062803812  1.0000
  H   H4        1.0  0.7499977426820832  0.1520051333928976  0.0107482484057329  1.0000
  H   H5        1.0  0.750006863879939  0.4485332411520914  0.435908532502964  1.0000
  H   H6        1.0  0.24999539637661164  0.5514742627938105  0.564126190713182  1.0000
  H   H7        1.0  0.2500251277536946  0.44861109737665567  0.0641033597597414  1.0000
  H   H8        1.0  0.7499985649688553  0.5514766933387207  0.9358897794660592  1.0000
  C   C1        1.0  0.7500097580186202  0.005050900451607301  0.5215759895042424  1.0000
  C   C2        1.0  0.25001393446201087  0.9949843398305801  0.47842611938028073  1.0000
  C   C3        1.0  0.24998430952177828  0.0050979000616778  0.9784257272594772  1.0000
  C   C4        1.0  0.7499948700692511  0.9949066860589966  0.0215739361048861  1.0000
  C   C5        1.0  0.7499927973886286  0.2875532116239583  0.5967309390359148  1.0000
  C   C6        1.0  0.2500094627444652  0.7124250981479037  0.4032980772212228  1.0000
  C   C7        1.0  0.24994112472335667  0.2875767440755155  0.9032429539276878  1.0000
  C   C8        1.0  0.7500083795762432  0.7123957290942046  0.09673551095372801  1.0000
  C   C9        1.0  0.7500045779008814  0.3157078914104474  0.48389871742669044  1.0000
  C   C10       1.0  0.25000922262296393  0.6842777176640878  0.5161164378100268  1.0000
  C   C11       1.0  0.24997677866149803  0.31578741765531504  0.0160897181131361  1.0000
  C   C12       1.0  0.750000752404432  0.6842376048080111  0.9839050528432483  1.0000
  N   N1        1.0  0.7500170177736647  0.135859175342901  0.437583382813557  1.0000
  N   N2        1.0  0.2500215121579216  0.8641424920243991  0.5624048657046714  1.0000
  N   N3        1.0  0.2500039612880086  0.1359313540897062  0.06240022830937871  1.0000
  N   N4        1.0  0.7499900559166193  0.8640805304842016  0.9376035116625232  1.0000
  N   N5        1.0  0.749996848491868  0.09072609252424972  0.6192743619402847  1.0000
  N   N6        1.0  0.2500087088745175  0.909249298044884  0.3807497622807147  1.0000
  N   N7        1.0  0.24997159982089553  0.09073864149873861  0.8807303117631097  1.0000
  N   N8        1.0  0.7500059309547639  0.9092163152275178  0.1192448919945335  1.0000
  N   N9        1.0  0.7499933497965044  0.4312808430776158  0.6789196675745401  1.0000
  N   N10       1.0  0.2500122075565372  0.5686887091868159  0.32109222653790687  1.0000
  N   N11       1.0  0.2499962499192988  0.4313239111052951  0.8210667321839511  1.0000
  N   N12       1.0  0.749994469925049  0.5686573200708552  0.1789207013458026  1.0000
  O   O1        1.0  0.7500007502021047  0.6063307199875964  0.6489414466557619  1.0000
  O   O2        1.0  0.25001305035180366  0.3936490528091312  0.3510190804377729  1.0000
  O   O3        1.0  0.24999369715974495  0.606362162115758  0.8510711309056591  1.0000
  O   O4        1.0  0.7500085629952339  0.3936263646211202  0.14898071489837864  1.0000
  O   O5        1.0  0.7499864275647282  0.37993042298197116  0.7769537168236056  1.0000
  O   O6        1.0  0.2500323189358297  0.6200858392994776  0.22308182158832326  1.0000
  O   O7        1.0  0.2500142576274341  0.3799653475943289  0.7230343319367593  1.0000
  O   O8        1.0  0.7499880027624141  0.6200552973607573  0.27692700985468127  1.0000
