data_image0
_chemical_formula_structural       Co2H28C40N12O8
_chemical_formula_sum              "Co2 H28 C40 N12 O8"
_cell_length_a       8.37150219726392
_cell_length_b       10.098836840699816
_cell_length_c       13.870363609722862
_cell_angle_alpha    80.95109307853357
_cell_angle_beta     78.55911165410362
_cell_angle_gamma    78.53203914548239

_space_group_name_H-M_alt    "P 1"
_space_group_IT_number       1

loop_
  _space_group_symop_operation_xyz
  'x, y, z'

loop_
  _atom_site_type_symbol
  _atom_site_label
  _atom_site_symmetry_multiplicity
  _atom_site_fract_x
  _atom_site_fract_y
  _atom_site_fract_z
  _atom_site_occupancy
  Co  Co1       1.0  0.6269353675597814  0.6271715294549693  0.5496092750861974  1.0000
  Co  Co2       1.0  0.37306179786122584  0.37281635908106375  0.4503905747550405  1.0000
  H   H1        1.0  0.263040563483635  0.452377772563274  0.08966486783963747  1.0000
  H   H2        1.0  0.7369564262816511  0.5476345543130633  0.9103286603763934  1.0000
  H   H3        1.0  0.339929888416691  0.5957390537767394  0.05073389625495389  1.0000
  H   H4        1.0  0.6600663566376425  0.4042651239086155  0.9492627994902776  1.0000
  H   H5        1.0  0.37215711699001025  0.443015284273983  0.9068243356452184  1.0000
  H   H6        1.0  0.6278563134633187  0.5569887652617355  0.09318107812099899  1.0000
  H   H7        1.0  0.5883901349925154  0.45000781669721585  0.7538039915206907  1.0000
  H   H8        1.0  0.4116113572640359  0.5500004204248157  0.2461901628533667  1.0000
  H   H9        1.0  0.36340969605856094  0.8296499022953937  0.6426838364415772  1.0000
  H   H10       1.0  0.63658920991184  0.17034715810313367  0.3573111669964461  1.0000
  H   H11       1.0  0.13937124233984838  0.8424435929232246  0.7932620959989406  1.0000
  H   H12       1.0  0.8606329203460917  0.15756360399377198  0.20673400983587698  1.0000
  H   H13       1.0  0.7021023697529359  0.8204131283979025  0.18512715598137663  1.0000
  H   H14       1.0  0.29790470189535523  0.17959199232601716  0.8148738720100609  1.0000
  H   H15       1.0  0.5903429690083328  0.8054274761557919  0.3666646430394636  1.0000
  H   H16       1.0  0.40965152812734124  0.19456753415028769  0.6333361785332201  1.0000
  H   H17       1.0  0.9267704573461234  0.45332323650301015  0.42414202906921605  1.0000
  H   H18       1.0  0.07322447049578781  0.5466636471612532  0.5758574872484274  1.0000
  H   H19       1.0  0.05397561912076305  0.45419402613115534  0.24936920677433957  1.0000
  H   H20       1.0  0.9460228761071864  0.545805065894548  0.7506263404537988  1.0000
  H   H21       1.0  0.6201821497720772  0.0866596914876183  0.5286694272122503  1.0000
  H   H22       1.0  0.3798145355018149  0.9133424366377128  0.4713296070459024  1.0000
  H   H23       1.0  0.954410434019778  0.2665735774828731  0.6460961619231114  1.0000
  H   H24       1.0  0.045580455802301974  0.7334214144910404  0.35391015166891276  1.0000
  H   H25       1.0  0.1131096119610007  0.0364976585208012  0.6897786887588353  1.0000
  H   H26       1.0  0.8868926800376902  0.9634952537085649  0.3102271782275352  1.0000
  H   H27       1.0  0.0160876036887175  0.8291190819746672  0.6571870746390045  1.0000
  H   H28       1.0  0.9839140221519499  0.1708708252713365  0.3428120010978971  1.0000
  C   C1        1.0  0.23844836706794584  0.6448067370367169  0.8632525314992774  1.0000
  C   C2        1.0  0.761559552461179  0.35520647011322376  0.13675541702361474  1.0000
  C   C3        1.0  0.3692062593952842  0.5339520876969103  0.8527018834871001  1.0000
  C   C4        1.0  0.6307977826661143  0.46605607347674277  0.14730278086401682  1.0000
  C   C5        1.0  0.48751151565029016  0.5354277363308737  0.7665292328848919  1.0000
  C   C6        1.0  0.5124933279322265  0.46458245660306113  0.23347510535091223  1.0000
  C   C7        1.0  0.3609271897154188  0.7474893157427545  0.7039221866868246  1.0000
  C   C8        1.0  0.6390843402084913  0.25251174212613137  0.2960751440080713  1.0000
  C   C9        1.0  0.23798242385832688  0.7543636580080387  0.7871537949153476  1.0000
  C   C10       1.0  0.7620321525350847  0.24564043200968652  0.21284426376358564  1.0000
  C   C11       1.0  0.09829713966318822  0.6511364965558216  0.9449796111354586  1.0000
  C   C12       1.0  0.9017087218655887  0.34887470559999667  0.05502520995361235  1.0000
  C   C13       1.0  0.9451801897499482  0.6496566168676947  0.09373812269915759  1.0000
  C   C14       1.0  0.05482723583063631  0.3503525896597424  0.9062595200882767  1.0000
  C   C15       1.0  0.8876396117914213  0.6384234915670105  0.20059605775689696  1.0000
  C   C16       1.0  0.11237085811461615  0.3615826655442617  0.7993993898223691  1.0000
  C   C17       1.0  0.7544322334303858  0.7374368504068939  0.2362083775693407  1.0000
  C   C18       1.0  0.24557847286457252  0.26256218915133894  0.7637871175135869  1.0000
  C   C19       1.0  0.690884378762462  0.7287217153307068  0.3365963727469037  1.0000
  C   C20       1.0  0.30911440443934174  0.27127022775947296  0.6634042660152204  1.0000
  C   C21       1.0  0.8784058853833161  0.5331342274078068  0.3695592558156448  1.0000
  C   C22       1.0  0.12159164348330623  0.4668638240135365  0.630440852589551  1.0000
  C   C23       1.0  0.9510890761625532  0.5347173313959174  0.26994268306925306  1.0000
  C   C24       1.0  0.048915895413784924  0.4652918927981489  0.7300538172260076  1.0000
  C   C25       1.0  0.7518529052052046  0.8249585899538658  0.5743620761721004  1.0000
  C   C26       1.0  0.2481277851904977  0.1750324048159086  0.4256401703521817  1.0000
  C   C27       1.0  0.8114631045634794  0.9465515264805047  0.5929068371469555  1.0000
  C   C28       1.0  0.18852876421442488  0.05343841556633321  0.4070934332273309  1.0000
  C   C29       1.0  0.7267339904859114  0.07679991590742927  0.5651397019168982  1.0000
  C   C30       1.0  0.2732556502262114  0.9231950983494313  0.434863878701762  1.0000
  C   C31       1.0  0.7783285582915767  0.19194993815784764  0.5846325431978981  1.0000
  C   C32       1.0  0.22166733805570268  0.8080440676757731  0.41536533513488644  1.0000
  C   C33       1.0  0.6896841557069138  0.3314370935563247  0.5545509788518713  1.0000
  C   C34       1.0  0.31031178485602606  0.6685568853780309  0.4454512229354818  1.0000
  C   C35       1.0  0.9160371092538354  0.175981637647574  0.6315122880608186  1.0000
  C   C36       1.0  0.08395070462163551  0.8240103401103412  0.36849041524412474  1.0000
  C   C37       1.0  0.002929463944447304  0.0464542384380735  0.6566336640819301  1.0000
  C   C38       1.0  0.9970697447383615  0.9535356640585064  0.3433678720415968  1.0000
  C   C39       1.0  0.9507622290552359  0.9315509284778399  0.63786777638785  1.0000
  C   C40       1.0  0.04922962498411471  0.06843902253542208  0.3621310528349184  1.0000
  N   N1        1.0  0.4833855933984027  0.638949031896935  0.6925044573782484  1.0000
  N   N2        1.0  0.5166340632129761  0.3610540271483913  0.30749237179905714  1.0000
  N   N3        1.0  0.9435245630843881  0.7069801036292416  0.9346510195494844  1.0000
  N   N4        1.0  0.05648205574984643  0.2930331571861301  0.06534915196970557  1.0000
  N   N5        1.0  0.8478127927661917  0.704534692501376  0.027148777925944473  1.0000
  N   N6        1.0  0.1521952326489213  0.295477559358325  0.9728491709291162  1.0000
  N   N7        1.0  0.10348630792998395  0.611303510442383  0.04435649560166151  1.0000
  N   N8        1.0  0.8965185061754327  0.38870670042440025  0.9556449603310995  1.0000
  N   N9        1.0  0.2402821197665902  0.5558115041238948  0.09041361938366071  1.0000
  N   N10       1.0  0.7597141126932457  0.44419876409288866  0.909584558402244  1.0000
  N   N11       1.0  0.749905934412716  0.627434020359317  0.4031236471831646  1.0000
  N   N12       1.0  0.25009243804664294  0.37255995435803874  0.5968775353690815  1.0000
  O   O1        1.0  0.8220527024386541  0.7046291687507207  0.602078225412498  1.0000
  O   O2        1.0  0.1779307516779198  0.29536592105520043  0.3979174549453929  1.0000
  O   O3        1.0  0.6256090290865188  0.8424657052497796  0.5315252447338848  1.0000
  O   O4        1.0  0.37436795296975595  0.1575314155177878  0.46847532894128807  1.0000
  O   O5        1.0  0.5893514164550311  0.3452934455646428  0.4944256034810408  1.0000
  O   O6        1.0  0.4106595041210213  0.6546984898901796  0.5055677773782676  1.0000
  O   O7        1.0  0.7223613680317629  0.43097580864060353  0.5896373481258266  1.0000
  O   O8        1.0  0.27762243515693547  0.5690181779291096  0.41037211156434233  1.0000
