data_image0
_chemical_formula_structural       Ho2Ag10H32C64O32
_chemical_formula_sum              "Ho2 Ag10 H32 C64 O32"
_cell_length_a       7.874188158717541
_cell_length_b       14.832584764787706
_cell_length_c       14.97847344353832
_cell_angle_alpha    64.4366597477519
_cell_angle_beta     81.39387170365964
_cell_angle_gamma    81.51148372943486

_space_group_name_H-M_alt    "P 1"
_space_group_IT_number       1

loop_
  _space_group_symop_operation_xyz
  'x, y, z'

loop_
  _atom_site_type_symbol
  _atom_site_label
  _atom_site_symmetry_multiplicity
  _atom_site_fract_x
  _atom_site_fract_y
  _atom_site_fract_z
  _atom_site_occupancy
  Ho  Ho1       1.0  0.35276922227200913  0.2511102367616189  0.25206114672683105  1.0000
  Ho  Ho2       1.0  0.6472305053469257  0.7488875284645359  0.747941436840371  1.0000
  Ag  Ag1       1.0  0.12732751486588262  0.09215068632442323  0.4972249205399634  1.0000
  Ag  Ag2       1.0  0.8726799425322371  0.9078470560188878  0.5027724001143737  1.0000
  Ag  Ag3       1.0  0.17773950270132138  0.40642514141917735  0.002807937115811391  1.0000
  Ag  Ag4       1.0  0.8222608985474409  0.5935763815553231  0.9971936392255073  1.0000
  Ag  Ag5       1.0  0.7984224195724536  0.3290886099915723  0.017053332361513223  1.0000
  Ag  Ag6       1.0  0.20157902992525586  0.6709144070740932  0.9829461822681438  1.0000
  Ag  Ag7       1.0  0.29229381359061796  0.8256314920119864  0.5154975882171727  1.0000
  Ag  Ag8       1.0  0.7077078924991796  0.1743700080431552  0.4844998910336926  1.0000
  Ag  Ag9       1.0  0.854551067438969  0.25215015874440644  0.2511071260245714  1.0000
  Ag  Ag10      1.0  0.14544655311067348  0.7478528282575141  0.7488880250231063  1.0000
  H   H1        1.0  0.18170595193564762  0.09192196569825481  0.9852001827971649  1.0000
  H   H2        1.0  0.8182799918596902  0.9080817607694057  0.014794886688406537  1.0000
  H   H3        1.0  0.13517677009841844  0.9131688186126183  0.03692251874115725  1.0000
  H   H4        1.0  0.8648119852030621  0.0868334082517634  0.9630729802908462  1.0000
  H   H5        1.0  0.07497312653480759  0.8023740706869802  0.2175873808550648  1.0000
  H   H6        1.0  0.9250236886659594  0.1976259210247377  0.7824104613020282  1.0000
  H   H7        1.0  0.07695683357817272  0.8693191389315232  0.3432753309707054  1.0000
  H   H8        1.0  0.9230421961475347  0.1306830943158843  0.6567193686560628  1.0000
  H   H9        1.0  0.8884519228190514  0.4014858220509083  0.5133553811797071  1.0000
  H   H10       1.0  0.11155772171999702  0.5985141934510807  0.4866441264973744  1.0000
  H   H11       1.0  0.7727529228389828  0.5806771320936974  0.4602414204201181  1.0000
  H   H12       1.0  0.22725206001911158  0.4193198896773254  0.5397617443374756  1.0000
  H   H13       1.0  0.8045289294290684  0.6980886543624791  0.28043910363420105  1.0000
  H   H14       1.0  0.19547054844378667  0.3019106199684529  0.71956418292352  1.0000
  H   H15       1.0  0.9350801510555443  0.6339317956425818  0.15563675278244193  1.0000
  H   H16       1.0  0.06492048967029258  0.36606823008575873  0.8443661191507559  1.0000
  H   H17       1.0  0.42518369979865167  0.5112635661840131  0.41571777841460283  1.0000
  H   H18       1.0  0.5748148786593108  0.4887334318332535  0.5842825550005912  1.0000
  H   H19       1.0  0.3360888429798124  0.692017196813161  0.31439973263402976  1.0000
  H   H20       1.0  0.6639120474921115  0.3079813198103878  0.6856024363086491  1.0000
  H   H21       1.0  0.3702222701584717  0.7589970970447696  0.12835706891787174  1.0000
  H   H22       1.0  0.6297733650742999  0.24100216303391156  0.8716445188344224  1.0000
  H   H23       1.0  0.483463670870819  0.6453250463325304  0.04698804188157611  1.0000
  H   H24       1.0  0.516528111452864  0.3546742113525172  0.9530138456476747  1.0000
  H   H25       1.0  0.6363746999522988  0.0005137329053824002  0.0851009620830396  1.0000
  H   H26       1.0  0.363634711955669  0.9994877719370339  0.9148959176138972  1.0000
  H   H27       1.0  0.5879895563569449  0.8195110882027662  0.18399937980567674  1.0000
  H   H28       1.0  0.4120135520629234  0.18048966600360228  0.8159989804125374  1.0000
  H   H29       1.0  0.57005698284771  0.7474569827439411  0.3703520578422469  1.0000
  H   H30       1.0  0.42994330722000745  0.2525452789714535  0.6296472052178004  1.0000
  H   H31       1.0  0.5891919852633691  0.8567388583714789  0.45439541427308683  1.0000
  H   H32       1.0  0.41080713852836964  0.1432626558993988  0.5456049296056164  1.0000
  C   C1        1.0  0.20502076513098194  0.18744418645591313  0.09364695106373937  1.0000
  C   C2        1.0  0.7949850470369882  0.8125558029352079  0.9063488592255027  1.0000
  C   C3        1.0  0.16555942425308257  0.08026970322245573  0.13371413766726897  1.0000
  C   C4        1.0  0.8344383211695998  0.9197325292270765  0.866280661885149  1.0000
  C   C5        1.0  0.16193340353387956  0.041706330877126205  0.06376855216502259  1.0000
  C   C6        1.0  0.8380594475767681  0.9582943971818525  0.9362272764877559  1.0000
  C   C7        1.0  0.13316074632658104  0.9419685213660929  0.09291260665146689  1.0000
  C   C8        1.0  0.8668318584609837  0.05803371184479289  0.9070832587977053  1.0000
  C   C9        1.0  0.10182734293928057  0.8798599221470202  0.1938752495114924  1.0000
  C   C10       1.0  0.8981640955722909  0.1201415636193417  0.8061216967563354  1.0000
  C   C11       1.0  0.10358747024424278  0.9172237179155475  0.2644260824685605  1.0000
  C   C12       1.0  0.8964033610171287  0.08278152084840679  0.7355692903049089  1.0000
  C   C13       1.0  0.1368369228533268  0.016969352829669  0.23603646813636914  1.0000
  C   C14       1.0  0.8631568413642231  0.9830336357314948  0.7639596488824054  1.0000
  C   C15       1.0  0.13348973861617003  0.05133068798038921  0.31645900108150465  1.0000
  C   C16       1.0  0.8665135015227466  0.9486693037678436  0.6835376752531772  1.0000
  C   C17       1.0  0.06777492088947672  0.3119191212609919  0.40724753658127366  1.0000
  C   C18       1.0  0.9322312248215996  0.6880786519074321  0.5927552135517898  1.0000
  C   C19       1.0  0.9846225627557533  0.41760149695505083  0.3660935592495774  1.0000
  C   C20       1.0  0.015383711251367092  0.5823955177081076  0.6339081731940864  1.0000
  C   C21       1.0  0.9000560442102667  0.453431332000868  0.4351300809480704  1.0000
  C   C22       1.0  0.0999448531076652  0.5465671767169412  0.5648707556063427  1.0000
  C   C23       1.0  0.8357477556250859  0.5537730789698259  0.4051413289600348  1.0000
  C   C24       1.0  0.16425570345289492  0.4462254392494885  0.5948606401313299  1.0000
  C   C25       1.0  0.8531233505452179  0.6194374029079411  0.30464487368803367  1.0000
  C   C26       1.0  0.14688243423873368  0.38056261810616115  0.6953562661542776  1.0000
  C   C27       1.0  0.9291005019734658  0.5838248999520773  0.23461222450632133  1.0000
  C   C28       1.0  0.07089281097633203  0.41617285337893156  0.7653895263008864  1.0000
  C   C29       1.0  0.995177718486325  0.4830959094780098  0.26357616999649736  1.0000
  C   C30       1.0  0.004819325922518713  0.5169025968461582  0.7364249663348802  1.0000
  C   C31       1.0  0.060700713828957524  0.4494120807637076  0.18305132079360933  1.0000
  C   C32       1.0  0.9392985245668161  0.5505886908133917  0.8169506701722327  1.0000
  C   C33       1.0  0.5456984113615279  0.367541519024222  0.3522533022029676  1.0000
  C   C34       1.0  0.45429954273121353  0.6324592517550016  0.6477487886885314  1.0000
  C   C35       1.0  0.4881618535435026  0.4749322242139939  0.290000706536155  1.0000
  C   C36       1.0  0.5118336602392263  0.5250677864642057  0.7100005665172588  1.0000
  C   C37       1.0  0.4304471813492584  0.5409130163474388  0.33505353019734935  1.0000
  C   C38       1.0  0.5695535910956266  0.45908624692275884  0.6649476578523164  1.0000
  C   C39       1.0  0.38364195972837223  0.6420476309040879  0.2781126244341364  1.0000
  C   C40       1.0  0.6163564835875378  0.3579501335241916  0.7218900590587225  1.0000
  C   C41       1.0  0.40239360346444647  0.679652221351823  0.17435910105693606  1.0000
  C   C42       1.0  0.5976072870074775  0.3203462952717331  0.8256430678857426  1.0000
  C   C43       1.0  0.4628281073826915  0.6152963938362461  0.12832027501003299  1.0000
  C   C44       1.0  0.5371674029770332  0.38470362079483084  0.8716816642375207  1.0000
  C   C45       1.0  0.5006815784221106  0.5124116574052451  0.18544515504600412  1.0000
  C   C46       1.0  0.4993142997107471  0.487586101474399  0.8145570621040292  1.0000
  C   C47       1.0  0.5515608294613373  0.4454502251481856  0.13188137704685232  1.0000
  C   C48       1.0  0.4484373812234994  0.5545490286205136  0.8681186784658549  1.0000
  C   C49       1.0  0.6691086832809037  0.1374797095911973  0.15305517365044344  1.0000
  C   C50       1.0  0.3308996598400996  0.8625203248772879  0.8469477649229589  1.0000
  C   C51       1.0  0.6285843598570153  0.0311880675243259  0.2129647930312046  1.0000
  C   C52       1.0  0.37141641258786967  0.9688111957458718  0.7870363950184681  1.0000
  C   C53       1.0  0.6219282272715605  0.9682120052585006  0.16601169014804637  1.0000
  C   C54       1.0  0.3780735968452831  0.0317887481499994  0.8339867699958249  1.0000
  C   C55       1.0  0.5967680262841314  0.8672337014892264  0.22146826793763097  1.0000
  C   C56       1.0  0.40323392270575203  0.132766297366878  0.7785298407109735  1.0000
  C   C57       1.0  0.5854608834070947  0.8268480492457398  0.3253500687229833  1.0000
  C   C58       1.0  0.41453836183467985  0.17315271442561908  0.6746505898545934  1.0000
  C   C59       1.0  0.5921126938550927  0.8886844808707438  0.3731429646122066  1.0000
  C   C60       1.0  0.40788667283672453  0.11131553220109679  0.626858008664243  1.0000
  C   C61       1.0  0.6066853466306626  0.9916798211393358  0.317601622623357  1.0000
  C   C62       1.0  0.3933140200611547  0.0083201919324978  0.6823993506530998  1.0000
  C   C63       1.0  0.5930737980765958  0.0575308980434457  0.3720671888002228  1.0000
  C   C64       1.0  0.40692416286214694  0.9424698648300309  0.6279335697030104  1.0000
  O   O1        1.0  0.11937856729738883  0.2526133674779274  0.024245228315209002  1.0000
  O   O2        1.0  0.8806284077235703  0.7473873733105878  0.9757501673495099  1.0000
  O   O3        1.0  0.32695020054433144  0.20884237785649873  0.126320178098716  1.0000
  O   O4        1.0  0.6730532722256584  0.7911561245513213  0.8736791262161178  1.0000
  O   O5        1.0  0.1440373413155315  0.9862097866262403  0.40501138363575245  1.0000
  O   O6        1.0  0.8559657807963464  0.013790951768641002  0.5949843118059307  1.0000
  O   O7        1.0  0.11703692248344312  0.1464617305797233  0.295278608141416  1.0000
  O   O8        1.0  0.8829598756023104  0.853538280896359  0.7047225649863408  1.0000
  O   O9        1.0  0.9834180488117501  0.24403606658012222  0.4766796858004199  1.0000
  O   O10       1.0  0.016586573119219784  0.7559632030365863  0.5233218686664216  1.0000
  O   O11       1.0  0.22310782738759377  0.2943684787228165  0.37561724522606  1.0000
  O   O12       1.0  0.7768996026265144  0.7056292952434831  0.6243854049813464  1.0000
  O   O13       1.0  0.0863897849852222  0.5142436770448386  0.09441146340217439  1.0000
  O   O14       1.0  0.9136093319605013  0.48575784513177916  0.9055902128648013  1.0000
  O   O15       1.0  0.08396309134901263  0.3543320611970486  0.2039774505018174  1.0000
  O   O16       1.0  0.9160361504697576  0.6456687064271805  0.796023874269892  1.0000
  O   O17       1.0  0.570282557149888  0.3396965206547123  0.44174470716766473  1.0000
  O   O18       1.0  0.42971527891581485  0.6603049967711597  0.5582564028308356  1.0000
  O   O19       1.0  0.5739512831268173  0.3074159394007551  0.30788320467211605  1.0000
  O   O20       1.0  0.42604680610797624  0.6925840649674555  0.6921165361417252  1.0000
  O   O21       1.0  0.7043794167788067  0.4444395513125485  0.0902047640237953  1.0000
  O   O22       1.0  0.29561856127494934  0.5555611917965636  0.9097926635087746  1.0000
  O   O23       1.0  0.43580390694297944  0.396695172534507  0.1267466787616698  1.0000
  O   O24       1.0  0.5641932589159069  0.6033025831901428  0.8732547722685736  1.0000
  O   O25       1.0  0.7231929372570249  0.05846154892094551  0.412399358680716  1.0000
  O   O26       1.0  0.2768052768508087  0.9415377008948768  0.5876000306378586  1.0000
  O   O27       1.0  0.44741323937275734  0.10610689304157012  0.378517804251139  1.0000
  O   O28       1.0  0.5525850790701058  0.893891625939098  0.6214852307369796  1.0000
  O   O29       1.0  0.6380097374871813  0.19691296734120567  0.19795624822686614  1.0000
  O   O30       1.0  0.36199358302574325  0.8030863212419844  0.8020487371362962  1.0000
  O   O31       1.0  0.7364996645574777  0.16502887142989658  0.0647699447459757  1.0000
  O   O32       1.0  0.26351777301976403  0.8349704377885844  0.9352359400173852  1.0000
