data_image0
_chemical_formula_structural       Zn2H44C40N8O12
_chemical_formula_sum              "Zn2 H44 C40 N8 O12"
_cell_length_a       9.388758364317816
_cell_length_b       10.162138841761719
_cell_length_c       13.849
_cell_angle_alpha    78.78564463618888
_cell_angle_beta     86.36944462537286
_cell_angle_gamma    79.89616148915191

_space_group_name_H-M_alt    "P 1"
_space_group_IT_number       1

loop_
  _space_group_symop_operation_xyz
  'x, y, z'

loop_
  _atom_site_type_symbol
  _atom_site_label
  _atom_site_symmetry_multiplicity
  _atom_site_fract_x
  _atom_site_fract_y
  _atom_site_fract_z
  _atom_site_occupancy
  Zn  Zn1       1.0  0.16051413199240727  0.12443185592607622  0.6906131785450071  1.0000
  Zn  Zn2       1.0  0.8394864049384907  0.8755688376512154  0.30938626618330284  1.0000
  H   H1        1.0  0.1236173617558265  0.4211459910458899  0.39997123386428524  1.0000
  H   H2        1.0  0.8763837162354163  0.5788516502622585  0.600029345287524  1.0000
  H   H3        1.0  0.9182382271064778  0.9316461436673367  0.6860735954253415  1.0000
  H   H4        1.0  0.0817623098244198  0.0683545499099552  0.3139265713767685  1.0000
  H   H5        1.0  0.7316734556163239  0.2294767157141635  0.45001670866819415  1.0000
  H   H6        1.0  0.26832583371569996  0.7705249952861665  0.5499848106472527  1.0000
  H   H7        1.0  0.5844021095253353  0.09502426020987542  0.42887070638769126  1.0000
  H   H8        1.0  0.41559878811246154  0.9049743985213254  0.5711304573880085  1.0000
  H   H9        1.0  0.49912139074686473  0.12990966160473502  0.5416540162735544  1.0000
  H   H10       1.0  0.500880574136346  0.870088997126466  0.45834710168650616  1.0000
  H   H11       1.0  0.7774127233668083  0.34686495189406946  0.00569644270647268  1.0000
  H   H12       1.0  0.2225876332106367  0.6531367591062676  0.9943021424981495  1.0000
  H   H13       1.0  0.8147949831094153  0.46736853744025814  0.8993689165989168  1.0000
  H   H14       1.0  0.18520484728296083  0.5326301212909428  0.10063012677104412  1.0000
  H   H15       1.0  0.6580627881237645  0.9226104095974608  0.6327944886878214  1.0000
  H   H16       1.0  0.3419389964059931  0.0773892665567786  0.3672064918223299  1.0000
  H   H17       1.0  0.7389951510606636  0.8886183056368254  0.519292696537562  1.0000
  H   H18       1.0  0.26100788106796813  0.11138035309437562  0.4807076535330524  1.0000
  H   H19       1.0  0.7876871539765702  0.3656007972827311  0.2546561753012213  1.0000
  H   H20       1.0  0.21231499126009376  0.6343968440254173  0.7453443580349416  1.0000
  H   H21       1.0  0.663774230450322  0.3513823102174882  0.1667739772028938  1.0000
  H   H22       1.0  0.336225239235155  0.6486183833598034  0.8332255133410628  1.0000
  H   H23       1.0  0.23383777408756146  0.5500860484879696  0.4698840738191592  1.0000
  H   H24       1.0  0.7661636497353044  0.44991566251236753  0.5301159097174022  1.0000
  H   H25       1.0  0.37746852278438336  0.5108989824554016  0.5536738847068535  1.0000
  H   H26       1.0  0.6225309469010938  0.48910171112189  0.4463270499847027  1.0000
  H   H27       1.0  0.4900409880786967  0.2299559219687453  0.16619684775776727  1.0000
  H   H28       1.0  0.5099593684987553  0.7700457890315917  0.8338031815944406  1.0000
  H   H29       1.0  0.9778065895203054  0.3934201956244223  0.0932235368536354  1.0000
  H   H30       1.0  0.022196262254873006  0.6065794805298239  0.906773065398099  1.0000
  H   H31       1.0  0.8553969400402082  0.5443681309704971  0.05316300488554761  1.0000
  H   H32       1.0  0.1446066182734924  0.4556335800298399  0.946833998724536  1.0000
  H   H33       1.0  0.9748699145919986  0.3092436999290129  0.5109834320298533  1.0000
  H   H34       1.0  0.025130441985446297  0.6907580110713241  0.4890173193961544  1.0000
  H   H35       1.0  0.9668329645577173  0.37357739396191664  0.7679654001680164  1.0000
  H   H36       1.0  0.03316900032549341  0.6264212647692845  0.2320335515706518  1.0000
  H   H37       1.0  0.0453216100415048  0.3384976647652991  0.2599848986900568  1.0000
  H   H38       1.0  0.9546773334589034  0.6614999765428565  0.740016494166838  1.0000
  H   H39       1.0  0.1966451991793292  0.0099707458489746  0.9263444709991191  1.0000
  H   H40       1.0  0.8033574722424034  0.9900299477283171  0.07365560417169797  1.0000
  H   H41       1.0  0.2277354493340979  0.24036009003523875  0.14261783861731914  1.0000
  H   H42       1.0  0.7722642007048321  0.7596395861190075  0.8573817893765324  1.0000
  H   H43       1.0  0.02161193139881591  0.1479495896300591  0.058959739118272105  1.0000
  H   H44       1.0  0.9783886055320818  0.8520511039472326  0.9410404276838307  1.0000
  C   C1        1.0  0.22391349624788853  0.3742956946322594  0.5838418075693853  1.0000
  C   C2        1.0  0.7760847258387215  0.6257060163680777  0.41615831341411547  1.0000
  C   C3        1.0  0.20538874063731774  0.3781822506672654  0.3503189714021673  1.0000
  C   C4        1.0  0.7946123373539252  0.6218153906408831  0.6496830518972345  1.0000
  C   C5        1.0  0.9023841984927897  0.023393608092398207  0.630170348652463  1.0000
  C   C6        1.0  0.09761545154613319  0.9766060680618482  0.36983072348898116  1.0000
  C   C7        1.0  0.8084986418372607  0.1798152794249503  0.5062383363427401  1.0000
  C   C8        1.0  0.1915018950936371  0.8201854141523413  0.49376327460696257  1.0000
  C   C9        1.0  0.4559566776050445  0.3199805653314911  0.29623765279175973  1.0000
  C   C10       1.0  0.5440417248350188  0.6800201282458005  0.7037633277154356  1.0000
  C   C11       1.0  0.3526023734558237  0.3685737074225983  0.36592644828095905  1.0000
  C   C12       1.0  0.6473972765831064  0.6314259687316409  0.6340746238604922  1.0000
  C   C13       1.0  0.5526545094450411  0.0482634970242728  0.5035612640340617  1.0000
  C   C14       1.0  0.4473453209473348  0.9517351617069281  0.49644066763108446  1.0000
  C   C15       1.0  0.8634837825591998  0.3950307763059442  0.9629704051097931  1.0000
  C   C16       1.0  0.13651782161711168  0.6049699172713474  0.03702899380287052  1.0000
  C   C17       1.0  0.6865513273777138  0.9701942680271289  0.5575747139315226  1.0000
  C   C18       1.0  0.31344938990663  0.029805408127117503  0.4424263123942822  1.0000
  C   C19       1.0  0.7063406633402494  0.30661060908644805  0.2405523839014663  1.0000
  C   C20       1.0  0.2936593474055726  0.6933870322217075  0.7594467969183968  1.0000
  C   C21       1.0  0.3097795271289526  0.4665993656176256  0.5109548028972242  1.0000
  C   C22       1.0  0.6902199425565242  0.5334013279596661  0.48904468764673226  1.0000
  C   C23       1.0  0.41044021520079343  0.2738658657799746  0.21670328835280372  1.0000
  C   C24       1.0  0.5895601413766512  0.7261358452203626  0.7832974630731969  1.0000
  C   C25       1.0  0.7840835125636757  0.1605900535512532  0.24001845036092823  1.0000
  C   C26       1.0  0.2159152505832864  0.8394086051799478  0.7599806388246791  1.0000
  C   C27       1.0  0.9382248200562414  0.46690662737746186  0.027241769154386506  1.0000
  C   C28       1.0  0.06177537104303349  0.5330899965076483  0.9727539387463936  1.0000
  C   C29       1.0  0.9284069599925715  0.21809989121587853  0.5374542138006433  1.0000
  C   C30       1.0  0.07159162280093771  0.7818997849383679  0.4625469041564543  1.0000
  C   C31       1.0  0.005382544293517807  0.2924674113265908  0.8284971239876386  1.0000
  C   C32       1.0  0.994618353344279  0.7075312474046102  0.17150187356667604  1.0000
  C   C33       1.0  0.16066215499571262  0.3330422423936454  0.269616586555621  1.0000
  C   C34       1.0  0.8393374950432104  0.6669574337606008  0.7303852076596229  1.0000
  C   C35       1.0  0.12493733155137218  0.10705732257271453  0.9136566525541169  1.0000
  C   C36       1.0  0.8750642726249395  0.8929433710045772  0.08634274635854672  1.0000
  C   C37       1.0  0.2622973412507362  0.2793243404207715  0.20380462626065576  1.0000
  C   C38       1.0  0.7377023087881938  0.7206753357334749  0.7961964458807955  1.0000
  C   C39       1.0  0.04023861080830221  0.1731877857045205  0.9798158965522745  1.0000
  C   C40       1.0  0.9597619261225957  0.8268129078727713  0.020182826102242774  1.0000
  N   N1        1.0  0.7938212849804245  0.0566969166510205  0.5656035625632398  1.0000
  N   N2        1.0  0.20617925195047349  0.9433037769262711  0.43439732631266276  1.0000
  N   N3        1.0  0.964623347739682  0.28973054333334863  0.9242895425248676  1.0000
  N   N4        1.0  0.03537541540727322  0.7102681153978452  0.07570954666073959  1.0000
  N   N5        1.0  0.9861301067901989  0.11972830918527681  0.6149209927392221  1.0000
  N   N6        1.0  0.013869362895277995  0.8802723843920149  0.38507994195232703  1.0000
  N   N7        1.0  0.1024394371356223  0.18217264862209964  0.8198428407548093  1.0000
  N   N8        1.0  0.8975634146395635  0.8178270275321469  0.18015737186591  1.0000
  O   O1        1.0  0.5966377293283999  0.3232078312328071  0.315025569929425  1.0000
  O   O2        1.0  0.40336067311165635  0.6767928623444848  0.6849754105777777  1.0000
  O   O3        1.0  0.40880372104756896  0.4029442927562812  0.4441681484782407  1.0000
  O   O4        1.0  0.5911939748539652  0.5970543659749126  0.5558324306706056  1.0000
  O   O5        1.0  0.2750577092280437  0.245516390031419  0.6003061413400204  1.0000
  O   O6        1.0  0.7249403325051204  0.7544863383919634  0.3996938421935781  1.0000
  O   O7        1.0  0.9031555591289544  0.14949098554446752  0.1937121837858697  1.0000
  O   O8        1.0  0.09684106952716576  0.8505076731867335  0.8062855528834376  1.0000
  O   O9        1.0  0.7216592212130948  0.0627912806954427  0.28696737479558015  1.0000
  O   O10       1.0  0.27833615984415866  0.9372083954587964  0.7130338806084495  1.0000
  O   O11       1.0  0.11303849664530928  0.4312083049689904  0.6237897676875477  1.0000
  O   O12       1.0  0.886957590950466  0.5687934060313468  0.3762097228534458  1.0000
