data_image0
_chemical_formula_structural       Zn4H10C29N4O26
_chemical_formula_sum              "Zn4 H10 C29 N4 O26"
_cell_length_a       13.22783936358078
_cell_length_b       13.159002040220114
_cell_length_c       15.152339886092788
_cell_angle_alpha    79.52138457905414
_cell_angle_beta     83.7691239428871
_cell_angle_gamma    88.0001677525331

_space_group_name_H-M_alt    "P 1"
_space_group_IT_number       1

loop_
  _space_group_symop_operation_xyz
  'x, y, z'

loop_
  _atom_site_type_symbol
  _atom_site_label
  _atom_site_symmetry_multiplicity
  _atom_site_fract_x
  _atom_site_fract_y
  _atom_site_fract_z
  _atom_site_occupancy
  Zn  Zn1       1.0  0.4238061334189709  0.4069601093683914  0.45025158951287375  1.0000
  Zn  Zn2       1.0  0.6024499845370811  0.4228421871851538  0.5757729436230645  1.0000
  Zn  Zn3       1.0  0.40010192252944426  0.5619804308342325  0.5898352046652561  1.0000
  Zn  Zn4       1.0  0.5620210216044158  0.6070986596110899  0.41111581975904693  1.0000
  H   H1        1.0  0.4552238888304815  0.7035705896495656  0.9853720956980823  1.0000
  H   H2        1.0  0.5251957366954373  0.2793762402394648  0.030399186846189308  1.0000
  H   H3        1.0  0.9112739319448122  0.43204845788104507  0.5310823559515612  1.0000
  H   H4        1.0  0.6253083536282631  0.08082971595735702  0.5692368322567275  1.0000
  H   H5        1.0  0.38721171177643043  0.9227612500759153  0.44787849203289193  1.0000
  H   H6        1.0  0.5030300219277137  0.7246461907674444  0.8578508797336395  1.0000
  H   H7        1.0  0.3505870415594359  0.15892475985836543  0.5501973753820265  1.0000
  H   H8        1.0  0.5276264112866117  0.19786237865331915  0.9091966673748145  1.0000
  H   H9        1.0  0.41951146896425223  0.779705478363269  0.10832373432017312  1.0000
  H   H10       1.0  0.5537946145929169  0.3435728306413921  0.2562980824320249  1.0000
  C   C1        1.0  0.7660011550929225  0.541165378441093  0.45832631084881836  1.0000
  C   C2        1.0  0.22703383813991712  0.462409108619056  0.5345966079848026  1.0000
  C   C3        1.0  0.5430323825572501  0.22620437807772484  0.5317366563029039  1.0000
  C   C4        1.0  0.45530263689656186  0.7690328493983714  0.49229882130811825  1.0000
  C   C5        1.0  0.5056360476793031  0.47373893284463264  0.7418869012132916  1.0000
  C   C6        1.0  0.48863995084985135  0.5121235166318173  0.27017598034007045  1.0000
  C   C7        1.0  0.5068963787631091  0.4652347921193255  0.8425189413319314  1.0000
  C   C8        1.0  0.4875111165978013  0.5195299012422652  0.1697638737319593  1.0000
  C   C9        1.0  0.4725699340687087  0.6275637391789601  0.023455666684597455  1.0000
  C   C10       1.0  0.46488809007603027  0.6164794646689913  0.11644717984155757  1.0000
  C   C11       1.0  0.5085916249252592  0.4331343405536502  0.1293799896682373  1.0000
  C   C12       1.0  0.5081791513922838  0.44256331460810827  0.0332856438983242  1.0000
  C   C13       1.0  0.49577019286158475  0.5426836690648215  0.9787585136114672  1.0000
  C   C14       1.0  0.5021843837868616  0.5529955423606765  0.8822596666305387  1.0000
  C   C15       1.0  0.5126101390193442  0.3660155854634013  0.8974458432101924  1.0000
  C   C16       1.0  0.5176779663008589  0.35598246578388176  0.9895732676983825  1.0000
  C   C17       1.0  0.1126833657081292  0.45729180090318516  0.5362680104686603  1.0000
  C   C18       1.0  0.05588103754105589  0.49435413173779363  0.4683049258130865  1.0000
  C   C19       1.0  0.8782447915380872  0.5534919491578165  0.4328356528586709  1.0000
  C   C20       1.0  0.9462069534907799  0.49131225118851773  0.4774859054147669  1.0000
  C   C21       1.0  0.4432617459373703  0.8824014666853943  0.4902170101660842  1.0000
  C   C22       1.0  0.49345306949241763  0.9386630101069501  0.5366244225601162  1.0000
  C   C23       1.0  0.5533886332932951  0.11219156513861608  0.5465027379205621  1.0000
  C   C24       1.0  0.4792752542188338  0.050375294746757504  0.5320592000186437  1.0000
  C   C25       1.0  0.5084337509469564  0.6565017678302069  0.8236551986677084  1.0000
  C   C26       1.0  0.3760304312481538  0.09643238749249151  0.5121715545892938  1.0000
  C   C27       1.0  0.509766268506013  0.26908858961348875  0.8606702294708625  1.0000
  C   C28       1.0  0.4257121135673713  0.7060911830233962  0.15764878536700166  1.0000
  C   C29       1.0  0.5343350749655329  0.33425660666828355  0.1886213611308847  1.0000
  N   N1        1.0  0.061546704358470115  0.4078968620892596  0.6244629675579034  1.0000
  N   N2        1.0  0.5700348285173363  0.884322193469778  0.5949569626536116  1.0000
  N   N3        1.0  0.113048646686515  0.5359175087779562  0.37957004341470213  1.0000
  N   N4        1.0  0.9082529056396854  0.6396623055339745  0.35890989274913904  1.0000
  O   O1        1.0  0.4972295179462948  0.4997562191838013  0.5063695433280343  1.0000
  O   O2        1.0  0.7090222131267154  0.6124899604260321  0.4220189815615427  1.0000
  O   O3        1.0  0.2772411432945816  0.39614675904618923  0.49604955940512235  1.0000
  O   O4        1.0  0.597635481239614  0.2734961332404424  0.5749153625161654  1.0000
  O   O5        1.0  0.4103620658056286  0.7121640057682015  0.5612207359455182  1.0000
  O   O6        1.0  0.5896667308047654  0.4563901527879537  0.6975618930852718  1.0000
  O   O7        1.0  0.5590914767207167  0.5605096389936364  0.2946166640855309  1.0000
  O   O8        1.0  0.4192314772710334  0.49399440682120854  0.712726490397358  1.0000
  O   O9        1.0  0.42205158055163144  0.45424341139435154  0.32000572812906103  1.0000
  O   O10       1.0  0.48139795523278645  0.2672538412068235  0.474944094304952  1.0000
  O   O11       1.0  0.5026936640773628  0.7424206465717162  0.4224544071971295  1.0000
  O   O12       1.0  0.739935955655028  0.46082260251253615  0.5158350545935235  1.0000
  O   O13       1.0  0.25724897473642017  0.5287590748377795  0.5757176900494088  1.0000
  O   O14       1.0  0.5219329215316222  0.6695108524254464  0.7411958122003951  1.0000
  O   O15       1.0  0.046614036413814106  0.4623652764737258  0.6827506590884198  1.0000
  O   O16       1.0  0.04060696997755289  0.3157602576171712  0.6318274405375632  1.0000
  O   O17       1.0  0.32045197143072096  0.06623125412406239  0.4634189527898869  1.0000
  O   O18       1.0  0.5810032816964537  0.9166906218021966  0.6650590892316399  1.0000
  O   O19       1.0  0.6166559281448301  0.8100648465578499  0.5693962538491063  1.0000
  O   O20       1.0  0.4874782385149601  0.2644122883438627  0.7853067063845172  1.0000
  O   O21       1.0  0.39890034857393897  0.7016877694331926  0.23792606567817387  1.0000
  O   O22       1.0  0.536878126784039  0.2480288535441844  0.1687519133798219  1.0000
  O   O23       1.0  0.0739595476815111  0.5221420842740443  0.3123247356127621  1.0000
  O   O24       1.0  0.19556705038330338  0.5769554749971275  0.3796060784357421  1.0000
  O   O25       1.0  0.8752121895387788  0.6387632436166941  0.28612543979996014  1.0000
  O   O26       1.0  0.9639934650208842  0.7055921308698458  0.3762644993630602  1.0000
