data_image0
_chemical_formula_structural       Cu6H26C28S2I6N10
_chemical_formula_sum              "Cu6 H26 C28 S2 I6 N10"
_cell_length_a       9.238156963601071
_cell_length_b       10.626411615229786
_cell_length_c       11.085045272141176
_cell_angle_alpha    76.95559221092022
_cell_angle_beta     86.15258180364083
_cell_angle_gamma    69.69844807716873

_space_group_name_H-M_alt    "P 1"
_space_group_IT_number       1

loop_
  _space_group_symop_operation_xyz
  'x, y, z'

loop_
  _atom_site_type_symbol
  _atom_site_label
  _atom_site_symmetry_multiplicity
  _atom_site_fract_x
  _atom_site_fract_y
  _atom_site_fract_z
  _atom_site_occupancy
  Cu  Cu1       1.0  0.4125018693392661  0.2780787759738175  0.7611985141791209  1.0000
  Cu  Cu2       1.0  0.5874976295781096  0.7219206608134243  0.2388000564471469  1.0000
  Cu  Cu3       1.0  0.10173065552265838  0.4949214097484144  0.5811001998364418  1.0000
  Cu  Cu4       1.0  0.8982683427119866  0.5050821364862372  0.4188965943613852  1.0000
  Cu  Cu5       1.0  0.21015888814238073  0.1857648154511153  0.6894865400850636  1.0000
  Cu  Cu6       1.0  0.7898420947042766  0.8142335972725405  0.3105130691230116  1.0000
  H   H1        1.0  0.46817047381185267  0.17079121319233792  0.032917149865198794  1.0000
  H   H2        1.0  0.5318316904931778  0.829204113870311  0.9670821654442963  1.0000
  H   H3        1.0  0.6025741649697169  0.206270264501029  0.2014825587781459  1.0000
  H   H4        1.0  0.3974268178769406  0.793728148222627  0.7985170504299218  1.0000
  H   H5        1.0  0.7497433687103836  0.3742097125263229  0.1481889928808542  1.0000
  H   H6        1.0  0.25025238458253096  0.6257938353864674  0.8518097995949675  1.0000
  H   H7        1.0  0.7713461964444049  0.47928619183655735  0.9255093878902161  1.0000
  H   H8        1.0  0.22864699268242125  0.5207183815407673  0.0744893325365865  1.0000
  H   H9        1.0  0.7320371313894753  0.491410485247144  0.7129621690496251  1.0000
  H   H10       1.0  0.2679619765292998  0.5085899817769217  0.28703710042305636  1.0000
  H   H11       1.0  0.7097769549709909  0.3411515746270624  0.6846065308270399  1.0000
  H   H12       1.0  0.29022068171237697  0.6588499240347758  0.3153944040248362  1.0000
  H   H13       1.0  0.5223286082581708  0.7178212741441499  0.6132391701214887  1.0000
  H   H14       1.0  0.4776701086620109  0.2821802231167396  0.3867607981976136  1.0000
  H   H15       1.0  0.08356946156172279  0.8081928147220552  0.4988884152586692  1.0000
  H   H16       1.0  0.9164280696687896  0.1918117656751051  0.5011109456386791  1.0000
  H   H17       1.0  0.23703716373182007  0.8323070566546135  0.4015793676087185  1.0000
  H   H18       1.0  0.7629645210469107  0.16769239247910409  0.5984226778739838  1.0000
  H   H19       1.0  0.026753806411456086  0.7809853390227134  0.6830738083256167  1.0000
  H   H20       1.0  0.973253292245204  0.219014110680419  0.31692610845419716  1.0000
  H   H21       1.0  0.8485384670148479  0.8167312030840819  0.8585017196327345  1.0000
  H   H22       1.0  0.15146724470281472  0.1832661838978495  0.14149692987913914  1.0000
  H   H23       1.0  0.8128689334866978  0.019789574200821402  0.9538060530952991  1.0000
  H   H24       1.0  0.18713501298721977  0.980206787870934  0.04619473195604935  1.0000
  H   H25       1.0  0.970828966487915  0.16994162705086066  0.873330642232375  1.0000
  H   H26       1.0  0.029173113520705708  0.8300567943707622  0.12667160572424757  1.0000
  C   C1        1.0  0.5362191207266137  0.23881875427103694  0.012485416167905303  1.0000
  C   C2        1.0  0.4637799871921687  0.7611817127530287  0.9875138533047831  1.0000
  C   C3        1.0  0.6103180204009321  0.2608589517194702  0.1068484828245886  1.0000
  C   C4        1.0  0.3896778298822525  0.7391415094085333  0.8931500809651  1.0000
  C   C5        1.0  0.6931437452542824  0.35103235907659786  0.077062395038439  1.0000
  C   C6        1.0  0.3068534877366246  0.6489701622478707  0.922936534698856  1.0000
  C   C7        1.0  0.7045984107064457  0.41086294812329544  0.9528723073063858  1.0000
  C   C8        1.0  0.29539417770985915  0.5891375045839169  0.04712464947997569  1.0000
  C   C9        1.0  0.6322203649089246  0.37944202050058357  0.8630910879087992  1.0000
  C   C10       1.0  0.36777864178829134  0.6205615307835329  0.1369075089296885  1.0000
  C   C11       1.0  0.6558388382716489  0.43012479554197103  0.7271210926360824  1.0000
  C   C12       1.0  0.34416254826746945  0.5698725945190546  0.27288052168656657  1.0000
  C   C13       1.0  0.4564493105145005  0.6510582224411579  0.6132859422552955  1.0000
  C   C14       1.0  0.5435487298613283  0.34894225355805736  0.3867169977111616  1.0000
  C   C15       1.0  0.31146620885773757  0.6765762389021291  0.5663679836381874  1.0000
  C   C16       1.0  0.6885292673520028  0.3234252625616207  0.4336348842792433  1.0000
  C   C17       1.0  0.20198588042315888  0.8094205888110723  0.4988254281510223  1.0000
  C   C18       1.0  0.7980136311880841  0.1905788555503634  0.5011758464362401  1.0000
  C   C19       1.0  0.09132658421281539  0.9591583801199806  0.6828665057050856  1.0000
  C   C20       1.0  0.9086757813415505  0.0408420928001405  0.31713346945059573  1.0000
  C   C21       1.0  0.012571679313431559  0.8665686491006356  0.7264335968745428  1.0000
  C   C22       1.0  0.9874306989348017  0.13343183139367912  0.2735690822421333  1.0000
  C   C23       1.0  0.9115623748693835  0.8871516950457661  0.8244351684208128  1.0000
  C   C24       1.0  0.08844440862251451  0.11284568548575179  0.17556071191762612  1.0000
  C   C25       1.0  0.892174496384847  0.9990158236756064  0.8778610331205596  1.0000
  C   C26       1.0  0.10782650338695991  0.0009825991469725002  0.12214218136883662  1.0000
  C   C27       1.0  0.9781829428983357  0.08337561292949401  0.8328253024254765  1.0000
  C   C28       1.0  0.021820208884527393  0.9166228020417078  0.16717417635770468  1.0000
  S   S1        1.0  0.21055056852915752  0.9557108157323599  0.553042859028089  1.0000
  S   S2        1.0  0.7894506113355462  0.04429274032403901  0.44695650870584563  1.0000
  I   I1        1.0  0.508897495068446  0.043361354760691  0.7064315300308267  1.0000
  I   I2        1.0  0.491104563783736  0.9566370540372803  0.2935662113241407  1.0000
  I   I3        1.0  0.1170346253897421  0.3723751664098316  0.83394078692141  1.0000
  I   I4        1.0  0.8829641758268424  0.6276232364920773  0.16605624875056438  1.0000
  I   I5        1.0  0.16313943292922772  0.30985909665371036  0.44764871329108763  1.0000
  I   I6        1.0  0.836858888761064  0.6901434283192672  0.5523510525541013  1.0000
  N   N1        1.0  0.5455576944784184  0.29743592672868163  0.8923346127769424  1.0000
  N   N2        1.0  0.4544403247409718  0.702564536646875  0.10766382058785945  1.0000
  N   N3        1.0  0.5124049036406574  0.513926145241186  0.6597702238051611  1.0000
  N   N4        1.0  0.4875963816769016  0.48607432907989084  0.3402307178833014  1.0000
  N   N5        1.0  0.4096122962409794  0.45473342834602454  0.6439761449078533  1.0000
  N   N6        1.0  0.5903871099174155  0.5452690977507332  0.35602355572488165  1.0000
  N   N7        1.0  0.28616113607908034  0.5539545953820806  0.587456944880678  1.0000
  N   N8        1.0  0.713834331668089  0.4460469010322116  0.41254412039609184  1.0000
  N   N9        1.0  0.0772973711889193  0.06524851877937012  0.7375930506578214  1.0000
  N   N10       1.0  0.9227039225912108  0.9347519605911715  0.2624096936713016  1.0000
