data_image0
_chemical_formula_structural       Cd2H40C36S4N20
_chemical_formula_sum              "Cd2 H40 C36 S4 N20"
_cell_length_a       10.496734569630132
_cell_length_b       10.799814795086352
_cell_length_c       11.850276964933887
_cell_angle_alpha    66.33607721877664
_cell_angle_beta     73.46465643518006
_cell_angle_gamma    61.929765527444225

_space_group_name_H-M_alt    "P 1"
_space_group_IT_number       1

loop_
  _space_group_symop_operation_xyz
  'x, y, z'

loop_
  _atom_site_type_symbol
  _atom_site_label
  _atom_site_symmetry_multiplicity
  _atom_site_fract_x
  _atom_site_fract_y
  _atom_site_fract_z
  _atom_site_occupancy
  Cd  Cd1       1.0  0.4999990018520676  0.5000002356150901  0.5000004924219752  1.0000
  Cd  Cd2       1.0  0.49999957262141237  0.49999994554742955  3.5669362569970376e-07  1.0000
  H   H1        1.0  0.7030545076582513  0.293995902626996  0.3057570648369818  1.0000
  H   H2        1.0  0.29694260062201044  0.7060067751305967  0.6942416465864979  1.0000
  H   H3        1.0  0.9743667605193735  0.4195576681356528  0.6963117826605514  1.0000
  H   H4        1.0  0.02563322657945116  0.5804428151740454  0.30368701061694736  1.0000
  H   H5        1.0  0.1571891040665534  0.3838666055511197  0.6213468642509383  1.0000
  H   H6        1.0  0.8428108815440893  0.6161338805785733  0.3786527722295218  1.0000
  H   H7        1.0  0.11876761922547276  0.240520815014591  0.74464798920404  1.0000
  H   H8        1.0  0.8812333580825185  0.7594796771548573  0.25535055149320113  1.0000
  H   H9        1.0  0.35390668511169565  0.9968396991325078  0.574386454876965  1.0000
  H   H10       1.0  0.6460927624662601  0.003159666413729699  0.4256120412850705  1.0000
  H   H11       1.0  0.3210158016462614  0.1479165710403194  0.6204364020553824  1.0000
  H   H12       1.0  0.6789840921554601  0.8520816940622068  0.3795640740198678  1.0000
  H   H13       1.0  0.3833860878720616  0.15351473917290556  0.46421549471698137  1.0000
  H   H14       1.0  0.6166133582177125  0.8464846291933271  0.5357838446480301  1.0000
  H   H15       1.0  0.34105261257798253  0.04197072984260329  0.35334783853552654  1.0000
  H   H16       1.0  0.6589478252091394  0.9580286445633921  0.6466504050462589  1.0000
  H   H17       1.0  0.1997165409297921  0.0868132457415669  0.2696503226123923  1.0000
  H   H18       1.0  0.8002834461690328  0.9131872375681241  0.7303484706650991  1.0000
  H   H19       1.0  0.23400445920370322  0.9375416865216832  0.409720449133303  1.0000
  H   H20       1.0  0.765993547476789  0.06245877906849981  0.5902788493047028  1.0000
  H   H21       1.0  0.5985261221689626  0.13206180379433624  0.18576627388709707  1.0000
  H   H22       1.0  0.4014743156181596  0.8679375706116587  0.8142319696946814  1.0000
  H   H23       1.0  0.03806274348661278  0.5074748531439256  0.8587057336993953  1.0000
  H   H24       1.0  0.9619386800451368  0.4925245385818044  0.1412947869110468  1.0000
  H   H25       1.0  0.20604025295907044  0.35814893852602137  0.8335227013219253  1.0000
  H   H26       1.0  0.793960180363513  0.6418504443399585  0.16647807186877367  1.0000
  H   H27       1.0  0.1721607444459252  0.416381733727775  0.962216199321027  1.0000
  H   H28       1.0  0.8278397806855865  0.5836198701653714  0.03778373427488895  1.0000
  H   H29       1.0  0.3528881810306927  0.9732235041677129  0.07360225507146365  1.0000
  H   H30       1.0  0.647112697027474  0.026774781074550405  0.9264013412354117  1.0000
  H   H31       1.0  0.3321049719059559  0.15684081103096054  0.03931016444217047  1.0000
  H   H32       1.0  0.6678954569520883  0.8431585802950037  0.9606931383574492  1.0000
  H   H33       1.0  0.34330459125734347  0.0959135131981341  0.9183136940404494  1.0000
  H   H34       1.0  0.6566982672191555  0.9040847897636441  0.08168939710591859  1.0000
  H   H35       1.0  0.24801148958595579  0.8344167851843665  0.1102985693332171  1.0000
  H   H36       1.0  0.7519884960246941  0.16558370094531943  0.8897010671472502  1.0000
  H   H37       1.0  0.07391171558576547  0.8279809465650915  0.1702937628939835  1.0000
  H   H38       1.0  0.9260872798157112  0.1720195307048371  0.8297061261667337  1.0000
  H   H39       1.0  0.16241233744103317  0.8598816660725105  0.2554470598975058  1.0000
  H   H40       1.0  0.8375889957699698  0.1401155018060649  0.7445534571047503  1.0000
  C   C1        1.0  0.8759879319690285  0.3134458683410202  0.4746143825115042  1.0000
  C   C2        1.0  0.12401205512979625  0.6865546149686708  0.5253844107659943  1.0000
  C   C3        1.0  0.04386670517533282  0.2921052407164879  0.5752107635227333  1.0000
  C   C4        1.0  0.9561337311236145  0.707894136509502  0.4247883232620282  1.0000
  C   C5        1.0  0.1582068530733309  0.1883823222669321  0.5174376935338357  1.0000
  C   C6        1.0  0.8417921453045099  0.8116181493630065  0.4825605091209438  1.0000
  C   C7        1.0  0.12578035705683988  0.1521608709163189  0.43227013728441926  1.0000
  C   C8        1.0  0.8742186398328187  0.8478396035336218  0.567728908573329  1.0000
  C   C9        1.0  0.7836397158319099  0.28283806505938  0.3538143693654305  1.0000
  C   C10       1.0  0.21635937137850195  0.7171646332377151  0.6461846801005109  1.0000
  C   C11       1.0  0.07485799208615869  0.33765063492504055  0.6644992844308674  1.0000
  C   C12       1.0  0.9251424442127885  0.6623487423009494  0.3354998023538867  1.0000
  C   C13       1.0  0.312204687231457  0.11786594337725381  0.5460480011250581  1.0000
  C   C14       1.0  0.6877943111463838  0.8821345282526921  0.45395020152972154  1.0000
  C   C15       1.0  0.23119390317532412  0.0496615380302643  0.362135667511069  1.0000
  C   C16       1.0  0.7688056347233854  0.9503400513631348  0.6378628322591597  1.0000
  C   C17       1.0  0.8424423538546647  0.25771610090308167  0.05720734267816846  1.0000
  C   C18       1.0  0.1575590726534486  0.7422832851826582  0.9427914915263359  1.0000
  C   C19       1.0  0.04994511566383152  0.2950086879627776  0.9791170282589192  1.0000
  C   C20       1.0  0.950056307867918  0.7049907037629595  0.02088349235152254  1.0000
  C   C21       1.0  0.1373050000609126  0.14145750578584432  0.03335158786241271  1.0000
  C   C22       1.0  0.8626958779972541  0.8585407794564122  0.9666520084444624  1.0000
  C   C23       1.0  0.06967228902767181  0.0451013661116022  0.10029249725367609  1.0000
  C   C24       1.0  0.9303291345040847  0.9548980256141281  0.8997080233567656  1.0000
  C   C25       1.0  0.6988043458825218  0.1485542452461388  0.15030271829399308  1.0000
  C   C26       1.0  0.3011956427044852  0.8514462352435571  0.8496952317805295  1.0000
  C   C27       1.0  0.11999367789800161  0.4000615384108032  0.903965836833514  1.0000
  C   C28       1.0  0.8800077456337476  0.5999378533149268  0.09603468377692788  1.0000
  C   C29       1.0  0.29970304476277937  0.0877033574703106  0.015994422557625388  1.0000
  C   C30       1.0  0.7002978332953874  0.9122949277719528  0.9840091737492569  1.0000
  C   C31       1.0  0.14246490791884264  0.8832752644850289  0.16132225276437134  1.0000
  C   C32       1.0  0.8575340874826339  0.11672521278490679  0.8386776362963531  1.0000
  C   C33       1.0  0.5194797742422426  0.6720359063756547  0.1818030799055776  1.0000
  C   C34       1.0  0.48051823392643206  0.32796455639453376  0.8181953753294522  1.0000
  C   C35       1.0  0.3932847027683195  0.4014917521376944  0.315094646227422  1.0000
  C   C36       1.0  0.6067094408371573  0.5985108877606466  0.6849014501249399  1.0000
  S   S1        1.0  0.5096723426220959  0.7347203923997726  0.28995116261520343  1.0000
  S   S2        1.0  0.49032521188191663  0.2652811849141088  0.7100495287214842  1.0000
  S   S3        1.0  0.32148313610646534  0.4033993452546128  0.20885273853448175  1.0000
  S   S4        1.0  0.6785169353603918  0.5966033731822192  0.7911494311630848  1.0000
  N   N1        1.0  0.7475782909437001  0.35490505806151157  0.43686527001513303  1.0000
  N   N2        1.0  0.25242124546682737  0.6450965341518823  0.5631340729580713  1.0000
  N   N3        1.0  0.9050123885106984  0.3524188261459287  0.5543452932154835  1.0000
  N   N4        1.0  0.09498714789982908  0.6475827660674652  0.4456540497577208  1.0000
  N   N5        1.0  0.9831638839780297  0.21684447435898593  0.41269985072551657  1.0000
  N   N6        1.0  0.01683610312079508  0.7831560089507121  0.5872989425519819  1.0000
  N   N7        1.0  0.9246871059082482  0.19705206245415496  0.3351699293688099  1.0000
  N   N8        1.0  0.07531243050227934  0.8029495297592393  0.6648294136043943  1.0000
  N   N9        1.0  0.6997631818178219  0.28378323570643726  0.08345519039237814  1.0000
  N   N10       1.0  0.30023734777822847  0.7162183597267173  0.9165422135946314  1.0000
  N   N11       1.0  0.9047790897889456  0.3516771528506055  0.9920231867613721  1.0000
  N   N12       1.0  0.09522188603087045  0.6483233421388378  0.007976197138837886  1.0000
  N   N13       1.0  0.9208941168815414  0.1074898801868329  0.10996661087230561  1.0000
  N   N14       1.0  0.07910587021728326  0.8925106031228651  0.8900321824051858  1.0000
  N   N15       1.0  0.8292548938821869  0.037279555935647614  0.17006634800166853  1.0000
  N   N16       1.0  0.17074554092857844  0.9627198241103373  0.8299335819860618  1.0000
  N   N17       1.0  0.52780714864722  0.6310285941625152  0.10014846045844183  1.0000
  N   N18       1.0  0.4721933720197526  0.3689730181906157  0.8998540027463875  1.0000
  N   N19       1.0  0.44487806174446115  0.39754995947540556  0.39392258057318935  1.0000
  N   N20       1.0  0.5551219164252925  0.602450540754262  0.6060812719221361  1.0000
