data_image0
_chemical_formula_structural       Li4H8C8O12
_chemical_formula_sum              "Li4 H8 C8 O12"
_cell_length_a       5.363233171177214
_cell_length_b       5.558001295450815
_cell_length_c       11.278553277436151
_cell_angle_alpha    93.35370165365914
_cell_angle_beta     89.99232250390196
_cell_angle_gamma    118.82795575929664

_space_group_name_H-M_alt    "P 1"
_space_group_IT_number       1

loop_
  _space_group_symop_operation_xyz
  'x, y, z'

loop_
  _atom_site_type_symbol
  _atom_site_label
  _atom_site_symmetry_multiplicity
  _atom_site_fract_x
  _atom_site_fract_y
  _atom_site_fract_z
  _atom_site_occupancy
  Li  Li1       1.0  0.4544829246054931  0.1128870934381112  0.17273514913340896  1.0000
  Li  Li2       1.0  0.657632476176545  0.11261549558908267  0.672782219112676  1.0000
  Li  Li3       1.0  0.23342306286173917  0.5540027368449572  0.814314817942744  1.0000
  Li  Li4       1.0  0.3210348132655341  0.5540246563941907  0.31432322958175957  1.0000
  H   H1        1.0  0.8324103579237774  0.9089701542698524  0.8992429190104896  1.0000
  H   H2        1.0  0.07670815164001248  0.9083284300881119  0.399596712353741  1.0000
  H   H3        1.0  0.6856656603903986  0.7162759713232348  0.09238108307025068  1.0000
  H   H4        1.0  0.030067650172171164  0.7157346573783343  0.5928645210823331  1.0000
  H   H5        1.0  0.2917632361921251  0.0615602370155344  0.8861617605440484  1.0000
  H   H6        1.0  0.7700904000907941  0.06103303542725061  0.38632313497731  1.0000
  H   H7        1.0  0.9972207507963448  0.17125398187276633  0.10843093968610867  1.0000
  H   H8        1.0  0.1732215508575692  0.17098681127021823  0.6085154744203718  1.0000
  C   C1        1.0  0.9101881335482461  0.769831298601794  0.928194370448281  1.0000
  C   C2        1.0  0.8598154674615088  0.7691957935288941  0.4284759935053513  1.0000
  C   C3        1.0  0.00188997380212903  0.5911210078835866  0.11581270853994846  1.0000
  C   C4        1.0  0.588391478022743  0.5907135979590451  0.6159328718938111  1.0000
  C   C5        1.0  0.7085849475832264  0.4803048260014435  0.8744938905957224  1.0000
  C   C6        1.0  0.7721287008832789  0.47972164001623707  0.3746930046226566  1.0000
  C   C7        1.0  0.9068713871713499  0.784417015812764  0.0663746618323486  1.0000
  C   C8        1.0  0.8770827847072127  0.7837904949566055  0.5666434705069391  1.0000
  O   O1        1.0  0.4429407109298965  0.3915044986910772  0.8860938273267319  1.0000
  O   O2        1.0  0.9488634821130688  0.390694385684121  0.38609784626879656  1.0000
  O   O3        1.0  0.1891521655254566  0.8542359975914665  0.8881507629997071  1.0000
  O   O4        1.0  0.6653416757543911  0.8537667276610111  0.3883715398857461  1.0000
  O   O5        1.0  0.8168532514729777  0.3473789705678741  0.8203702113384919  1.0000
  O   O6        1.0  0.5309513831506365  0.34690833287748296  0.3206219670604255  1.0000
  O   O7        1.0  0.8292519807765188  0.33407149804305186  0.09981233389135717  1.0000
  O   O8        1.0  0.5036416782832589  0.33356404294484326  0.5999457849322737  1.0000
  O   O9        1.0  0.09484570058180707  0.05480127411424719  0.11307799507714116  1.0000
  O   O10       1.0  0.9592005587270692  0.05432384472179311  0.6131910945228041  1.0000
  O   O11       1.0  0.24416557910226544  0.6959797600568011  0.16899926980592278  1.0000
  O   O12       1.0  0.45101581172441746  0.6958042534259549  0.6690224083989589  1.0000
