data_image0
_chemical_formula_structural       Cd2H30C38Br4N6O2
_chemical_formula_sum              "Cd2 H30 C38 Br4 N6 O2"
_cell_length_a       7.363602421882503
_cell_length_b       8.813585451515255
_cell_length_c       15.14352662706481
_cell_angle_alpha    78.1463429244914
_cell_angle_beta     79.18304821590559
_cell_angle_gamma    81.178251886832

_space_group_name_H-M_alt    "P 1"
_space_group_IT_number       1

loop_
  _space_group_symop_operation_xyz
  'x, y, z'

loop_
  _atom_site_type_symbol
  _atom_site_label
  _atom_site_symmetry_multiplicity
  _atom_site_fract_x
  _atom_site_fract_y
  _atom_site_fract_z
  _atom_site_occupancy
  Cd  Cd1       1.0  0.25080854398100877  0.9319130171268242  0.04035005843549298  1.0000
  Cd  Cd2       1.0  0.7491959436160157  0.06808628399225111  0.9596527206466233  1.0000
  H   H1        1.0  0.4006571879246223  0.07408221735125411  0.6932179043759987  1.0000
  H   H2        1.0  0.5993417482579132  0.9259170851445192  0.3067860003397769  1.0000
  H   H3        1.0  0.9162273718297768  0.8887365351979568  0.1695152808882909  1.0000
  H   H4        1.0  0.08376609840220077  0.11126277239937112  0.8304871001442464  1.0000
  H   H5        1.0  0.43021935788188154  0.3193095705275084  0.7435708270102381  1.0000
  H   H6        1.0  0.5697750406311924  0.6806932414313921  0.2564297416877324  1.0000
  H   H7        1.0  0.3460504824977448  0.5781193005180825  0.6510522078632518  1.0000
  H   H8        1.0  0.6539523981083945  0.42188234121813656  0.348947127498846  1.0000
  H   H9        1.0  0.21322445688301883  0.6013706974972807  0.5077220289899954  1.0000
  H   H10       1.0  0.7867817284423212  0.39862744187130517  0.4922761219114378  1.0000
  H   H11       1.0  0.9758963665360555  0.27992014146943944  0.32162392355931496  1.0000
  H   H12       1.0  0.02411902077714247  0.7200814978676393  0.6783723823801393  1.0000
  H   H13       1.0  0.910042035515495  0.134865572963129  0.20909377896925452  1.0000
  H   H14       1.0  0.08996623085079135  0.8651372350884332  0.790904306809189  1.0000
  H   H15       1.0  0.22241753371349654  0.719176844461778  0.33696500148950287  1.0000
  H   H16       1.0  0.777580335173113  0.2808212974374485  0.6630345066978052  1.0000
  H   H17       1.0  0.2847073604020949  0.8632632650017698  0.44862502389673153  1.0000
  H   H18       1.0  0.7152961828213621  0.1367337059663001  0.5513748072653684  1.0000
  H   H19       1.0  0.9752357124309584  0.6386491300545244  0.1670125840330527  1.0000
  H   H20       1.0  0.02475930596747128  0.36134900927378777  0.8329898051233683  1.0000
  H   H21       1.0  0.017573859272715684  0.6193234519256876  0.2804101013239801  1.0000
  H   H22       1.0  0.9824251410077594  0.3806758533637336  0.7195918164041257  1.0000
  H   H23       1.0  0.2542458783809565  0.40490412769768364  0.2882463088232896  1.0000
  H   H24       1.0  0.7457494125017091  0.5950928485946819  0.7117528926370084  1.0000
  H   H25       1.0  0.5700905677379993  0.28161727471875514  0.22629701255953447  1.0000
  H   H26       1.0  0.42990571025018903  0.7183820335870552  0.7737038121623312  1.0000
  H   H27       1.0  0.7532301567746202  0.4266339968092368  0.08497350628559265  1.0000
  H   H28       1.0  0.2467718382823775  0.5733641424278489  0.9150263167526161  1.0000
  H   H29       1.0  0.6089391275958819  0.6870074194567553  0.011483058398482586  1.0000
  H   H30       1.0  0.3910612979286867  0.3129918871181232  0.9885174188450635  1.0000
  C   C1        1.0  0.2917133245718304  0.20463778410967853  0.571953664583944  1.0000
  C   C2        1.0  0.7082916813541615  0.7953580148645047  0.4280488240189512  1.0000
  C   C3        1.0  0.3608460080188535  0.18748780444617813  0.6528589204855706  1.0000
  C   C4        1.0  0.6391568725872786  0.8125138372900411  0.3471404148765274  1.0000
  C   C5        1.0  0.37759779290808376  0.3264479676332641  0.6800385672836953  1.0000
  C   C6        1.0  0.6224039723966471  0.6735513365022003  0.31996311879218803  1.0000
  C   C7        1.0  0.32749519357987106  0.4732608647786448  0.6278158025360341  1.0000
  C   C8        1.0  0.6725046120593346  0.5267431144268288  0.3721828542490542  1.0000
  C   C9        1.0  0.2553346488781116  0.48785899344561323  0.5471307565936101  1.0000
  C   C10       1.0  0.744670255491492  0.5121379760142588  0.4528696210716062  1.0000
  C   C11       1.0  0.23665589935418285  0.3500155425889632  0.5193989886562349  1.0000
  C   C12       1.0  0.7633469171540168  0.6499860963536009  0.48060233369353966  1.0000
  C   C13       1.0  0.18655389229795108  0.1714946762507168  0.452377074596761  1.0000
  C   C14       1.0  0.8134519189867647  0.8285057966395116  0.5476221530631236  1.0000
  C   C15       1.0  0.1392329145505329  0.08252285190010161  0.3914029775804194  1.0000
  C   C16       1.0  0.860778613802992  0.9174764519213954  0.6085952483958083  1.0000
  C   C17       1.0  0.030512649226856994  0.15729095715809654  0.32393709691726263  1.0000
  C   C18       1.0  0.9694996631194075  0.8427130196482225  0.6760585304451823  1.0000
  C   C19       1.0  0.9920744963299196  0.07617424073472283  0.2619159961145598  1.0000
  C   C20       1.0  0.00793536093478756  0.9238274009102625  0.738080773129326  1.0000
  C   C21       1.0  0.06393841190823218  0.9180452743774767  0.2641006568549428  1.0000
  C   C22       1.0  0.9360646770841968  0.08195520152913363  0.7358974777987085  1.0000
  C   C23       1.0  0.16690341845149698  0.841672954782226  0.33303549484251244  1.0000
  C   C24       1.0  0.8330996491749546  0.1583275201931755  0.6669633021403669  1.0000
  C   C25       1.0  0.20252477889390963  0.9230818634640274  0.39618821454150316  1.0000
  C   C26       1.0  0.797481449163392  0.0769162777669905  0.6038086117014815  1.0000
  C   C27       1.0  0.06402581460687168  0.672431839370404  0.20889527817744377  1.0000
  C   C28       1.0  0.9359733726939152  0.3275662991581996  0.7911061011714366  1.0000
  C   C29       1.0  0.2623079652656841  0.6042350999137656  0.17867345516157224  1.0000
  C   C30       1.0  0.7376896952346355  0.3957642078150699  0.8213272537341822  1.0000
  C   C31       1.0  0.33503055682459854  0.46085846954060383  0.2252770606016696  1.0000
  C   C32       1.0  0.6649678090250007  0.5391361692825145  0.774722819435638  1.0000
  C   C33       1.0  0.5123763695899014  0.3947521608036909  0.19176751575023582  1.0000
  C   C34       1.0  0.48762240621181957  0.6052494845258992  0.8082308424317403  1.0000
  C   C35       1.0  0.6144951347050024  0.4746663188751512  0.11368937303112855  1.0000
  C   C36       1.0  0.3854992210761096  0.5253364912213173  0.8863125203252905  1.0000
  C   C37       1.0  0.5344458276527178  0.6184543063422511  0.07201154647056278  1.0000
  C   C38       1.0  0.4655547207942162  0.38154383067815445  0.9279903793814269  1.0000
  Br  Br1       1.0  0.48269713869924413  0.9661673582895389  0.8775390642227734  1.0000
  Br  Br2       1.0  0.5172876540519553  0.033854137764429006  0.12246142506418779  1.0000
  Br  Br3       1.0  0.0281029256392387  0.20524585870695947  0.020177515834617996  1.0000
  Br  Br4       1.0  0.9718966143361952  0.7947499453687783  0.979823449085032  1.0000
  N   N1        1.0  0.17036218515598728  0.3238934820036974  0.4441264541614416  1.0000
  N   N2        1.0  0.8296413153355074  0.6761034871019334  0.555874701659107  1.0000
  N   N3        1.0  0.03526592618336366  0.8428686049859666  0.19550538230058825  1.0000
  N   N4        1.0  0.9647303945367864  0.1571307051822828  0.8044941177628289  1.0000
  N   N5        1.0  0.3621348573442447  0.6808738015455803  0.10367908256149858  1.0000
  N   N6        1.0  0.6378627604241132  0.31912550432082304  0.8963229509927046  1.0000
  O   O1        1.0  0.26187741041313467  0.08966207210941952  0.5286132792606606  1.0000
  O   O2        1.0  0.7381273496681117  0.9103360659737094  0.4713863121253326  1.0000
