data_image0
_chemical_formula_structural       Cd2H36C64N8O8
_chemical_formula_sum              "Cd2 H36 C64 N8 O8"
_cell_length_a       10.841290065252865
_cell_length_b       11.817131929760405
_cell_length_c       12.13752843764648
_cell_angle_alpha    64.0692995197441
_cell_angle_beta     81.66902723799572
_cell_angle_gamma    66.74767671811621

_space_group_name_H-M_alt    "P 1"
_space_group_IT_number       1

loop_
  _space_group_symop_operation_xyz
  'x, y, z'

loop_
  _atom_site_type_symbol
  _atom_site_label
  _atom_site_symmetry_multiplicity
  _atom_site_fract_x
  _atom_site_fract_y
  _atom_site_fract_z
  _atom_site_occupancy
  Cd  Cd1       1.0  0.0780868598409015  0.1142702181872366  0.8749213915021415  1.0000
  Cd  Cd2       1.0  0.9219153831090383  0.8857283132093838  0.1250782035539403  1.0000
  H   H1        1.0  0.7098000995766681  0.3280899930129522  0.5760231584310631  1.0000
  H   H2        1.0  0.2901987511358682  0.6719125765719554  0.42397762454784543  1.0000
  H   H3        1.0  0.7437101776535896  0.4452577160684045  0.9048929793294322  1.0000
  H   H4        1.0  0.2562875913539953  0.5547428033212967  0.09510964983410722  1.0000
  H   H5        1.0  0.5820463077626669  0.6073933907542822  0.9830393522761157  1.0000
  H   H6        1.0  0.41794751971648475  0.3926101295694409  0.016961686691665496  1.0000
  H   H7        1.0  0.3582887919583584  0.7643032008660525  0.8761295072270987  1.0000
  H   H8        1.0  0.6417061832860965  0.23569726446000058  0.12386857090633908  1.0000
  H   H9        1.0  0.29829692796541  0.7564042398218618  0.6897101394416438  1.0000
  H   H10       1.0  0.7016997462105935  0.2435942104622697  0.31028857846735747  1.0000
  H   H11       1.0  0.043667056516497285  0.9390182351136712  0.33461440627368  1.0000
  H   H12       1.0  0.9563317866951166  0.06098432366530909  0.665383086739979  1.0000
  H   H13       1.0  0.9239653498437829  0.3988516708510232  0.019721337437296392  1.0000
  H   H14       1.0  0.07603573408947271  0.6011498993343807  0.9802762835052548  1.0000
  H   H15       1.0  0.8470981950339292  0.6207829719907068  0.028762563638331115  1.0000
  H   H16       1.0  0.15290234710923295  0.3792175717463521  0.9712355691508776  1.0000
  H   H17       1.0  0.8115484916191702  0.6366867382774899  0.22983837584492053  1.0000
  H   H18       1.0  0.1884505774795215  0.3633127609900128  0.770158751780926  1.0000
  H   H19       1.0  0.853462721919655  0.4275444259163024  0.42393501226388264  1.0000
  H   H20       1.0  0.1465359670909123  0.5724560952857302  0.5760641989618237  1.0000
  H   H21       1.0  0.028679629004130836  0.30061138519364056  0.5760461606824309  1.0000
  H   H22       1.0  0.971321245919128  0.6993932688165714  0.4239592280697408  1.0000
  H   H23       1.0  0.1606786959438153  0.35010790032838907  0.3841811279735907  1.0000
  H   H24       1.0  0.839320546108233  0.6498936635308681  0.6158225063533181  1.0000
  H   H25       1.0  0.41140524084042324  0.22983524573395192  0.40223999648942776  1.0000
  H   H26       1.0  0.5885944492353303  0.7701601936993895  0.5977612620792315  1.0000
  H   H27       1.0  0.6193564120453701  0.081083239821865  0.5378917140003877  1.0000
  H   H28       1.0  0.38064343035619425  0.918914234486941  0.46210700386491516  1.0000
  H   H29       1.0  0.7235550675000797  0.925689598228551  0.7463840819854471  1.0000
  H   H30       1.0  0.27644848304190356  0.0743079238517979  0.2536133014981772  1.0000
  H   H31       1.0  0.6969580985776599  0.8085323872912155  0.9699201205410547  1.0000
  H   H32       1.0  0.30304546134048127  0.1914651482965297  0.030081375399134934  1.0000
  H   H33       1.0  0.5431041401545966  0.7564208181630221  0.14659109042143842  1.0000
  H   H34       1.0  0.45690050896942574  0.24357877842585646  0.8534118492993559  1.0000
  H   H35       1.0  0.2937014124687919  0.8780343598359648  0.10585413211287438  1.0000
  H   H36       1.0  0.7063017654859962  0.1219641949848338  0.894148624935859  1.0000
  C   C1        1.0  0.5234519288651853  0.49946390917168765  0.5545806063239952  1.0000
  C   C2        1.0  0.47654621460482344  0.5005355801790402  0.4454174717657509  1.0000
  C   C3        1.0  0.6500605753094744  0.4026427199426408  0.6117383795688911  1.0000
  C   C4        1.0  0.3499405123742461  0.5973588556457231  0.38826088635628514  1.0000
  C   C5        1.0  0.6964104173143184  0.4065132740122693  0.7094817097945525  1.0000
  C   C6        1.0  0.30358973723978977  0.5934882808533998  0.29051521662927376  1.0000
  C   C7        1.0  0.612054005618333  0.5029921460340744  0.7557722293905513  1.0000
  C   C8        1.0  0.3879437615140162  0.49700837065414294  0.24422957728167924  1.0000
  C   C9        1.0  0.6460172053728853  0.5125116056049989  0.8588526658190362  1.0000
  C   C10       1.0  0.3539797884565985  0.4874909360419152  0.14114755061373782  1.0000
  C   C11       1.0  0.5557152775010008  0.6040886337526813  0.9015340208550953  1.0000
  C   C12       1.0  0.44428302392051927  0.3959128985779543  0.09846398400522817  1.0000
  C   C13       1.0  0.42933655816241145  0.6932958980812954  0.8408786643671748  1.0000
  C   C14       1.0  0.5706576512801007  0.3067066030093741  0.15912111349205565  1.0000
  C   C15       1.0  0.3945185575524661  0.6887398832148718  0.7385868561040284  1.0000
  C   C16       1.0  0.6054798211807864  0.31125656013178105  0.2614149690544566  1.0000
  C   C17       1.0  0.48322974011022496  0.5926244776288954  0.694554103168457  1.0000
  C   C18       1.0  0.5167650771827182  0.4073739447172429  0.30544404819440985  1.0000
  C   C19       1.0  0.8351057204071991  0.3104996758238627  0.7625365302682497  1.0000
  C   C20       1.0  0.16489498156269627  0.6895029135945946  0.23746235178285258  1.0000
  C   C21       1.0  0.9862975779546587  0.0600109774426301  0.4399602611458349  1.0000
  C   C22       1.0  0.013700337753043258  0.9399915687180992  0.5600373598404148  1.0000
  C   C23       1.0  0.006944481242548799  0.04119510568676079  0.3297540363767339  1.0000
  C   C24       1.0  0.9930523508849588  0.958805387577286  0.6702446083028448  1.0000
  C   C25       1.0  0.9837107297307667  0.15294370964171117  0.21894005187042614  1.0000
  C   C26       1.0  0.016284943380050293  0.8470598224111112  0.7810566186956224  1.0000
  C   C27       1.0  0.9373209704314647  0.2845337722762906  0.217243733749072  1.0000
  C   C28       1.0  0.06267918599787232  0.7154677852908548  0.7827540151660772  1.0000
  C   C29       1.0  0.9083423059871337  0.4050525170880732  0.1080239090917416  1.0000
  C   C30       1.0  0.09165931973621598  0.5949500795456686  0.8919732000041523  1.0000
  C   C31       1.0  0.8639823724678805  0.5291600535655122  0.11317562674966551  1.0000
  C   C32       1.0  0.13601948476824782  0.47083949166119515  0.8868235844323494  1.0000
  C   C33       1.0  0.8446137870990073  0.5379721985492479  0.22733978777099406  1.0000
  C   C34       1.0  0.15538288895223218  0.4620262544363597  0.7726597526293162  1.0000
  C   C35       1.0  0.869987137421127  0.4224998066982549  0.33518961000042685  1.0000
  C   C36       1.0  0.13000745210950976  0.5775016724578845  0.6648080842589368  1.0000
  C   C37       1.0  0.917869191495498  0.2928532503502268  0.3334081694268819  1.0000
  C   C38       1.0  0.0821300393051628  0.7071482973001507  0.6665905299521601  1.0000
  C   C39       1.0  0.009869987622423079  0.13757316787686594  0.1003286786828141  1.0000
  C   C40       1.0  0.9901283156743259  0.8624283671552533  0.8996701486688183  1.0000
  C   C41       1.0  0.13773763583617435  0.2519311297093267  0.5797381574771451  1.0000
  C   C42       1.0  0.8622638431870654  0.7480694401533938  0.4202639597960315  1.0000
  C   C43       1.0  0.21219687590684086  0.278371456906747  0.47269276582045455  1.0000
  C   C44       1.0  0.7878025957827574  0.7216270528439919  0.5273121481012668  1.0000
  C   C45       1.0  0.35030493225923454  0.2130063848353814  0.48306470484359215  1.0000
  C   C46       1.0  0.6496950737195348  0.7869931405577828  0.5169364072662149  1.0000
  C   C47       1.0  0.41416629278063505  0.12406118953079208  0.5997989635251529  1.0000
  C   C48       1.0  0.5858340989119452  0.8759373220322856  0.4002025324587351  1.0000
  C   C49       1.0  0.5572246720004016  0.058873967612512984  0.6177346635797463  1.0000
  C   C50       1.0  0.4427781108644026  0.9411255875309691  0.38226359713836205  1.0000
  C   C51       1.0  0.614647777768425  0.9734679103070432  0.7323689484589837  1.0000
  C   C52       1.0  0.3853559401012205  0.0265316682606169  0.2676324742517764  1.0000
  C   C53       1.0  0.5330982231321  0.9447972913651268  0.8372649842064279  1.0000
  C   C54       1.0  0.46690401794261754  0.05520123733001009  0.1627337883583451  1.0000
  C   C55       1.0  0.5881256418938248  0.8541983941257814  0.956876063115331  1.0000
  C   C56       1.0  0.4118824013428365  0.14579716697628703  0.043126511173952116  1.0000
  C   C57       1.0  0.5036729209357274  0.8276770544357535  0.05368349061505035  1.0000
  C   C58       1.0  0.4963285580875052  0.1723235154269673  0.9463186266581262  1.0000
  C   C59       1.0  0.36391947403067326  0.8952414429025808  0.031638533825599856  1.0000
  C   C60       1.0  0.6360896527861755  0.1047561710961702  0.9683630167703684  1.0000
  C   C61       1.0  0.3304419948161835  0.10181784663149068  0.7025354296778943  1.0000
  C   C62       1.0  0.6695619489405402  0.8981786724246914  0.2974656276450532  1.0000
  C   C63       1.0  0.39096060348681044  0.008312112790918  0.8233811702035042  1.0000
  C   C64       1.0  0.6090446553628791  0.9916834077549055  0.17662096551224243  1.0000
  N   N1        1.0  0.4427211937442405  0.591776815797708  0.594215882531259  1.0000
  N   N2        1.0  0.5572756496346611  0.4082236936752182  0.40578769709618  1.0000
  N   N3        1.0  0.943222336580753  0.18124086914048113  0.44212124644901263  1.0000
  N   N4        1.0  0.05677781984858391  0.8187606884266642  0.5578765024661295  1.0000
  N   N5        1.0  0.194934759738544  0.166004489192666  0.6904146395622207  1.0000
  N   N6        1.0  0.8050689656320309  0.8339951001809142  0.3095900731137888  1.0000
  N   N7        1.0  0.310129731240707  0.983522738344618  0.9201142050654951  1.0000
  N   N8        1.0  0.6898732887625697  0.016473773496265692  0.07988862521266074  1.0000
  O   O1        1.0  0.8686327469985641  0.1866569549684911  0.7808152851523149  1.0000
  O   O2        1.0  0.13136849113573118  0.8133466527938679  0.21918061757818938  1.0000
  O   O3        1.0  0.9130628180536743  0.35504896160374233  0.7847695278042013  1.0000
  O   O4        1.0  0.0869341776510382  0.6449535827446552  0.2152315111198818  1.0000
  O   O5        1.0  0.9323176127780923  0.1013084302694764  0.06478077797045505  1.0000
  O   O6        1.0  0.06768200186115776  0.8986921008493312  0.9352174827913515  1.0000
  O   O7        1.0  0.10737740547772745  0.16456057338335478  0.03868222769872892  1.0000
  O   O8        1.0  0.8926225948753409  0.8354389439053661  0.9613164169371516  1.0000
