data_image0
_chemical_formula_structural       Zn6H132C144N24O24
_chemical_formula_sum              "Zn6 H132 C144 N24 O24"
_cell_length_a       12.042819449662828
_cell_length_b       21.56711266404335
_cell_length_c       21.561675726647124
_cell_angle_alpha    116.60980454630213
_cell_angle_beta     100.71510134390824
_cell_angle_gamma    100.73233289914995

_space_group_name_H-M_alt    "P 1"
_space_group_IT_number       1

loop_
  _space_group_symop_operation_xyz
  'x, y, z'

loop_
  _atom_site_type_symbol
  _atom_site_label
  _atom_site_symmetry_multiplicity
  _atom_site_fract_x
  _atom_site_fract_y
  _atom_site_fract_z
  _atom_site_occupancy
  Zn  Zn1       1.0  0.5788203004243685  0.6222053223087161  0.7819196418545002  1.0000
  Zn  Zn2       1.0  0.7966040458005423  0.2181951033129721  0.8401562507140452  1.0000
  Zn  Zn3       1.0  0.9563929550473489  0.15982547194801813  0.3779294914874924  1.0000
  Zn  Zn4       1.0  0.42118030252850497  0.37779443565732856  0.21808326332503467  1.0000
  Zn  Zn5       1.0  0.20339406711799066  0.7818030202454481  0.1598400965880983  1.0000
  Zn  Zn6       1.0  0.0436073606713521  0.8401753759179087  0.6220696973360303  1.0000
  H   H1        1.0  0.335773196069006  0.6285886373050361  0.7384855198909788  1.0000
  H   H2        1.0  0.7539387073581307  0.6077399255018818  0.8863484269489346  1.0000
  H   H3        1.0  0.989813881818115  0.3895410027563456  0.8430748447389858  1.0000
  H   H4        1.0  0.11057374092178654  0.492126443055973  0.8355220176770002  1.0000
  H   H5        1.0  0.22801041843334255  0.33950699213354346  0.6709005079704653  1.0000
  H   H6        1.0  0.10134484127255658  0.23726468731086917  0.6761858860687723  1.0000
  H   H7        1.0  0.41372599838138047  0.431255453988271  0.80576848431685  1.0000
  H   H8        1.0  0.48875820949102416  0.43418453296273907  0.7435043930121379  1.0000
  H   H9        1.0  0.5386811471959376  0.5075949565284008  0.8344488903389972  1.0000
  H   H10       1.0  0.0289489457322389  0.4938503790040585  0.7011183670374733  1.0000
  H   H11       1.0  0.08577688952245677  0.5896549482874606  0.760785892162694  1.0000
  H   H12       1.0  0.08530186308723126  0.5523726939594481  0.6688634367435781  1.0000
  H   H13       1.0  0.9570475538658841  0.9565063844365228  0.23313380788949448  1.0000
  H   H14       1.0  0.929587997924848  0.8453856647503599  0.11667054359240579  1.0000
  H   H15       1.0  0.5500173233618  0.8051415003656576  0.06423600255617168  1.0000
  H   H16       1.0  0.5802967810956617  0.917350853668026  0.18128349068998523  1.0000
  H   H17       1.0  0.8483399165622032  0.7147518869995438  0.10018600068058707  1.0000
  H   H18       1.0  0.8165126101267504  0.6239658899467102  0.02825943330815056  1.0000
  H   H19       1.0  0.94081671748674  0.6936522591081343  0.04369096170360375  1.0000
  H   H20       1.0  0.6394084567039471  0.8149151566321535  0.8992965464431604  1.0000
  H   H21       1.0  0.577594922323627  0.8290530510281332  0.9714254140435159  1.0000
  H   H22       1.0  0.5028514386401924  0.7534245772181407  0.8822246935125333  1.0000
  H   H23       1.0  0.5969802644921102  0.2615959437841227  0.8901141427762338  1.0000
  H   H24       1.0  0.8675598606459757  0.11366554436001051  0.721386273114831  1.0000
  H   H25       1.0  0.1463089043621437  0.15690522472135632  0.5462949603855518  1.0000
  H   H26       1.0  0.27452880000684127  0.1643330189572865  0.6564277166925833  1.0000
  H   H27       1.0  0.5564056690181615  0.32927317179819937  0.6687700634551843  1.0000
  H   H28       1.0  0.42473568777889165  0.3239474922654538  0.561124226198011  1.0000
  H   H29       1.0  0.6075197626533823  0.1943431765131365  0.6253960141267283  1.0000
  H   H30       1.0  0.7447120716014836  0.2566221874591506  0.6906577963581738  1.0000
  H   H31       1.0  0.7037080945462006  0.165701467185734  0.6731550678231385  1.0000
  H   H32       1.0  0.32731972715677665  0.29900002095735084  0.792983864239815  1.0000
  H   H33       1.0  0.32456756694573136  0.23930555931496403  0.8291265098097111  1.0000
  H   H34       1.0  0.4161443266961271  0.3311851644359507  0.8836844046444694  1.0000
  H   H35       1.0  0.7239758155731265  0.766985725475749  0.7233874669287841  1.0000
  H   H36       1.0  0.812928516819227  0.8835497815644404  0.7288897960179525  1.0000
  H   H37       1.0  0.4857110472316534  0.9358805257442241  0.7410807642385747  1.0000
  H   H38       1.0  0.39890490229230124  0.8186702019708678  0.7359732443084397  1.0000
  H   H39       1.0  0.7482721352073226  0.8998692455372675  0.6147638872665908  1.0000
  H   H40       1.0  0.78833685567988  0.971739856755825  0.595814063009989  1.0000
  H   H41       1.0  0.8972186381250891  0.9563461398053192  0.6501078097354094  1.0000
  H   H42       1.0  0.7402515632696945  0.10076650291649972  0.915765946734332  1.0000
  H   H43       1.0  0.6063650812928714  0.02864004856363781  0.8577714654254291  1.0000
  H   H44       1.0  0.6206893124438012  0.11784694659608873  0.8714092012610023  1.0000
  H   H45       1.0  0.7068820686404891  0.10991169239338212  0.3714269693038403  1.0000
  H   H46       1.0  0.1461802970184891  0.2785784279877248  0.3922496009030069  1.0000
  H   H47       1.0  0.6000599546191693  0.4536513049883197  0.6106645410972859  1.0000
  H   H48       1.0  0.6178918846330886  0.3434341917055407  0.5079968425874312  1.0000
  H   H49       1.0  0.8878282113228977  0.33122752244567977  0.6604992040011978  1.0000
  H   H50       1.0  0.8639382388499399  0.4389306060269291  0.7628024350180951  1.0000
  H   H51       1.0  0.9821020002907588  0.37451815207048617  0.5688307994977889  1.0000
  H   H52       1.0  0.0540303776003555  0.3092602163865052  0.5658684572881967  1.0000
  H   H53       1.0  0.030454846456393615  0.3267227038531288  0.4923991289729128  1.0000
  H   H54       1.0  0.534373469136213  0.2069963680593148  0.5060421854833733  1.0000
  H   H55       1.0  0.49547314048034247  0.17086432095714338  0.41021454863242457  1.0000
  H   H56       1.0  0.5324615239781778  0.11629680883255131  0.44754457646317286  1.0000
  H   H57       1.0  0.0004454774695546444  0.2766437663848578  0.043419903469164536  1.0000
  H   H58       1.0  0.08405967772576164  0.27117833762802235  0.15448474573219784  1.0000
  H   H59       1.0  0.7448457005697193  0.2590812920224366  0.19492165985552384  1.0000
  H   H60       1.0  0.6629918602193569  0.2641767623059081  0.08282335143631059  1.0000
  H   H61       1.0  0.13378535774899805  0.38536715063360577  0.2852184269761082  1.0000
  H   H62       1.0  0.1926563458623534  0.40412769800681764  0.3759863064777206  1.0000
  H   H63       1.0  0.24732472741892755  0.3499445475705302  0.30628195762766797  1.0000
  H   H64       1.0  0.8244659850926295  0.08438144024557201  0.18507518519204064  1.0000
  H   H65       1.0  0.7485514215966163  0.1423665961735807  0.17092142223549436  1.0000
  H   H66       1.0  0.7494119348405378  0.12880726231507114  0.24658533694124424  1.0000
  H   H67       1.0  0.6642282592300646  0.37141112072902877  0.2615151556960171  1.0000
  H   H68       1.0  0.2460636122125095  0.39225819779547777  0.11365439023798977  1.0000
  H   H69       1.0  0.010184163766346987  0.6104603899369253  0.15692666900517344  1.0000
  H   H70       1.0  0.8894212068227816  0.5078754946655623  0.1644761689117331  1.0000
  H   H71       1.0  0.7719867892993619  0.6604944006499097  0.32909859909057815  1.0000
  H   H72       1.0  0.898657428357339  0.7627367053111838  0.32381653402939037  1.0000
  H   H73       1.0  0.5862693303512501  0.5687404900520149  0.19422798710269967  1.0000
  H   H74       1.0  0.5112423978101788  0.5658152250507696  0.25649712128470264  1.0000
  H   H75       1.0  0.4613149842719721  0.49240262197330503  0.16555303461223758  1.0000
  H   H76       1.0  0.9710516937865563  0.5061477444262011  0.29888102766592783  1.0000
  H   H77       1.0  0.9142234790358755  0.4103426302854061  0.239212766494461  1.0000
  H   H78       1.0  0.9146970583643536  0.4476270641236795  0.33113650957999136  1.0000
  H   H79       1.0  0.0429555782563042  0.043495008364296005  0.7668631372231758  1.0000
  H   H80       1.0  0.07041460130291452  0.15461300349930704  0.8833302278753762  1.0000
  H   H81       1.0  0.44998640964855946  0.1948560779888737  0.93576811018535  1.0000
  H   H82       1.0  0.4197077307992103  0.08265162875738241  0.818717333198286  1.0000
  H   H83       1.0  0.15166493830536606  0.2852462362645767  0.8998170821422133  1.0000
  H   H84       1.0  0.1834913938440721  0.37603223326520663  0.9717454154796171  1.0000
  H   H85       1.0  0.059185899464182554  0.3063447744000812  0.9563123264463866  1.0000
  H   H86       1.0  0.3605935861084575  0.18508242174453224  0.10070738920778412  1.0000
  H   H87       1.0  0.4224093540570948  0.17094561705699365  0.028579707162926123  1.0000
  H   H88       1.0  0.49714806597640404  0.24657300116014375  0.11777990375768611  1.0000
  H   H89       1.0  0.40301618029995734  0.7384005451024721  0.10988315323484707  1.0000
  H   H90       1.0  0.13244105563104824  0.8863331239909231  0.27861200312455026  1.0000
  H   H91       1.0  0.8536899436277636  0.8430994373646286  0.4537039266772993  1.0000
  H   H92       1.0  0.7254678687038235  0.8356672841430282  0.34356899102084526  1.0000
  H   H93       1.0  0.4435911417826119  0.6707342144924837  0.33123585867825506  1.0000
  H   H94       1.0  0.5752616721900168  0.6760609838191061  0.43888084989009  1.0000
  H   H95       1.0  0.392477966378202  0.8056609406948995  0.37460297559972844  1.0000
  H   H96       1.0  0.25528622432139514  0.7433813848013173  0.3093428640051529  1.0000
  H   H97       1.0  0.2962899347645519  0.8343015602648054  0.32684346561124755  1.0000
  H   H98       1.0  0.6726758388692814  0.7009981025077466  0.2070159264469922  1.0000
  H   H99       1.0  0.6754288456287441  0.7606925641548727  0.1708729057948091  1.0000
  H   H100      1.0  0.5838529338762086  0.6688129590544492  0.11631417225021326  1.0000
  H   H101      1.0  0.2760236991895724  0.23301185301327368  0.27661388494847466  1.0000
  H   H102      1.0  0.18707495247788583  0.1164472520118025  0.2711112625394989  1.0000
  H   H103      1.0  0.5142909894531442  0.06411868750047492  0.2589169457096431  1.0000
  H   H104      1.0  0.6010968254166754  0.18133010093640684  0.2640277036972378  1.0000
  H   H105      1.0  0.2517324530481133  0.100128332916924  0.38523706862726204  1.0000
  H   H106      1.0  0.21166833748221592  0.028255542230830596  0.404184589417035  1.0000
  H   H107      1.0  0.102787643227181  0.0436514386583511  0.3498923959938906  1.0000
  H   H108      1.0  0.2597462508191126  0.8992327104152406  0.08423039323231042  1.0000
  H   H109      1.0  0.3936347232730525  0.9713580749884441  0.14222459533972634  1.0000
  H   H110      1.0  0.37930683931632103  0.8821506321271005  0.12858623290432553  1.0000
  H   H111      1.0  0.2931173683122026  0.8900907900510476  0.6285747141953948  1.0000
  H   H112      1.0  0.8538160391954221  0.7214245994533357  0.6077496826959318  1.0000
  H   H113      1.0  0.3999378493235356  0.5463479082326829  0.38933504426231746  1.0000
  H   H114      1.0  0.3821103936934663  0.6565672010114342  0.4920027957453427  1.0000
  H   H115      1.0  0.11217237100793656  0.6687738702301689  0.3395021117512585  1.0000
  H   H116      1.0  0.13605868777619887  0.5610702417883856  0.2371991813896628  1.0000
  H   H117      1.0  0.017899727418218114  0.6254821508367884  0.4311701485078884  1.0000
  H   H118      1.0  0.9459719285954548  0.690739541699763  0.4341304523338252  1.0000
  H   H119      1.0  0.969542389145573  0.6732770542996179  0.5075992493773854  1.0000
  H   H120      1.0  0.4656260235549965  0.7930028451237022  0.49395804059437154  1.0000
  H   H121      1.0  0.5045252332525507  0.8291343473479245  0.5897857801089188  1.0000
  H   H122      1.0  0.4675430099881838  0.883704038898877  0.5524573732246125  1.0000
  H   H123      1.0  0.9995560701339558  0.7233510878520093  0.9565758042202076  1.0000
  H   H124      1.0  0.915942055780981  0.7288219653425402  0.8455143477632203  1.0000
  H   H125      1.0  0.2551562583050639  0.7409228251776697  0.80507638171467  1.0000
  H   H126      1.0  0.3370104282533006  0.7358246305218045  0.9171730415035099  1.0000
  H   H127      1.0  0.8662126965321237  0.6146342421545868  0.7147803050026624  1.0000
  H   H128      1.0  0.8073411357297006  0.5958742396656621  0.6240126093744394  1.0000
  H   H129      1.0  0.7526713628048967  0.6500563003507905  0.693716788469409  1.0000
  H   H130      1.0  0.17553345765783498  0.9156210422621387  0.8149246437969353  1.0000
  H   H131      1.0  0.25144439476785857  0.8576337068587137  0.829077515070466  1.0000
  H   H132      1.0  0.2505852714427234  0.871194130452565  0.7534142337473706  1.0000
  C   C1        1.0  0.1766472794273568  0.4226721484015741  0.7523646780906715  1.0000
  C   C2        1.0  0.9644960866719855  0.24669138368510352  0.7649340697073298  1.0000
  C   C3        1.0  0.03865561948894219  0.30742236887790136  0.7601485500840253  1.0000
  C   C4        1.0  0.041334307763186494  0.3793549087382004  0.8050084832786337  1.0000
  C   C5        1.0  0.10841199917866365  0.43619901701130465  0.8005136915203364  1.0000
  C   C6        1.0  0.174908779996585  0.35056902588117117  0.7082267629157497  1.0000
  C   C7        1.0  0.1050795852972968  0.2933844391939928  0.7112999492091062  1.0000
  C   C8        1.0  0.2519398535196942  0.4835171668647504  0.7508817458988017  1.0000
  C   C9        1.0  0.3768487722341334  0.5032805586073863  0.7678664851670473  1.0000
  C   C10       1.0  0.21780338529312365  0.5357326907066026  0.7364444567909486  1.0000
  C   C11       1.0  0.4591073553931153  0.4675460252353859  0.7892026575020309  1.0000
  C   C12       1.0  0.09815318162829827  0.5432626763729617  0.7155828419902405  1.0000
  C   C13       1.0  0.7881198534391558  0.015614036765541097  0.2802102486045044  1.0000
  C   C14       1.0  0.7703463573054281  0.9444107358297918  0.21393097149826482  1.0000
  C   C15       1.0  0.8681930196106934  0.9227632186978384  0.1960356970169529  1.0000
  C   C16       1.0  0.8523675024680487  0.8603860615955058  0.13076605926981705  1.0000
  C   C17       1.0  0.7380485478529196  0.818166240848207  0.08122987742764566  1.0000
  C   C18       1.0  0.6397283060585224  0.8386699958847217  0.1006701211197622  1.0000
  C   C19       1.0  0.6558895476836143  0.9008891226773414  0.16624508799225185  1.0000
  C   C20       1.0  0.7220507138691018  0.7557702220056014  0.009881791692031091  1.0000
  C   C21       1.0  0.7717818579982847  0.6983667998153893  0.9945635384085776  1.0000
  C   C22       1.0  0.6562507913688906  0.7427157416557224  0.941242021711538  1.0000
  C   C23       1.0  0.8481593370775753  0.6816885440404689  0.04401454080377929  1.0000
  C   C24       1.0  0.5903088229425179  0.7873381864400955  0.9228034467239181  1.0000
  C   C25       1.0  0.4235880444204908  0.24770072496452394  0.6703190616632353  1.0000
  C   C26       1.0  0.19933356739937125  0.2351551518392938  0.48169063835671005  1.0000
  C   C27       1.0  0.27804142439423163  0.23996567676085329  0.547274926084654  1.0000
  C   C28       1.0  0.23583962974232264  0.19503175111485405  0.5742787265199565  1.0000
  C   C29       1.0  0.3073053632366438  0.19947251336066074  0.6356091554315951  1.0000
  C   C30       1.0  0.4659956037396923  0.2919404946781227  0.642446860530576  1.0000
  C   C31       1.0  0.3932554463292846  0.2888690054663813  0.5821527655764526  1.0000
  C   C32       1.0  0.500373670256309  0.24914017563616395  0.7326357097119851  1.0000
  C   C33       1.0  0.6083492365065837  0.2322198259884658  0.7353554544750834  1.0000
  C   C34       1.0  0.4807825468954833  0.2635644628767509  0.7993259753319178  1.0000
  C   C35       1.0  0.669358027716484  0.2109287177733208  0.6782958961092544  1.0000
  C   C36       1.0  0.3821064292172025  0.2844820233906091  0.8278605837843074  1.0000
  C   C37       1.0  0.5079102813609496  0.719828660564538  0.7353341556021105  1.0000
  C   C38       1.0  0.5564362947800062  0.7861495992578753  0.7304949667600337  1.0000
  C   C39       1.0  0.6722251207744279  0.8041107586618211  0.7268209300107742  1.0000
  C   C40       1.0  0.7216270029370975  0.8694233843746559  0.729804798559833  1.0000
  C   C41       1.0  0.6568212746761618  0.9189494477714106  0.7371745477188653  1.0000
  C   C42       1.0  0.5390222194242469  0.8994648999569534  0.7381784161787904  1.0000
  C   C43       1.0  0.4896021913212322  0.8338128286817934  0.7346766442157245  1.0000
  C   C44       1.0  0.7122286197620084  0.9902659028800541  0.7460841417727478  1.0000
  C   C45       1.0  0.7772564001386257  0.005510031653251701  0.7039264042231321  1.0000
  C   C46       1.0  0.7150708776761687  0.058914202157211513  0.8016123520111404  1.0000
  C   C47       1.0  0.8042278777810098  0.9560275981566878  0.6378242664756685  1.0000
  C   C48       1.0  0.667626519755153  0.07730182713125092  0.8647060085325646  1.0000
  C   C49       1.0  0.7532162214638589  0.3295735582704324  0.5773996172264475  1.0000
  C   C50       1.0  0.7178568335244366  0.518334610332552  0.7534604737884862  1.0000
  C   C51       1.0  0.730991446872508  0.45274547013054445  0.6927062885925607  1.0000
  C   C52       1.0  0.6615982069251558  0.42567215641340544  0.6208035954565501  1.0000
  C   C53       1.0  0.6715758638927198  0.36426163786155286  0.5639245252829354  1.0000
  C   C54       1.0  0.823678444161281  0.35751867167122237  0.6494868272411053  1.0000
  C   C55       1.0  0.8113703291019974  0.41787321338316724  0.7067088260843446  1.0000
  C   C56       1.0  0.7676998406344852  0.26730221546151256  0.5165042773197966  1.0000
  C   C57       1.0  0.8729570699144984  0.2645856318281333  0.49682932244699163  1.0000
  C   C58       1.0  0.6814606512999288  0.2006255975034889  0.4642246328605068  1.0000
  C   C59       1.0  0.9910124832985687  0.32161586653635515  0.5325363622380407  1.0000
  C   C60       1.0  0.5542694518054604  0.1721115964511952  0.456641548418787  1.0000
  C   C61       1.0  0.7725088052004451  0.2647933377774692  0.9844738028122105  1.0000
  C   C62       1.0  0.825920917111837  0.26966857885906137  0.055660145438970667  1.0000
  C   C63       1.0  0.9453623220079521  0.273305447290781  0.0772046906801265  1.0000
  C   C64       1.0  0.9919025396718837  0.2703381547218981  0.1395440820110636  1.0000
  C   C65       1.0  0.919813214688034  0.2630103288994974  0.1817929173855646  1.0000
  C   C66       1.0  0.8010472217714832  0.26204553150922283  0.16139313687824602  1.0000
  C   C67       1.0  0.7550217733602549  0.26552119086579745  0.09923272243101881  1.0000
  C   C68       1.0  0.9663291032550345  0.25403077316770617  0.24416445344881765  1.0000
  C   C69       1.0  0.07350263928222495  0.2960926465002275  0.30154342904869935  1.0000
  C   C70       1.0  0.9135390805790349  0.19849395914854984  0.25726227981930083  1.0000
  C   C71       1.0  0.16660254842451389  0.36221245192974283  0.3182412093280432  1.0000
  C   C72       1.0  0.8029610842964984  0.13546150284409464  0.21265277950217853  1.0000
  C   C73       1.0  0.8233510693351533  0.5773281545658406  0.24763545210628723  1.0000
  C   C74       1.0  0.035508174884462645  0.7533089191731079  0.2350676075617741  1.0000
  C   C75       1.0  0.9613472184816912  0.6925784788124004  0.23985507702344208  1.0000
  C   C76       1.0  0.9586668222863393  0.6206475737157078  0.19499245005604857  1.0000
  C   C77       1.0  0.8915843869759926  0.5638007411050624  0.1994859891673713  1.0000
  C   C78       1.0  0.8250889931779779  0.6494318219388902  0.29177447840972787  1.0000
  C   C79       1.0  0.8949224148215789  0.7066164085864911  0.2887012712152455  1.0000
  C   C80       1.0  0.7480590708307702  0.5164825912500177  0.24911727316963805  1.0000
  C   C81       1.0  0.6231507219065262  0.4967186545914472  0.2321332772831325  1.0000
  C   C82       1.0  0.7821972278058523  0.46426706737018025  0.263555202995633  1.0000
  C   C83       1.0  0.5408902025594956  0.532451008465877  0.21079639035571773  1.0000
  C   C84       1.0  0.9018474314706851  0.45673708170382815  0.28441681779634104  1.0000
  C   C85       1.0  0.2118962026071927  0.9843895354046381  0.7197880985617857  1.0000
  C   C86       1.0  0.22965450903085124  0.05559120184583581  0.7860669076523477  1.0000
  C   C87       1.0  0.13181122277315888  0.07723871888600801  0.8039639271975145  1.0000
  C   C88       1.0  0.14763455338934509  0.1396115169235657  0.8692337037330444  1.0000
  C   C89       1.0  0.2619560331552933  0.1818313375268801  0.918773396604038  1.0000
  C   C90       1.0  0.3602726221438886  0.16132703766147935  0.8993325263120863  1.0000
  C   C91       1.0  0.344117496609293  0.09911335968319432  0.8337569287870109  1.0000
  C   C92       1.0  0.2779504896421017  0.2442273564454496  0.9901202009033624  1.0000
  C   C93       1.0  0.22822187791095422  0.30163077857078247  0.005439647077814448  1.0000
  C   C94       1.0  0.3437515488237963  0.2572807469318263  0.0587623849024723  1.0000
  C   C95       1.0  0.1518430089128842  0.31830794461036055  0.9559880112999718  1.0000
  C   C96       1.0  0.4096909555334207  0.2126599368272153  0.07720095933741081  1.0000
  C   C97       1.0  0.5764082859956475  0.7523023024132558  0.3296820764459626  1.0000
  C   C98       1.0  0.8006669414697853  0.7648511448394189  0.518309618135035  1.0000
  C   C99       1.0  0.7219554287702293  0.7600400750573258  0.4527256310623925  1.0000
  C   C100      1.0  0.7641575251507432  0.804972910961652  0.4257209107074544  1.0000
  C   C101      1.0  0.6926904031870862  0.8005310589963273  0.36438938478560345  1.0000
  C   C102      1.0  0.5339984359201678  0.7080647122368048  0.3575550130721865  1.0000
  C   C103      1.0  0.6067444782552586  0.7111378359700568  0.4178513838092002  1.0000
  C   C104      1.0  0.49962217252798524  0.7508584927496004  0.26736296251080205  1.0000
  C   C105      1.0  0.3916465798578912  0.7677804770438286  0.26464348283088424  1.0000
  C   C106      1.0  0.5192130249283479  0.7364336606516274  0.20067196084462313  1.0000
  C   C107      1.0  0.33064027400417473  0.7890748545504279  0.3217029097438057  1.0000
  C   C108      1.0  0.6178908284562467  0.7155161000681503  0.17213892036550485  1.0000
  C   C109      1.0  0.49208833691258747  0.280172187244446  0.26466717426865927  1.0000
  C   C110      1.0  0.44356461424980853  0.21384906901395342  0.2695056276171711  1.0000
  C   C111      1.0  0.32777968850072625  0.19589063397445017  0.27318036484055597  1.0000
  C   C112      1.0  0.2783719699046756  0.13057310439959477  0.2701950812249406  1.0000
  C   C113      1.0  0.3431799140107685  0.08104976545273251  0.2628240009391972  1.0000
  C   C114      1.0  0.4609809568409133  0.10053322345589068  0.2618207805329006  1.0000
  C   C115      1.0  0.5103998102470867  0.1661880191145144  0.26532411258106947  1.0000
  C   C116      1.0  0.287774286992132  0.0097316756912207  0.2539138552651394  1.0000
  C   C117      1.0  0.22274846922337596  0.9944880917690712  0.29607204232400625  1.0000
  C   C118      1.0  0.2849289254403118  0.9410839213790468  0.19838417238158002  1.0000
  C   C119      1.0  0.1957747536643382  0.0439694355097302  0.3621743853986742  1.0000
  C   C120      1.0  0.332370450684124  0.9226973862273911  0.13528977926122823  1.0000
  C   C121      1.0  0.24678493355604292  0.6704272895211288  0.4226015146526193  1.0000
  C   C122      1.0  0.28213816126199026  0.48166405803264933  0.24653903714413872  1.0000
  C   C123      1.0  0.26900409418317384  0.5472542879968999  0.3072933035498621  1.0000
  C   C124      1.0  0.3383990228790309  0.5743276016760602  0.37919663740400716  1.0000
  C   C125      1.0  0.3284244474776515  0.6357392099569099  0.4360760544232818  1.0000
  C   C126      1.0  0.17632071893206103  0.6424832658841809  0.3505150474670202  1.0000
  C   C127      1.0  0.1886299808189236  0.5821276344194786  0.2932922172494371  1.0000
  C   C128      1.0  0.23230046928644305  0.7326986323411263  0.4834967660139852  1.0000
  C   C129      1.0  0.12704408365596012  0.7354152159476115  0.503172273059647  1.0000
  C   C130      1.0  0.3185396600704422  0.7993752503149737  0.5357759468457104  1.0000
  C   C131      1.0  0.008988129800407396  0.6783838915404347  0.46746329754854077  1.0000
  C   C132      1.0  0.4457314308045354  0.8278887064671636  0.5433593110416055  1.0000
  C   C133      1.0  0.22748682381134697  0.7352015165053133  0.015522212315268428  1.0000
  C   C134      1.0  0.17407833973538805  0.730328454914961  0.944336297743959  1.0000
  C   C135      1.0  0.054640593442847725  0.7266921313754152  0.922790524592372  1.0000
  C   C136      1.0  0.0080994941140204  0.7296610584911605  0.860454555192284  1.0000
  C   C137      1.0  0.08018907088573726  0.7369910638965822  0.8182044028093856  1.0000
  C   C138      1.0  0.1989547577253462  0.7379569509810652  0.8386064941190342  1.0000
  C   C139      1.0  0.2449785510551052  0.7344796570950507  0.9007636846271081  1.0000
  C   C140      1.0  0.03366865074691831  0.7459717093779902  0.7558347348220165  1.0000
  C   C141      1.0  0.9264945670010363  0.703908746267402  0.6984561416399089  1.0000
  C   C142      1.0  0.08645670791618436  0.8015079785144507  0.7427373861974116  1.0000
  C   C143      1.0  0.8333943883477275  0.6377883959963243  0.681757161686761  1.0000
  C   C144      1.0  0.19703470564816422  0.8645404348347226  0.7873464228869691  1.0000
  N   N1        1.0  0.4153106146284884  0.5636612282960342  0.7638317515830406  1.0000
  N   N2        1.0  0.31859703684906304  0.5822019854196088  0.7443814432241851  1.0000
  N   N3        1.0  0.7353069443369334  0.6553226315597129  0.9214370229710054  1.0000
  N   N4        1.0  0.666075791710874  0.6816194839135509  0.8884432486772482  1.0000
  N   N5        1.0  0.6509679143646423  0.23624610068888077  0.7997588061647176  1.0000
  N   N6        1.0  0.5737312175872019  0.2556510757292827  0.8378075142328141  1.0000
  N   N7        1.0  0.8138285466930668  0.07862570204859048  0.7339109263455652  1.0000
  N   N8        1.0  0.777596569023366  0.11167402839372187  0.7932129475905682  1.0000
  N   N9        1.0  0.8512068063895695  0.20021027047499027  0.43645034393961873  1.0000
  N   N10       1.0  0.7359474476646852  0.16216976141708273  0.41782916299842293  1.0000
  N   N11       1.0  0.0800117140455683  0.2660521418288653  0.3446271910662162  1.0000
  N   N12       1.0  0.9844316692410473  0.2068088670768233  0.3183850691798895  1.0000
  N   N13       1.0  0.5846886056528149  0.4363374400137728  0.2361682020760227  1.0000
  N   N14       1.0  0.6814055359588808  0.41779831747658147  0.2556195933267844  1.0000
  N   N15       1.0  0.2646939867643638  0.34467440201812843  0.07856469720571367  1.0000
  N   N16       1.0  0.3339237187034954  0.3183780945280219  0.1115594940827052  1.0000
  N   N17       1.0  0.3490290502768615  0.7637531126064728  0.20023883613933435  1.0000
  N   N18       1.0  0.42626634326430235  0.7443459580036206  0.1621906063697979  1.0000
  N   N19       1.0  0.18617155525313223  0.9213713317143544  0.26608560538264925  1.0000
  N   N20       1.0  0.2224021180336776  0.8883235502962348  0.20678275221062126  1.0000
  N   N21       1.0  0.14879491842052062  0.7997900324006436  0.5635515313211881  1.0000
  N   N22       1.0  0.2640525869474504  0.8378305414807132  0.5821725351718072  1.0000
  N   N23       1.0  0.9199829319703952  0.73395088563435  0.6553719154421458  1.0000
  N   N24       1.0  0.01556185636714959  0.7931936154926262  0.6816146036196357  1.0000
  O   O1        1.0  0.9220940017252771  0.2686133900100316  0.8191091414564154  1.0000
  O   O2        1.0  0.9481982363981485  0.18142243716518894  0.7182142872107277  1.0000
  O   O3        1.0  0.8979955164304058  0.0542533707319208  0.3164004008293374  1.0000
  O   O4        1.0  0.6992386527318144  0.0346848075305672  0.2951548234200202  1.0000
  O   O5        1.0  0.1030282043643069  0.1808070678127791  0.4492450909230641  1.0000
  O   O6        1.0  0.22967381191268296  0.28198455347155266  0.46324760822373884  1.0000
  O   O7        1.0  0.5816804902131028  0.6836807392643679  0.7378184822753084  1.0000
  O   O8        1.0  0.4040644335576431  0.7048152035342312  0.739366200953114  1.0000
  O   O9        1.0  0.6538424599596483  0.5507179460067777  0.7315495375523468  1.0000
  O   O10       1.0  0.7667170507744032  0.5368144185571849  0.8187244485257704  1.0000
  O   O11       1.0  0.84369487781521  0.26220850195641526  0.9457486414072632  1.0000
  O   O12       1.0  0.6646347129942428  0.26080645570269223  0.9654808068077113  1.0000
  O   O13       1.0  0.07790799549471214  0.7313874577388119  0.18089300622307292  1.0000
  O   O14       1.0  0.051804334960351556  0.8185778657151842  0.28178721296779924  1.0000
  O   O15       1.0  0.1020053821234654  0.945746932360457  0.6835953587278354  1.0000
  O   O16       1.0  0.3007607165569724  0.9653225789800077  0.7048439463082445  1.0000
  O   O17       1.0  0.896975443258988  0.8191970493493415  0.5507535913652788  1.0000
  O   O18       1.0  0.770330648591994  0.7180211982627326  0.5367532822033354  1.0000
  O   O19       1.0  0.41832373477743084  0.31632119812963577  0.2621867054699365  1.0000
  O   O20       1.0  0.5959387119393753  0.29518455447767183  0.26063465172445893  1.0000
  O   O21       1.0  0.3461539247455646  0.44928181209376555  0.26845060676292576  1.0000
  O   O22       1.0  0.23327627878445154  0.4631826151678311  0.18127508386066177  1.0000
  O   O23       1.0  0.15630555082996994  0.737785807402503  0.054247168945707414  1.0000
  O   O24       1.0  0.33536571710038027  0.7391878536720498  0.03451453991768718  1.0000
