data_image0
_chemical_formula_structural       Mn4H36C24O22
_chemical_formula_sum              "Mn4 H36 C24 O22"
_cell_length_a       8.08962412002617
_cell_length_b       10.045607201160786
_cell_length_c       10.547158122450098
_cell_angle_alpha    97.1642411775495
_cell_angle_beta     112.55860741934863
_cell_angle_gamma    90.01791556737024

_space_group_name_H-M_alt    "P 1"
_space_group_IT_number       1

loop_
  _space_group_symop_operation_xyz
  'x, y, z'

loop_
  _atom_site_type_symbol
  _atom_site_label
  _atom_site_symmetry_multiplicity
  _atom_site_fract_x
  _atom_site_fract_y
  _atom_site_fract_z
  _atom_site_occupancy
  Mn  Mn1       1.0  0.2110084600342432  0.4297887601356721  0.04581555178231162  1.0000
  Mn  Mn2       1.0  0.8348328767497789  0.9297155719223437  0.045964326213784455  1.0000
  Mn  Mn3       1.0  0.7889915241793447  0.5702134636023573  0.9541838989581491  1.0000
  Mn  Mn4       1.0  0.16515922065393335  0.0702886682788488  0.9540330629652016  1.0000
  H   H1        1.0  0.3647660381197255  0.4640599214354708  0.8576238932327555  1.0000
  H   H2        1.0  0.4928082825954334  0.9640872287262283  0.857770568275505  1.0000
  H   H3        1.0  0.6352364760903128  0.5359402938937166  0.14237510457794395  1.0000
  H   H4        1.0  0.5071850121048483  0.035914997626228684  0.14222787363781456  1.0000
  H   H5        1.0  0.24336888127435688  0.5826363890888828  0.8440082636952508  1.0000
  H   H6        1.0  0.6006852790581974  0.08263488543066441  0.8441344726522644  1.0000
  H   H7        1.0  0.7566336329356814  0.4173638262403045  0.15599073411544837  1.0000
  H   H8        1.0  0.39930786867704166  0.9173653348837902  0.15586273337165574  1.0000
  H   H9        1.0  0.4769420839071614  0.2490404444739269  0.08152799245615941  1.0000
  H   H10       1.0  0.6046619149340059  0.7488755197657824  0.08173228265729192  1.0000
  H   H11       1.0  0.5230550821607522  0.7509597689716118  0.9184713365791806  1.0000
  H   H12       1.0  0.3953406050568944  0.2511246889380843  0.918268612297318  1.0000
  H   H13       1.0  0.3682636020732629  0.5174257182739623  0.38651092425055805  1.0000
  H   H14       1.0  0.018244507335666092  0.0174567613818724  0.3863466633875561  1.0000
  H   H15       1.0  0.6317363158838845  0.4825754941634202  0.6134902799750959  1.0000
  H   H16       1.0  0.9817565214285863  0.9825414490947324  0.613650707053928  1.0000
  H   H17       1.0  0.18907944810015923  0.6056707556490224  0.41108311270998843  1.0000
  H   H18       1.0  0.2220885324430242  0.10560140686167331  0.41082105489196846  1.0000
  H   H19       1.0  0.8109216671535505  0.39432844293961716  0.5889191442499991  1.0000
  H   H20       1.0  0.7779124271743426  0.8943957956269417  0.5891771204627573  1.0000
  H   H21       1.0  0.5874242107836452  0.7025078257605841  0.5404744358402738  1.0000
  H   H22       1.0  0.9533764048640094  0.2025909861498789  0.5402952168365188  1.0000
  H   H23       1.0  0.4125770456542455  0.2974933854913786  0.45952715986519604  1.0000
  H   H24       1.0  0.0466311837910922  0.7974051957983405  0.45970761797445175  1.0000
  H   H25       1.0  0.42642284627957133  0.7456283037797461  0.6131208521848419  1.0000
  H   H26       1.0  0.1870983820408512  0.24562825524740362  0.6129270699780845  1.0000
  H   H27       1.0  0.5735757360872569  0.2543729065303921  0.38688090913295525  1.0000
  H   H28       1.0  0.8129077874248977  0.7543669331488728  0.3870723839784701  1.0000
  H   H29       1.0  0.275066695381966  0.8873360811426851  0.4229590334434618  1.0000
  H   H30       1.0  0.14824053330453776  0.3874137884837267  0.4227230364086337  1.0000
  H   H31       1.0  0.7249360465017177  0.1126671349618604  0.5770441896312304  1.0000
  H   H32       1.0  0.8517619204299223  0.6125854089194931  0.5772796120311765  1.0000
  H   H33       1.0  0.48551024812270077  0.896827708333596  0.40586933435663036  1.0000
  H   H34       1.0  0.9207326671383526  0.39684481199734023  0.40571379873062324  1.0000
  H   H35       1.0  0.5144908642405781  0.10317149356770017  0.5941319740314055  1.0000
  H   H36       1.0  0.0792709810022316  0.6031523748698007  0.5942889538715618  1.0000
  C   C1        1.0  0.30838613461120445  0.7111358646532864  0.2928544466185413  1.0000
  C   C2        1.0  0.9846188498656189  0.21115368844750285  0.29266078209987256  1.0000
  C   C3        1.0  0.6916110372375639  0.2888643421669315  0.707146779560709  1.0000
  C   C4        1.0  0.01538211264218599  0.7888435107284478  0.707338341826805  1.0000
  C   C5        1.0  0.3192476876334495  0.6169457065609407  0.40291237061200735  1.0000
  C   C6        1.0  0.0838022668661083  0.11694015302207111  0.402718917347073  1.0000
  C   C7        1.0  0.6807508918429476  0.3830555070618545  0.597088442133831  1.0000
  C   C8        1.0  0.9162001032693183  0.8830580529564571  0.5972797931461854  1.0000
  C   C9        1.0  0.4466336079912594  0.7248482063269533  0.5158482123958732  1.0000
  C   C10       1.0  0.0695633163926956  0.22485054203298918  0.5156559135935409  1.0000
  C   C11       1.0  0.5533677204839406  0.2751540096003353  0.4841535269683205  1.0000
  C   C12       1.0  0.9304415174827412  0.7751446442360503  0.4843440974551567  1.0000
  C   C13       1.0  0.3841141314290298  0.8286992637218873  0.41234643812049393  1.0000
  C   C14       1.0  0.0285773541667211  0.3287487192972591  0.4121638190201651  1.0000
  C   C15       1.0  0.6158871307897229  0.1713019409047547  0.5876570547288934  1.0000
  C   C16       1.0  0.9714262910834394  0.6712484708825385  0.5878379850100686  1.0000
  C   C17       1.0  0.43278801165576647  0.6740079842206937  0.21740509639855787  1.0000
  C   C18       1.0  0.7847080117058809  0.17404885123344369  0.21727734715685898  1.0000
  C   C19       1.0  0.5672145861533053  0.32599322253319235  0.7825978393586864  1.0000
  C   C20       1.0  0.21529570847201276  0.8259493403090299  0.782725549104043  1.0000
  C   C21       1.0  0.1212089889008254  0.7177741104876318  0.18221921506112437  1.0000
  C   C22       1.0  0.061156083726224594  0.21774202467226192  0.18205698036916826  1.0000
  C   C23       1.0  0.87879092327546  0.2822271085750642  0.8177800920206122  1.0000
  C   C24       1.0  0.9388424150415703  0.7822581942131775  0.8179408430020769  1.0000
  O   O1        1.0  0.25108887361813  0.4899418121593086  0.8685002499675818  1.0000
  O   O2        1.0  0.6173993809091486  0.9899592746655657  0.8686490549434038  1.0000
  O   O3        1.0  0.7489123021111648  0.5100584043552984  0.13149835636329485  1.0000
  O   O4        1.0  0.3825938388633928  0.010041950324215098  0.13134829473924003  1.0000
  O   O5        1.0  0.3572337204444054  0.25010866311715313  0.999901351766631  1.0000
  O   O6        1.0  0.6427647120669493  0.7498905444676396  9.822508980768608e-05  1.0000
  O   O7        1.0  0.44759893004394496  0.5496393113567136  0.18008677214645988  1.0000
  O   O8        1.0  0.7324920900723271  0.0496789631344683  0.1800013687868116  1.0000
  O   O9        1.0  0.5524010599505118  0.4503629057559948  0.8199145757379112  1.0000
  O   O10       1.0  0.2675065643318106  0.9503232518509961  0.8200005361897025  1.0000
  O   O11       1.0  0.5129655452717827  0.7689122494075917  0.19134597989862806  1.0000
  O   O12       1.0  0.6784994500021071  0.26893960310676585  0.19128872513013545  1.0000
  O   O13       1.0  0.48703705542772  0.23108895403363772  0.8086579044305819  1.0000
  O   O14       1.0  0.3215032861007145  0.7310636196231003  0.8087126008006392  1.0000
  O   O15       1.0  0.06699863306786111  0.6154333600094406  0.0861869917370583  1.0000
  O   O16       1.0  0.019422649151863404  0.11536142941469053  0.08611880615693218  1.0000
  O   O17       1.0  0.9329984725244599  0.3845658355101306  0.9138159879273927  1.0000
  O   O18       1.0  0.9805652829541386  0.8846408116174088  0.9138752241212413  1.0000
  O   O19       1.0  0.029103192797045086  0.8170148413577748  0.18998577212482096  1.0000
  O   O20       1.0  0.1610252368150498  0.31703707627489314  0.18979850248045688  1.0000
  O   O21       1.0  0.9708952281525853  0.18298437947765217  0.8100100104437827  1.0000
  O   O22       1.0  0.8389771362108077  0.6829611263909783  0.8102011565847602  1.0000
