data_image0
_chemical_formula_structural       Zn16H44C112S8Br12O52
_chemical_formula_sum              "Zn16 H44 C112 S8 Br12 O52"
_cell_length_a       18.56005210570435
_cell_length_b       19.700489688359003
_cell_length_c       32.78302445716641
_cell_angle_alpha    86.0554472483206
_cell_angle_beta     73.6211249871011
_cell_angle_gamma    62.00406703674682

_space_group_name_H-M_alt    "P 1"
_space_group_IT_number       1

loop_
  _space_group_symop_operation_xyz
  'x, y, z'

loop_
  _atom_site_type_symbol
  _atom_site_label
  _atom_site_symmetry_multiplicity
  _atom_site_fract_x
  _atom_site_fract_y
  _atom_site_fract_z
  _atom_site_occupancy
  Zn  Zn1       1.0  0.8728080581213505  0.5539119508509244  0.5184323695799833  1.0000
  Zn  Zn2       1.0  0.03785177305238826  0.4852484460688303  0.43893604692943466  1.0000
  Zn  Zn3       1.0  0.04348309155484756  0.3983708401431229  0.5239742669730703  1.0000
  Zn  Zn4       1.0  0.04543655661704106  0.5616355123255231  0.5178531494396523  1.0000
  Zn  Zn5       1.0  0.6257629308910496  0.19103539076952097  0.7327520127291436  1.0000
  Zn  Zn6       1.0  0.4644888727164658  0.34937992410258545  0.7250193480392895  1.0000
  Zn  Zn7       1.0  0.4564243159481267  0.26549228822969434  0.8126677170679458  1.0000
  Zn  Zn8       1.0  0.45365585120749347  0.1927128292976477  0.7289710408240282  1.0000
  Zn  Zn9       1.0  0.46220519798892246  0.7642630291367212  0.3128444387894617  1.0000
  Zn  Zn10      1.0  0.4526881260570691  0.6920785728275548  0.2320852775731836  1.0000
  Zn  Zn11      1.0  0.6258249871111163  0.6938901629373504  0.22934673928750027  1.0000
  Zn  Zn12      1.0  0.45701979941005544  0.8511830636249442  0.2258252878292097  1.0000
  Zn  Zn13      1.0  0.03705251352429441  0.8993420682812925  0.024340987055211417  1.0000
  Zn  Zn14      1.0  0.04947545361872592  0.057512627659931995  0.018924867135844195  1.0000
  Zn  Zn15      1.0  0.8759274820397709  0.057977729127486596  0.0194563105403986  1.0000
  Zn  Zn16      1.0  0.03735298285872834  0.9859589726073845  0.937401052331161  1.0000
  H   H1        1.0  0.8046379662413018  0.9644741344990563  0.6551744267104739  1.0000
  H   H2        1.0  0.31265806364974985  0.9753844257498653  0.401395326749075  1.0000
  H   H3        1.0  0.8120315991810189  0.24167061922480568  0.6537060688671233  1.0000
  H   H4        1.0  0.5452839674058866  0.4845007784022073  0.6203501791481828  1.0000
  H   H5        1.0  0.551266959696527  0.5246141661307533  0.6656076449227726  1.0000
  H   H6        1.0  0.651601806930124  0.5683304882430916  0.6171662649325853  1.0000
  H   H7        1.0  0.6459087128288203  0.5279235475828654  0.5719508131737785  1.0000
  H   H8        1.0  0.2937643122267773  0.6032444301055974  0.2961793856323425  1.0000
  H   H9        1.0  0.3500564036278747  0.6731392277265016  0.43518038478375587  1.0000
  H   H10       1.0  0.25960299048416885  0.7616601943947219  0.43260860780073773  1.0000
  H   H11       1.0  0.16271167819002863  0.7116482302094553  0.4779737134442072  1.0000
  H   H12       1.0  0.2529224955007622  0.6231056623488272  0.48054361381495875  1.0000
  H   H13       1.0  0.8095304999931161  0.6019786031693853  0.2950312027998834  1.0000
  H   H14       1.0  0.5480917680966543  0.761886808180371  0.43052573796399685  1.0000
  H   H15       1.0  0.5429435385851563  0.6735753285632168  0.4329343033010105  1.0000
  H   H16       1.0  0.6432135312163184  0.6234246486377729  0.47903769083342246  1.0000
  H   H17       1.0  0.6485645843540271  0.7116170113386815  0.4765384457424133  1.0000
  H   H18       1.0  0.3084731495540681  0.4566201823462634  0.6459369575385381  1.0000
  H   H19       1.0  0.3291246890250933  0.1791614119458984  0.6295065150624168  1.0000
  H   H20       1.0  0.23850991363651275  0.22035917618555348  0.6748883272339228  1.0000
  H   H21       1.0  0.14290428544819644  0.273409701652902  0.6263507791026015  1.0000
  H   H22       1.0  0.23365370212075484  0.23229641189460887  0.5810905985238932  1.0000
  H   H23       1.0  0.18802423340436303  0.6595033940012486  0.9628696192561322  1.0000
  H   H24       1.0  0.6900420691038747  0.14738852411674228  0.9555144506052854  1.0000
  H   H25       1.0  0.9545057451729666  0.07849154854787342  0.8167735137925121  1.0000
  H   H26       1.0  0.9500986798961367  0.9898467235578253  0.8190670148902227  1.0000
  H   H27       1.0  0.8487352493201216  0.04005134983424341  0.7735815224637577  1.0000
  H   H28       1.0  0.8531077056454209  0.1286704645534371  0.7713560605189117  1.0000
  H   H29       1.0  0.19219015420933527  0.05233142757623449  0.8451757135367545  1.0000
  H   H30       1.0  0.1709398826920606  0.21639836666994228  0.9755592646729525  1.0000
  H   H31       1.0  0.26175668902784827  0.1279080818134233  0.9776950613044519  1.0000
  H   H32       1.0  0.35709417913635383  0.1742237496946757  0.9268584660915736  1.0000
  H   H33       1.0  0.2662714275461298  0.26255559319073285  0.9247481044769187  1.0000
  H   H34       1.0  0.9270198394970495  0.2833889154489312  0.09435056210166695  1.0000
  H   H35       1.0  0.19295401317844366  0.7941824656957408  0.1028597247445759  1.0000
  H   H36       1.0  0.2611954826556869  0.0315779992782623  0.07471797304374661  1.0000
  H   H37       1.0  0.1703035074689723  0.07203648854929413  0.1200542843814532  1.0000
  H   H38       1.0  0.26562131452406856  0.0192603884584841  0.16853292047475324  1.0000
  H   H39       1.0  0.35654227845324044  0.9788364489584183  0.12330194942993697  1.0000
  H   H40       1.0  0.6898078733659148  0.006611455551976098  0.09615586435751314  1.0000
  H   H41       1.0  0.9507306311613494  0.7231411308063898  0.08508177988103682  1.0000
  H   H42       1.0  0.9545759445776698  0.76419203640085  0.13069236052611904  1.0000
  H   H43       1.0  0.853560186717708  0.7206462872638468  0.17825460683484817  1.0000
  H   H44       1.0  0.8495975159774364  0.6795422337460054  0.13274676822144468  1.0000
  C   C1        1.0  0.8625225473367808  0.5677924609240464  0.43037539140229353  1.0000
  C   C2        1.0  0.12411431766685875  0.31586304811339266  0.43883402974418584  1.0000
  C   C3        1.0  0.865504533305128  0.42718400460321254  0.568565156231422  1.0000
  C   C4        1.0  0.13904362539504692  0.4341899933283813  0.5681809660745359  1.0000
  C   C5        1.0  0.872812036807517  0.6838216413921074  0.5602977493904718  1.0000
  C   C6        1.0  0.13761772215418944  0.5693529189165574  0.430790457960299  1.0000
  C   C7        1.0  0.6400081833225715  0.31691430460313796  0.6812620384001562  1.0000
  C   C8        1.0  0.37685619520179614  0.43444255218010147  0.810451398455541  1.0000
  C   C9        1.0  0.6343044450957722  0.1819618857528766  0.820703083851754  1.0000
  C   C10       1.0  0.3610100454955544  0.1806447386626431  0.8174416474723359  1.0000
  C   C11       1.0  0.624899490077958  0.06544937457511682  0.6886523528080986  1.0000
  C   C12       1.0  0.3631848738196627  0.31904948486770474  0.6802546095599951  1.0000
  C   C13       1.0  0.36285287768190966  0.6814256475852859  0.32035330585792116  1.0000
  C   C14       1.0  0.6228895497022721  0.5662947365832024  0.1887972852369444  1.0000
  C   C15       1.0  0.6378436435320294  0.6817527013851576  0.3186235568736464  1.0000
  C   C16       1.0  0.6348009572245207  0.820859828269654  0.18020617433966632  1.0000
  C   C17       1.0  0.37584960686727703  0.9337449930276096  0.311636644024496  1.0000
  C   C18       1.0  0.3608484497631823  0.8172748912611566  0.18121826400089702  1.0000
  C   C19       1.0  0.13807863798123776  0.9315143794944519  0.06866198765324334  1.0000
  C   C20       1.0  0.8794383240716929  0.1841252554702706  0.061295701980718285  1.0000
  C   C21       1.0  0.861602995661237  0.9312658465963396  0.06898027972796676  1.0000
  C   C22       1.0  0.8618593612814324  0.069367815797051  0.931167527286611  1.0000
  C   C23       1.0  0.12160737594183527  0.8157199488979713  0.939195978750945  1.0000
  C   C24       1.0  0.13814602662250053  0.06901833402034187  0.9310776652046044  1.0000
  C   C25       1.0  0.7342181097369367  0.803576216200092  0.6007975855104914  1.0000
  C   C26       1.0  0.7611385515445906  0.9466038980410261  0.6491251231334161  1.0000
  C   C27       1.0  0.8218879404122321  0.7584509644094481  0.5855451029285916  1.0000
  C   C28       1.0  0.6736272091611256  0.9904638259001147  0.6637443627181341  1.0000
  C   C29       1.0  0.7834677560134086  0.8783140199472329  0.6260227928817416  1.0000
  C   C30       1.0  0.7120757557118653  0.8719130046944628  0.6238028325197789  1.0000
  C   C31       1.0  0.20178825013300652  0.22727748471287157  0.3689649833835347  1.0000
  C   C32       1.0  0.29952263800026924  0.0219768244095349  0.3802273681233785  1.0000
  C   C33       1.0  0.17347419183982285  0.24204442180023733  0.4130628297550487  1.0000
  C   C34       1.0  0.32692440885941215  0.008887409846884999  0.3362881503792181  1.0000
  C   C35       1.0  0.2538523194122392  0.1017586300491686  0.39229018730345194  1.0000
  C   C36       1.0  0.2476896305148416  0.1473683394136884  0.3570748523067948  1.0000
  C   C37       1.0  0.6972580782281312  0.3447069366440799  0.6527885093694367  1.0000
  C   C38       1.0  0.8118141992059906  0.39592100677989345  0.597395344763072  1.0000
  C   C39       1.0  0.6673903215750486  0.41668099601285047  0.636172718514402  1.0000
  C   C40       1.0  0.8416612821428804  0.3227275497390067  0.6147451300205232  1.0000
  C   C41       1.0  0.7231036918672733  0.4406167412563988  0.6095210030169226  1.0000
  C   C42       1.0  0.7861226374262532  0.29832106245868323  0.6413357919496647  1.0000
  C   C43       1.0  0.5886836461988383  0.4907982496435465  0.6348203971814499  1.0000
  C   C44       1.0  0.6515529484187328  0.518123123434826  0.6045545770242527  1.0000
  C   C45       1.0  0.3059727865227587  0.6530971912010486  0.3485492589677436  1.0000
  C   C46       1.0  0.19431061805011776  0.5965627094174194  0.4011724590757452  1.0000
  C   C47       1.0  0.2800035117610095  0.6643056401752717  0.39284587261669657  1.0000
  C   C48       1.0  0.22102670649778858  0.5855665414669461  0.35587342433614566  1.0000
  C   C49       1.0  0.22623334476210744  0.6368010168118374  0.4178076786587752  1.0000
  C   C50       1.0  0.27498171983145175  0.6129283868214728  0.3307232422953632  1.0000
  C   C51       1.0  0.28607498035921014  0.6986565978561217  0.4308864278136895  1.0000
  C   C52       1.0  0.22530384367068043  0.6673941452658098  0.45930183806101604  1.0000
  C   C53       1.0  0.6948021425199472  0.652870045950273  0.34690693499921826  1.0000
  C   C54       1.0  0.808944787470516  0.5952884806880545  0.4003623753127243  1.0000
  C   C55       1.0  0.664720390603435  0.6640869272262363  0.3912101101115225  1.0000
  C   C56       1.0  0.8391060225089864  0.5841090653309564  0.35506300434879984  1.0000
  C   C57       1.0  0.7202834612231046  0.6361169260849379  0.4165706545006742  1.0000
  C   C58       1.0  0.7836082624618899  0.6120389175001077  0.32953209812313844  1.0000
  C   C59       1.0  0.5859260089544736  0.6988768379722998  0.42893855533640135  1.0000
  C   C60       1.0  0.6487013730610373  0.6674085949686202  0.45779353986439014  1.0000
  C   C61       1.0  0.30601757091559995  0.3482683001611164  0.652099312321397  1.0000
  C   C62       1.0  0.19595393064330585  0.408426193018265  0.5966064022882165  1.0000
  C   C63       1.0  0.27233922021775925  0.30602940036101245  0.6393783254850121  1.0000
  C   C64       1.0  0.2305702911769175  0.45108908423885913  0.6098697666641756  1.0000
  C   C65       1.0  0.21949255215178462  0.3355920782478776  0.6126393629341749  1.0000
  C   C66       1.0  0.2835372146366737  0.42179994779149876  0.6366211386922416  1.0000
  C   C67       1.0  0.2681691055281804  0.23083100423316688  0.6427118022669802  1.0000
  C   C68       1.0  0.20834786779212788  0.26404743334407504  0.6124036264951442  1.0000
  C   C69       1.0  0.2980911505502205  0.5837820376714619  0.8204507070477902  1.0000
  C   C70       1.0  0.2005381431174201  0.6684383784918281  0.9290304390890896  1.0000
  C   C71       1.0  0.3273249835742009  0.5099889590409319  0.8346982199704698  1.0000
  C   C72       1.0  0.17189524046106214  0.7411264690551744  0.9138807651392611  1.0000
  C   C73       1.0  0.24651462598838245  0.6107527483352087  0.894949842759786  1.0000
  C   C74       1.0  0.25190286689439034  0.6412253678530462  0.8546502005524418  1.0000
  C   C75       1.0  0.8042987081635149  0.09772682297409567  0.9031816771005837  1.0000
  C   C76       1.0  0.6885185354428531  0.1548002338191026  0.8504880431774637  1.0000
  C   C77       1.0  0.8335117131927705  0.08689308840248339  0.8588767476421423  1.0000
  C   C78       1.0  0.659341896701669  0.1653451614222021  0.8957836104116481  1.0000
  C   C79       1.0  0.7772184958367421  0.11466604569871211  0.8338716843731717  1.0000
  C   C80       1.0  0.7154579680298242  0.1377542352725243  0.9209823744708387  1.0000
  C   C81       1.0  0.9118226850198499  0.0528520713259013  0.8209056153619798  1.0000
  C   C82       1.0  0.8483510403132756  0.0842538098164454  0.792435988713983  1.0000
  C   C83       1.0  0.1946544927480077  0.0973244965388105  0.9023934668035096  1.0000
  C   C84       1.0  0.30411897535057636  0.15099506033960347  0.8445515123399829  1.0000
  C   C85       1.0  0.22794312038607267  0.13793363864800057  0.917127959412433  1.0000
  C   C86       1.0  0.26961794380804355  0.1096546615280758  0.8298300029739138  1.0000
  C   C87       1.0  0.28056471587599685  0.1634304467351981  0.888969870462077  1.0000
  C   C88       1.0  0.21699192260028619  0.0838776213045094  0.8578961877291462  1.0000
  C   C89       1.0  0.23196401971520697  0.1707930287897312  0.956363525052275  1.0000
  C   C90       1.0  0.2916562054868877  0.1997265854958883  0.9245650723731628  1.0000
  C   C91       1.0  0.6427830469334598  0.446970490872637  0.1488953887969657  1.0000
  C   C92       1.0  0.8594637086699284  0.30210916412732997  0.10059906702839776  1.0000
  C   C93       1.0  0.6714053626681535  0.49160872980134235  0.1637521226865531  1.0000
  C   C94       1.0  0.8290759619106898  0.25897201125061997  0.08625229326199955  1.0000
  C   C95       1.0  0.7915393110135228  0.370908066253314  0.12352819600953067  1.0000
  C   C96       1.0  0.7110672787997461  0.3782431391849101  0.12600769797766992  1.0000
  C   C97       1.0  0.19499278542876675  0.9026447352522525  0.09691039458306251  1.0000
  C   C98       1.0  0.30455972187715485  0.8428626824044727  0.15256369319634192  1.0000
  C   C99       1.0  0.2282026593383365  0.945148818968072  0.1097978104534647  1.0000
  C   C100      1.0  0.27050239982982316  0.7998358923366097  0.1391002052323529  1.0000
  C   C101      1.0  0.2808514508734422  0.9157703881013431  0.13662082041481227  1.0000
  C   C102      1.0  0.2176971374873064  0.829071135931798  0.11227564634758382  1.0000
  C   C103      1.0  0.23156803620634756  0.0206978443286587  0.10678371244901538  1.0000
  C   C104      1.0  0.2912752737004994  0.9876562849071747  0.13715666346354993  1.0000
  C   C105      1.0  0.8042826035133293  0.9031832318689154  0.09708886804130398  1.0000
  C   C106      1.0  0.6889443029024848  0.8521527490681108  0.1518722793909433  1.0000
  C   C107      1.0  0.8337469049737939  0.8311837863508555  0.11367612731847027  1.0000
  C   C108      1.0  0.6595165549962305  0.9256122698066207  0.13477884655399924  1.0000
  C   C109      1.0  0.7776322473671231  0.8073021762423664  0.13999509338287913  1.0000
  C   C110      1.0  0.7154281775451498  0.9498289087793452  0.10839491645684515  1.0000
  C   C111      1.0  0.912198119410832  0.7573491248159882  0.11566500250965821  1.0000
  C   C112      1.0  0.8489055015866785  0.7300430791473005  0.1454819999726737  1.0000
  S   S1        1.0  0.8771876410897409  0.8000878845455971  0.5995364506145009  1.0000
  S   S2        1.0  0.6178489371319174  0.9495336543457072  0.6497950487014492  1.0000
  S   S3        1.0  0.20318964083199387  0.1578306765780937  0.4398224608598298  1.0000
  S   S4        1.0  0.2978984412382176  0.0926028151653355  0.309292314485937  1.0000
  S   S5        1.0  0.29816380011866533  0.511377849322258  0.8902363896686509  1.0000
  S   S6        1.0  0.20051074283541248  0.7402662076690518  0.8585066813216287  1.0000
  S   S7        1.0  0.7822308289913098  0.4490645459688877  0.14946663517937966  1.0000
  S   S8        1.0  0.7185814256511663  0.30106382841350415  0.10033786335038293  1.0000
  Br  Br1       1.0  0.6502756847169452  0.7817641137468029  0.5932480402730107  1.0000
  Br  Br2       1.0  0.1850567462494795  0.29970837940800266  0.32761862570864514  1.0000
  Br  Br3       1.0  0.31404367464691074  0.6102989582809002  0.7636390599202443  1.0000
  Br  Br4       1.0  0.5295238891549731  0.46975357114497757  0.15612639741062398  1.0000
  Br  Br5       1.0  0.9592593886216538  0.24949356372269446  0.6041778960362906  1.0000
  Br  Br6       1.0  0.1865045149651581  0.534380376434612  0.3240796701803034  1.0000
  Br  Br7       1.0  0.9564962979826748  0.5302942826500328  0.3238320659984738  1.0000
  Br  Br8       1.0  0.20980251077427456  0.5519447532718614  0.5930315116805502  1.0000
  Br  Br9       1.0  0.5420070093677436  0.21768400872996102  0.9274551909972574  1.0000
  Br  Br10      1.0  0.28958788515157613  0.08503043100490969  0.7710173144521306  1.0000
  Br  Br11      1.0  0.29143990641341594  0.6989467054258185  0.15570052863866832  1.0000
  Br  Br12      1.0  0.5421800709586583  0.9995870756778655  0.14565663615832136  1.0000
  O   O1        1.0  0.9980461405230872  0.5005314493132929  0.5012879666643997  1.0000
  O   O2        1.0  0.8225614636971487  0.5803099728529092  0.47020315475840857  1.0000
  O   O3        1.0  0.10055919015339762  0.3766121370067311  0.41874305926864247  1.0000
  O   O4        1.0  0.9458024224368632  0.38671158126159366  0.5592607055218792  1.0000
  O   O5        1.0  0.9427494863789225  0.5345853803371625  0.41449727474997644  1.0000
  O   O6        1.0  0.824702529074145  0.49355500796637136  0.5555339670962525  1.0000
  O   O7        1.0  0.10913702412539555  0.3123031882857177  0.4793690787999124  1.0000
  O   O8        1.0  0.11745336736003523  0.38506423224031744  0.5596412745770181  1.0000
  O   O9        1.0  0.9535837060393183  0.6581047983503084  0.5502678683646494  1.0000
  O   O10       1.0  0.11659189679262755  0.5011386336406359  0.554802533224141  1.0000
  O   O11       1.0  0.833208090227004  0.6519335508225977  0.5508001605361628  1.0000
  O   O12       1.0  0.11466830229729662  0.5283429633541132  0.4149043836641795  1.0000
  O   O13       1.0  0.11682859887855573  0.5895482472480252  0.47045072353189  1.0000
  O   O14       1.0  0.5008288616963271  0.24940836056637747  0.750074614001349  1.0000
  O   O15       1.0  0.6747552769950859  0.2507344799047004  0.6954173443663835  1.0000
  O   O16       1.0  0.4001353047158959  0.4339597017063569  0.7699715007928276  1.0000
  O   O17       1.0  0.5540431838682239  0.21850616298805647  0.8362922565778846  1.0000
  O   O18       1.0  0.5603077011098209  0.3626319514221023  0.688959639116014  1.0000
  O   O19       1.0  0.6747423757972728  0.16548953498238458  0.7809835347495238  1.0000
  O   O20       1.0  0.3920276837341989  0.37563414692885283  0.8326463634044714  1.0000
  O   O21       1.0  0.3819391658407271  0.2190667476333275  0.8374334965676128  1.0000
  O   O22       1.0  0.5439273804477623  0.0956963363965571  0.6969178603000472  1.0000
  O   O23       1.0  0.38435883346558347  0.16588187553250577  0.7773632485727973  1.0000
  O   O24       1.0  0.6669765352837163  0.0933580940969776  0.6996137293419906  1.0000
  O   O25       1.0  0.389996198667383  0.3633261672088111  0.6894628077263789  1.0000
  O   O26       1.0  0.38057400104066375  0.2516171747551397  0.6926969892654569  1.0000
  O   O27       1.0  0.5008363592402248  0.7505978549217147  0.2503275455436338  1.0000
  O   O28       1.0  0.38810445964913515  0.7177606807273091  0.3387961600885205  1.0000
  O   O29       1.0  0.5421755162735736  0.5952247884945764  0.20008792311933382  1.0000
  O   O30       1.0  0.6729430303641383  0.6685594300376323  0.2784997053075386  1.0000
  O   O31       1.0  0.3813674073123253  0.6671422731993532  0.28029704567132546  1.0000
  O   O32       1.0  0.5581631507653172  0.7175102255218206  0.33750744747624145  1.0000
  O   O33       1.0  0.6666598541324477  0.5954452271044559  0.19704392266474005  1.0000
  O   O34       1.0  0.6750064058186356  0.7534063926331385  0.19226307873681492  1.0000
  O   O35       1.0  0.39288566285785764  0.935479256203024  0.2710556857473847  1.0000
  O   O36       1.0  0.5545553995676403  0.8622639698773257  0.19005745135598318  1.0000
  O   O37       1.0  0.3965129542215211  0.8740881004529722  0.33292185215610465  1.0000
  O   O38       1.0  0.38305483917569233  0.7502775921682385  0.19450521186502098  1.0000
  O   O39       1.0  0.38243622130268334  0.8661463553959975  0.19015268971506316  1.0000
  O   O40       1.0  0.0006616137298820014  8.043517249939867e-05  0.9999684369084391  1.0000
  O   O41       1.0  0.11125114937734562  0.8870867837995532  0.0596821607420779  1.0000
  O   O42       1.0  0.9602950327950595  0.15524960672069454  0.051383763497582925  1.0000
  O   O43       1.0  0.8265558115959665  0.9985221941272187  0.05603185880087125  1.0000
  O   O44       1.0  0.12104545379639824  0.9987037413084183  0.055931986966669546  1.0000
  O   O45       1.0  0.9413828491495413  0.8851737092992095  0.060250481453408576  1.0000
  O   O46       1.0  0.8369122246145937  0.15492789434588158  0.05182226877891344  1.0000
  O   O47       1.0  0.826966927250979  0.0837127780498719  0.9712675561638732  1.0000
  O   O48       1.0  0.10197634287354887  0.8757625205696015  0.9180020255954489  1.0000
  O   O49       1.0  0.9416038813109324  0.0329598915745919  0.9123849006130201  1.0000
  O   O50       1.0  0.10216223844732071  0.813784850225609  0.9796883308729746  1.0000
  O   O51       1.0  0.12124695963693455  0.08360377848674719  0.9710253589947015  1.0000
  O   O52       1.0  0.1115416762822079  0.03295608663561471  0.9134653591901909  1.0000
