data_image0
_chemical_formula_structural       Zn4H48C72N8O16
_chemical_formula_sum              "Zn4 H48 C72 N8 O16"
_cell_length_a       11.380469222108605
_cell_length_b       12.517787098176692
_cell_length_c       15.216236238100057
_cell_angle_alpha    67.8199596380795
_cell_angle_beta     68.04129597902717
_cell_angle_gamma    62.957566934260406

_space_group_name_H-M_alt    "P 1"
_space_group_IT_number       1

loop_
  _space_group_symop_operation_xyz
  'x, y, z'

loop_
  _atom_site_type_symbol
  _atom_site_label
  _atom_site_symmetry_multiplicity
  _atom_site_fract_x
  _atom_site_fract_y
  _atom_site_fract_z
  _atom_site_occupancy
  Zn  Zn1       1.0  0.9590780853079368  0.9834029429276324  0.6457341052671809  1.0000
  Zn  Zn2       1.0  0.5883708857189023  0.5164771653063766  0.8543203164747554  1.0000
  Zn  Zn3       1.0  0.04091732419027486  0.016602009964621803  0.3542651519802433  1.0000
  Zn  Zn4       1.0  0.41163675625357143  0.4835223321419375  0.14567561549760913  1.0000
  H   H1        1.0  0.8531830708353427  0.8034275696109319  0.6295802931822012  1.0000
  H   H2        1.0  0.2863283382851734  0.6960555388318851  0.870618204304961  1.0000
  H   H3        1.0  0.14681886069893574  0.19656989527633334  0.37042351109037247  1.0000
  H   H4        1.0  0.7136721164069684  0.3039438075252575  0.12938406658857823  1.0000
  H   H5        1.0  0.4491224752834171  0.18400498159739698  0.6453974022656015  1.0000
  H   H6        1.0  0.2787906860511243  0.3152517079098373  0.8550940571288664  1.0000
  H   H7        1.0  0.5508729794377915  0.8159952252656524  0.3546074688300536  1.0000
  H   H8        1.0  0.7212116481384426  0.6847477299435026  0.14490438033173805  1.0000
  H   H9        1.0  0.7314845536787685  0.20257891493439925  0.8799066020108699  1.0000
  H   H10       1.0  0.8135404129188548  0.2971338822279462  0.6201908791112772  1.0000
  H   H11       1.0  0.2685222198090217  0.7974083522802641  0.12009934747639765  1.0000
  H   H12       1.0  0.1864623939591752  0.7028656820094737  0.3798022676985725  1.0000
  H   H13       1.0  0.29835980302406984  0.1938440472959115  0.5809733278684918  1.0000
  H   H14       1.0  0.07341917738424529  0.30544205056714446  0.9185377825454284  1.0000
  H   H15       1.0  0.7016516343944089  0.8061574133446354  0.4190176391966603  1.0000
  H   H16       1.0  0.9265922707188352  0.6945564884988115  0.08145964824669241  1.0000
  H   H17       1.0  0.6351698879972999  0.8002165286046432  0.6322513327270017  1.0000
  H   H18       1.0  0.06778395175122395  0.6991109032701387  0.8680887305336286  1.0000
  H   H19       1.0  0.3648236881828666  0.19978538908942764  0.3677591477202853  1.0000
  H   H20       1.0  0.9322139990477182  0.3008930376180956  0.1319142724755267  1.0000
  H   H21       1.0  0.6761995614561584  0.16896339763836468  0.6434650575884361  1.0000
  H   H22       1.0  0.48888182760421717  0.3303417599089754  0.8571240711086008  1.0000
  H   H23       1.0  0.3238004346730888  0.8310416433564924  0.35653050254185814  1.0000
  H   H24       1.0  0.5111196799055548  0.6696595751613897  0.14287217252197595  1.0000
  H   H25       1.0  0.08015798841797322  0.18277344456609507  0.5911713727533225  1.0000
  H   H26       1.0  0.8540865395869088  0.3172424059642935  0.9083033247152701  1.0000
  H   H27       1.0  0.9198539207325778  0.817226340131313  0.40881252774237015  1.0000
  H   H28       1.0  0.14592630464053266  0.6827590197883778  0.09168909956770221  1.0000
  H   H29       1.0  0.43983475569302044  0.7963502343862244  0.7049964953772375  1.0000
  H   H30       1.0  0.9414333752357466  0.7032702941960733  0.795772811786229  1.0000
  H   H31       1.0  0.5601543048456534  0.20365155095047519  0.29501953426706967  1.0000
  H   H32       1.0  0.058571677728423345  0.2967280210163068  0.20423400163585373  1.0000
  H   H33       1.0  0.21862150248898612  0.8036187822454365  0.7035638812702774  1.0000
  H   H34       1.0  0.7259224909112305  0.6965794494144147  0.7969576082641014  1.0000
  H   H35       1.0  0.7813662815788334  0.19638406871695924  0.29644615567033133  1.0000
  H   H36       1.0  0.2740776223869402  0.30342260362368717  0.20304719371301871  1.0000
  H   H37       1.0  0.4924551235056924  0.09475286156462907  0.16953380136555307  1.0000
  H   H38       1.0  0.756508022006834  0.40539987495105106  0.33047004662291374  1.0000
  H   H39       1.0  0.5075388791835564  0.905252126215508  0.830463998664044  1.0000
  H   H40       1.0  0.24348296286769497  0.5945987891401358  0.6695221946209245  1.0000
  H   H41       1.0  0.56351245713963  0.885835142319678  0.14579965016416455  1.0000
  H   H42       1.0  0.594778164988405  0.6143243260317419  0.3543999858426334  1.0000
  H   H43       1.0  0.43647792662109447  0.11416596930405376  0.8542059690537089  1.0000
  H   H44       1.0  0.4052112491570484  0.3856769689913404  0.6455979594666987  1.0000
  H   H45       1.0  0.7276417891369178  0.8339295602877358  0.9888412902481962  1.0000
  H   H46       1.0  0.5500558625382939  0.6659713086452682  0.5113773542405867  1.0000
  H   H47       1.0  0.2723460985460662  0.16606781731081804  0.01116619705616983  1.0000
  H   H48       1.0  0.4499386147521776  0.33403741017339417  0.4886187069756503  1.0000
  C   C1        1.0  0.5684169510344363  0.2863772089364289  0.042013934171755835  1.0000
  C   C2        1.0  0.8964541563682287  0.21365874365279316  0.4580978690456023  1.0000
  C   C3        1.0  0.4315897772303575  0.7136148043074396  0.9579864014672881  1.0000
  C   C4        1.0  0.10354185711293001  0.7863491686885807  0.5418933379838863  1.0000
  C   C5        1.0  0.38936178222893153  0.9952299119647205  0.6424888713033711  1.0000
  C   C6        1.0  0.027380226132663638  0.5042092684665673  0.8576392489243647  1.0000
  C   C7        1.0  0.6106314151497185  0.004771129883252496  0.35751966235014987  1.0000
  C   C8        1.0  0.9726284102652514  0.49579294502959914  0.14235881926950367  1.0000
  C   C9        1.0  0.7609888383737841  0.8860101219764258  0.6326284324716698  1.0000
  C   C10       1.0  0.27980636672065623  0.6134648928724358  0.867576889129737  1.0000
  C   C11       1.0  0.2390076098164897  0.11399099860725667  0.36737679892679154  1.0000
  C   C12       1.0  0.7201938166106816  0.38653531358366416  0.13242798900858335  1.0000
  C   C13       1.0  0.5364086000687036  0.0979545446757868  0.6401867853276145  1.0000
  C   C14       1.0  0.2748637477524195  0.40133159664997464  0.8602084719672478  1.0000
  C   C15       1.0  0.46358692659843126  0.9020474202597125  0.35982171376663535  1.0000
  C   C16       1.0  0.7251401245406014  0.5986706393805292  0.13978866314401014  1.0000
  C   C17       1.0  0.6973204343986483  0.13245125149668976  0.9393953778765294  1.0000
  C   C18       1.0  0.7685277361254064  0.3673393508818278  0.5608171497769662  1.0000
  C   C19       1.0  0.30268229613611924  0.8675360097446755  0.06061083015701746  1.0000
  C   C20       1.0  0.23146164252526802  0.6326619662686425  0.43917986949242055  1.0000
  C   C21       1.0  0.5220386328881192  0.9934765046616433  0.6379605182978524  1.0000
  C   C22       1.0  0.15378114444634147  0.5058146767073096  0.8622940712294352  1.0000
  C   C23       1.0  0.477958950750306  0.006525441133120997  0.3620487775632101  1.0000
  C   C24       1.0  0.846221331722326  0.49418467263647864  0.13770807039097127  1.0000
  C   C25       1.0  0.284839759725223  0.10500753483741215  0.611397021293314  1.0000
  C   C26       1.0  0.001522595574655575  0.3944894170043228  0.8883100635844416  1.0000
  C   C27       1.0  0.7151612722269366  0.8949882668672015  0.38859918523192516  1.0000
  C   C28       1.0  0.998481441594855  0.6055120253093874  0.11168168616218577  1.0000
  C   C29       1.0  0.8341823338276556  0.9844876842192746  0.8314171347896818  1.0000
  C   C30       1.0  0.6498135480514122  0.5151503709008621  0.6688648589368925  1.0000
  C   C31       1.0  0.16582495948435388  0.015498568004716195  0.16859268973246347  1.0000
  C   C32       1.0  0.35018596279201114  0.48485386063006075  0.33112597627978607  1.0000
  C   C33       1.0  0.6387596792634725  0.8851678079950457  0.6337821707725909  1.0000
  C   C34       1.0  0.1579284734788047  0.6141904813510947  0.8664581501756817  1.0000
  C   C35       1.0  0.361235977741771  0.11483518767827407  0.36622179283578055  1.0000
  C   C36       1.0  0.842068387094983  0.3858078882968527  0.1335464022191034  1.0000
  C   C37       1.0  0.6623760562548638  0.09040237074479046  0.6395233799128592  1.0000
  C   C38       1.0  0.39257042559926003  0.40896703302933446  0.8608871707047288  1.0000
  C   C39       1.0  0.33762051350166933  0.9096063068057487  0.36047440411013554  1.0000
  C   C40       1.0  0.6074278213706704  0.5910389472071386  0.13910768737262205  1.0000
  C   C41       1.0  0.1629779565185957  0.09999287465051046  0.6160421962087882  1.0000
  C   C42       1.0  0.879081495316271  0.399910381419417  0.8836706786161274  1.0000
  C   C43       1.0  0.8370239162389268  0.9000068508588793  0.38394420273247937  1.0000
  C   C44       1.0  0.12092206916478443  0.6000909345102058  0.11632636178126185  1.0000
  C   C45       1.0  0.7407149247844982  0.014371567089256094  0.9262704739438308  1.0000
  C   C46       1.0  0.6807157133289654  0.48534395012344317  0.5740514778881122  1.0000
  C   C47       1.0  0.2592881145186112  0.985618416580209  0.07373760472228244  1.0000
  C   C48       1.0  0.3192797997844254  0.514655529404976  0.42594522972306964  1.0000
  C   C49       1.0  0.3641591588000852  0.8846888270918427  0.6784604122701056  1.0000
  C   C50       1.0  0.9275471998863335  0.6149945928296033  0.8219891409777418  1.0000
  C   C51       1.0  0.6358377036864695  0.11531314721054998  0.3215476919620672  1.0000
  C   C52       1.0  0.0724595243885418  0.3850129582794181  0.17801716236520096  1.0000
  C   C53       1.0  0.24031427622797702  0.8878775892795046  0.679219866989712  1.0000
  C   C54       1.0  0.8075682342230338  0.6121595859109303  0.8210682457991326  1.0000
  C   C55       1.0  0.7596832967258397  0.11212727808984367  0.3207829651443746  1.0000
  C   C56       1.0  0.192440437669653  0.3878426054578482  0.17893074843468784  1.0000
  C   C57       1.0  0.5624467388960922  0.07097692208665048  0.10197169812046519  1.0000
  C   C58       1.0  0.7349439464102261  0.42904648449661636  0.3981311049526185  1.0000
  C   C59       1.0  0.4375589632740145  0.9290196065456439  0.8980326789319123  1.0000
  C   C60       1.0  0.26504992211538797  0.5709502632368028  0.6018641268880743  1.0000
  C   C61       1.0  0.6099421354542757  0.16066701586488816  0.027836580449225337  1.0000
  C   C62       1.0  0.7978953644245194  0.33932237284175665  0.4722985178848874  1.0000
  C   C63       1.0  0.3900593915119398  0.8393248714018424  0.9721690387979155  1.0000
  C   C64       1.0  0.20210086011250894  0.6606818020808447  0.5276946935468986  1.0000
  C   C65       1.0  0.6039186823344739  0.9537253803716434  0.08844839611922609  1.0000
  C   C66       1.0  0.645592338043805  0.5462677847734768  0.41176305963789883  1.0000
  C   C67       1.0  0.3960715346369952  0.04627292031443629  0.9115590566258761  1.0000
  C   C68       1.0  0.3543959771046445  0.45373446523836225  0.5882335231674817  1.0000
  C   C69       1.0  0.6940603414903493  0.92476632329069  0.0013979797775292046  1.0000
  C   C70       1.0  0.619734439185095  0.5750696244337162  0.49888797815135905  1.0000
  C   C71       1.0  0.3059329949982513  0.07522922306606007  0.9986089302796943  1.0000
  C   C72       1.0  0.38025887689067867  0.4249335673994422  0.5011077803706103  1.0000
  N   N1        1.0  0.1411513664720729  0.9930764909733298  0.6482495135298764  1.0000
  N   N2        1.0  0.7825139843238206  0.507054191067624  0.8517460453616936  1.0000
  N   N3        1.0  0.8588520569862725  0.006926715793070997  0.35174559862641536  1.0000
  N   N4        1.0  0.21749153160058662  0.4929489744306536  0.14825078960135585  1.0000
  N   N5        1.0  0.7736292836656065  0.9859509977314641  0.6358770017454632  1.0000
  N   N6        1.0  0.3956331718996038  0.5135073538606818  0.8644068951094257  1.0000
  N   N7        1.0  0.2263728413808578  0.014055782195107698  0.3641229831502386  1.0000
  N   N8        1.0  0.6043666681249958  0.4864919546219325  0.13559696227508058  1.0000
  O   O1        1.0  0.6146085092327381  0.3636837293979197  0.9726048474256218  1.0000
  O   O2        1.0  0.9504906651087524  0.13637572986085186  0.5275338200048411  1.0000
  O   O3        1.0  0.3854046842041399  0.6363066611175298  0.027386181744660135  1.0000
  O   O4        1.0  0.04950566495621439  0.8636265763523597  0.4724603936280972  1.0000
  O   O5        1.0  0.49232352631216975  0.30715149701917704  0.12500192984630593  1.0000
  O   O6        1.0  0.9242119434844583  0.19291330116879374  0.37508563150932167  1.0000
  O   O7        1.0  0.5076911813743693  0.6928405945534519  0.8749951105803506  1.0000
  O   O8        1.0  0.07578561782837293  0.8070926854479268  0.6249089609790915  1.0000
  O   O9        1.0  0.8406852782337213  0.0761662839303767  0.7562779526004705  1.0000
  O   O10       1.0  0.6734326515423135  0.4234851481843334  0.7439052476209299  1.0000
  O   O11       1.0  0.15931752329058932  0.9238209330562127  0.24373010751297391  1.0000
  O   O12       1.0  0.32656895367993155  0.5765226467329112  0.25609086223990846  1.0000
  O   O13       1.0  0.9001681038129943  0.8725306870168621  0.8278985820119404  1.0000
  O   O14       1.0  0.6001977210309236  0.6271388780506725  0.6723811954575468  1.0000
  O   O15       1.0  0.09982969774037544  0.12745739047563379  0.17211207830361275  1.0000
  O   O16       1.0  0.3997981149763703  0.3728691449276483  0.3276053813721944  1.0000
