data_image0
_chemical_formula_structural       Cd2H28C36N12O10
_chemical_formula_sum              "Cd2 H28 C36 N12 O10"
_cell_length_a       7.975660535510604
_cell_length_b       9.220048300882246
_cell_length_c       13.295669547106824
_cell_angle_alpha    104.29493864405673
_cell_angle_beta     107.54055550126937
_cell_angle_gamma    92.4648751360739

_space_group_name_H-M_alt    "P 1"
_space_group_IT_number       1

loop_
  _space_group_symop_operation_xyz
  'x, y, z'

loop_
  _atom_site_type_symbol
  _atom_site_label
  _atom_site_symmetry_multiplicity
  _atom_site_fract_x
  _atom_site_fract_y
  _atom_site_fract_z
  _atom_site_occupancy
  Cd  Cd1       1.0  0.4499447157780737  0.0137834082817747  0.27054447169599166  1.0000
  Cd  Cd2       1.0  0.5500529212641254  0.9862176491382044  0.7294557358452634  1.0000
  H   H1        1.0  0.9100957970859157  0.8067987905596965  0.8428862322115193  1.0000
  H   H2        1.0  0.08990616990737271  0.19321244996171316  0.15712171234196143  1.0000
  H   H3        1.0  0.9129277617311117  0.9629354542453541  0.05176384726706112  1.0000
  H   H4        1.0  0.08709251255886838  0.03706456387416069  0.9482512700814636  1.0000
  H   H5        1.0  0.8078507646039699  0.7438821653120299  0.13268740921550654  1.0000
  H   H6        1.0  0.1921604927437031  0.25611216403222414  0.8673176962138385  1.0000
  H   H7        1.0  0.7157555284103055  0.5309181964366374  0.14486033370959456  1.0000
  H   H8        1.0  0.28422483463087633  0.4690828107420302  0.8551324493457313  1.0000
  H   H9        1.0  0.5792583011807368  0.05879996190064671  0.9781245679874429  1.0000
  H   H10       1.0  0.4207478644305738  0.9411977072253137  0.021871978350510708  1.0000
  H   H11       1.0  0.7252213877924446  0.3440162138800247  0.8136253080670882  1.0000
  H   H12       1.0  0.27477875964857656  0.6559848351739391  0.18637231051948078  1.0000
  H   H13       1.0  0.8431444064206702  0.015771745134500702  0.2654586704212463  1.0000
  H   H14       1.0  0.15685692788848374  0.9842349850988942  0.7345491479825056  1.0000
  H   H15       1.0  0.5815075177155223  0.7932029046541942  0.42135607160432886  1.0000
  H   H16       1.0  0.4184919048575678  0.2067914034881468  0.5786470419821937  1.0000
  H   H17       1.0  0.14152621607428978  0.7587771072570391  0.4710990297228717  1.0000
  H   H18       1.0  0.8584717881768925  0.2412182974943917  0.5288972624899131  1.0000
  H   H19       1.0  0.1378466551727868  0.6681441222339332  0.6032922957798873  1.0000
  H   H20       1.0  0.8621524685226021  0.3318501532145248  0.3967032388405797  1.0000
  H   H21       1.0  0.015542711038428046  0.509116365739004  0.7219776062151054  1.0000
  H   H22       1.0  0.984461506913796  0.4908767907431725  0.2780185926572542  1.0000
  H   H23       1.0  0.6529123933878582  0.49934956416114323  0.6426501366031657  1.0000
  H   H24       1.0  0.3470921396461932  0.5006447370573284  0.35735007276380054  1.0000
  H   H25       1.0  0.5772665951505617  0.3077768968068355  0.34699970527674406  1.0000
  H   H26       1.0  0.4227271592627915  0.6922263809000454  0.6529934592706184  1.0000
  H   H27       1.0  0.4860664702618607  0.2879502855367377  0.43582371038912976  1.0000
  H   H28       1.0  0.5139357803123659  0.712047379791315  0.5641729298978219  1.0000
  C   C1        1.0  0.878800032003639  0.7638376667099324  0.9051500222990111  1.0000
  C   C2        1.0  0.12119997364690961  0.23617016994070633  0.09485324842081866  1.0000
  C   C3        1.0  0.8787311986295167  0.8435071888690331  0.011024866146065812  1.0000
  C   C4        1.0  0.12128064531039937  0.15649053545144648  0.988983176007842  1.0000
  C   C5        1.0  0.8262019888141127  0.7347957393887582  0.05403367761201132  1.0000
  C   C6        1.0  0.17380296516920168  0.2652008284165816  0.9459692474679426  1.0000
  C   C7        1.0  0.7363633761732943  0.4569064628146222  0.9799986974497725  1.0000
  C   C8        1.0  0.2636291828161887  0.5430968256140504  0.01999727736814797  1.0000
  C   C9        1.0  0.7015620960660841  0.4373378059061253  0.07314851262706411  1.0000
  C   C10       1.0  0.2984282599580225  0.5626598316812307  0.926844620023857  1.0000
  C   C11       1.0  0.6452171395722816  0.2929807396483426  0.07429553943278927  1.0000
  C   C12       1.0  0.3547802720513928  0.70701918284351  0.9257029313036681  1.0000
  C   C13       1.0  0.6054864694404999  0.26439608778358786  0.17229361958904824  1.0000
  C   C14       1.0  0.39450326406833375  0.7356060642748047  0.8277009336889376  1.0000
  C   C15       1.0  0.6231573693079823  0.1734831040284988  0.9814853396660793  1.0000
  C   C16       1.0  0.3768463618841764  0.8265156920446657  0.018511742948319893  1.0000
  C   C17       1.0  0.7056487908006518  0.3318161767615919  0.8888282669060457  1.0000
  C   C18       1.0  0.2943512669770598  0.6681848624842032  0.11116707799070717  1.0000
  C   C19       1.0  0.17218162767592562  0.9271356723714848  0.33541034366931644  1.0000
  C   C20       1.0  0.8278161091984445  0.0728744196157223  0.6645936843385413  1.0000
  C   C21       1.0  0.010509935873443439  0.8885048295730584  0.3640121781308635  1.0000
  C   C22       1.0  0.9894899836285804  0.1114928637373396  0.6359915984904064  1.0000
  C   C23       1.0  0.8515509076856703  0.9422512125030875  0.31920461269174166  1.0000
  C   C24       1.0  0.148450823720232  0.0577498683311433  0.6808000482801475  1.0000
  C   C25       1.0  0.705690977171507  0.8180858332767188  0.40723858620265924  1.0000
  C   C26       1.0  0.29431674251692647  0.18191186436012427  0.5927642446240071  1.0000
  C   C27       1.0  0.8611604911809607  0.7633100504929543  0.4574949564555978  1.0000
  C   C28       1.0  0.13883757284575893  0.23668536079725302  0.5425028515504023  1.0000
  C   C29       1.0  0.016242892114007545  0.7981518429144927  0.43482896427340006  1.0000
  C   C30       1.0  0.983764270869955  0.2018424630155096  0.5651716877253036  1.0000
  C   C31       1.0  0.003824014229991136  0.6369555038974468  0.6004088465591692  1.0000
  C   C32       1.0  0.9961803992529782  0.36303878424346436  0.39958833122138054  1.0000
  C   C33       1.0  0.939363664067834  0.5562453086207029  0.6584061154229061  1.0000
  C   C34       1.0  0.06064330338538327  0.4437478656505575  0.3415935576676076  1.0000
  C   C35       1.0  0.7533466355706296  0.5511491941960784  0.618088265152714  1.0000
  C   C36       1.0  0.24665822874938215  0.4488473638011001  0.38191238623742396  1.0000
  N   N1        1.0  0.8303164034427725  0.6160851182819582  0.8839666509909135  1.0000
  N   N2        1.0  0.16967536738845718  0.383921556228394  0.11603052344248964  1.0000
  N   N3        1.0  0.7975027599107989  0.5996722709756241  0.9756404182348956  1.0000
  N   N4        1.0  0.20249126349249016  0.4003310361557624  0.024359567381914374  1.0000
  N   N5        1.0  0.6492130232878497  0.1934628321926155  0.8905011462690664  1.0000
  N   N6        1.0  0.35078547789226633  0.8065359577268723  0.10949580897847253  1.0000
  N   N7        1.0  0.7032803508717862  0.9060656725169238  0.3402795603100159  1.0000
  N   N8        1.0  0.29671953874246526  0.09393201752408943  0.6597234584146463  1.0000
  N   N9        1.0  0.8600207473032597  0.6767309552833821  0.5305183562755571  1.0000
  N   N10       1.0  0.13998649166036609  0.3232644692278086  0.46948024304491287  1.0000
  N   N11       1.0  0.7048729058158615  0.6244241946821562  0.5408777484352071  1.0000
  N   N12       1.0  0.29512541351714827  0.3755723548055698  0.45912255427219145  1.0000
  O   O1        1.0  0.6072762296474039  0.3765502359059312  0.2497049631256302  1.0000
  O   O2        1.0  0.3927128873814141  0.6234485179068442  0.750285895531185  1.0000
  O   O3        1.0  0.5738286490266377  0.12496025722129642  0.16740837735988376  1.0000
  O   O4        1.0  0.4261598591705535  0.8750419022894961  0.8325882282920528  1.0000
  O   O5        1.0  0.5711158331076406  0.24480682732297512  0.39873984376239235  1.0000
  O   O6        1.0  0.4288856754002311  0.7551953393985471  0.6012551855652006  1.0000
  O   O7        1.0  0.1655555684096228  0.027782460546553995  0.2832552962628084  1.0000
  O   O8        1.0  0.8344418969543383  0.9722253812007221  0.7167498055151069  1.0000
  O   O9        1.0  0.3053892311259006  0.8584053579598458  0.3629987954086288  1.0000
  O   O10       1.0  0.6946202448244777  0.14161265813774554  0.6370100660004708  1.0000
