data_image0
_chemical_formula_structural       Zn2H38C52N6O8
_chemical_formula_sum              "Zn2 H38 C52 N6 O8"
_cell_length_a       17.173577359700253
_cell_length_b       18.25246287354871
_cell_length_c       19.66301258688939
_cell_angle_alpha    89.98173756574703
_cell_angle_beta     91.66351622433439
_cell_angle_gamma    95.18993798272841

_space_group_name_H-M_alt    "P 1"
_space_group_IT_number       1

loop_
  _space_group_symop_operation_xyz
  'x, y, z'

loop_
  _atom_site_type_symbol
  _atom_site_label
  _atom_site_symmetry_multiplicity
  _atom_site_fract_x
  _atom_site_fract_y
  _atom_site_fract_z
  _atom_site_occupancy
  Zn  Zn1       1.0  0.4967468347045526  0.4243967412580715  0.497505014566471  1.0000
  Zn  Zn2       1.0  0.5011880716366053  0.5768768870821501  0.4975619522426555  1.0000
  H   H1        1.0  0.7386608869398119  0.4005524034672303  0.5208685447250476  1.0000
  H   H2        1.0  0.5870791345161592  0.8376197269330844  0.5783220850217462  1.0000
  H   H3        1.0  0.41460084873367714  0.30012199104973547  0.4220568056922644  1.0000
  H   H4        1.0  0.5829338915332087  0.6999623843613134  0.5744965488142526  1.0000
  H   H5        1.0  0.48020936052154894  0.06639782081122549  0.38996598937210086  1.0000
  H   H6        1.0  0.5190669208264043  0.9350202366217953  0.6077433881036287  1.0000
  H   H7        1.0  0.4765508082555599  0.9310148239741948  0.390587835207505  1.0000
  H   H8        1.0  0.5228119572718981  0.07040731448517329  0.607112864501879  1.0000
  H   H9        1.0  0.8853828605477858  0.404037695522504  0.5251311428634936  1.0000
  H   H10       1.0  0.1167062076965948  0.5954689870427642  0.527173338451405  1.0000
  H   H11       1.0  0.24268930138494943  0.36533092912844706  0.4836324431302829  1.0000
  H   H12       1.0  0.2614788821704793  0.599543580730966  0.509107624876279  1.0000
  H   H13       1.0  0.753791616585815  0.6356131546637297  0.5375545559978008  1.0000
  H   H14       1.0  0.4958550297809908  0.6161602664256872  0.7141279409104088  1.0000
  H   H15       1.0  0.503499640058223  0.38447026614328905  0.28151999860548943  1.0000
  H   H16       1.0  0.5017864226542486  0.6170707766694645  0.8409839376081366  1.0000
  H   H17       1.0  0.49942390043847956  0.38287407483038277  0.15470831671832033  1.0000
  H   H18       1.0  0.48602040396752244  0.3800598076869689  0.8406784557578463  1.0000
  H   H19       1.0  0.5140755651790841  0.6198042450064845  0.1537800343838995  1.0000
  H   H20       1.0  0.4136298803495322  0.4047061980185587  0.9357277022391913  1.0000
  H   H21       1.0  0.5881054986672821  0.5947590057204691  0.05931655672902991  1.0000
  H   H22       1.0  0.028913240305882888  0.35160548335127106  0.50846545744362  1.0000
  H   H23       1.0  0.4185263438857519  0.4060492888946426  0.06118231428191481  1.0000
  H   H24       1.0  0.0645934684255778  0.2335388150357359  0.4906152452895115  1.0000
  H   H25       1.0  0.1604266737626787  0.26179332751154755  0.5228736864069817  1.0000
  H   H26       1.0  0.13635210467295883  0.27432620399198265  0.43502755741684496  1.0000
  H   H27       1.0  0.970116589818396  0.6485848160981859  0.5440012531073037  1.0000
  H   H28       1.0  0.9320809029867547  0.767172461520914  0.5492276837866187  1.0000
  H   H29       1.0  0.8443000333160953  0.732770570378399  0.5885836087257488  1.0000
  H   H30       1.0  0.8487852124525758  0.7342014456883419  0.4980672368749026  1.0000
  H   H31       1.0  0.47863237003110026  0.3806363310955803  0.7138327928811279  1.0000
  H   H32       1.0  0.5193215537541817  0.6200369335229324  0.2806094841996511  1.0000
  H   H33       1.0  0.5832907043245257  0.5933319785133832  0.9338425091662756  1.0000
  H   H34       1.0  0.5883971978590666  0.31667541892187484  0.5723114949924764  1.0000
  H   H35       1.0  0.4094840342363569  0.6857520994948557  0.4239298212966673  1.0000
  H   H36       1.0  0.5937214934116072  0.17978953400869097  0.576236686915955  1.0000
  H   H37       1.0  0.4046990650366027  0.822659534710176  0.421356118160091  1.0000
  H   H38       1.0  0.410967089459966  0.1625081450943142  0.4196204200501796  1.0000
  C   C1        1.0  0.512322074126601  0.502550255278109  0.36503687917061  1.0000
  C   C2        1.0  0.5153152956649406  0.5684459267055926  0.2523143528646585  1.0000
  C   C3        1.0  0.4869631027134815  0.4984008947346153  0.7064382010179884  1.0000
  C   C4        1.0  0.5116293581054165  0.5022866887619413  0.2887785030863341  1.0000
  C   C5        1.0  0.45302606925007904  0.44584991099761595  0.9626637172937507  1.0000
  C   C6        1.0  0.5487172062422732  0.5535993682663402  0.032386273673097314  1.0000
  C   C7        1.0  0.4558094249342375  0.4466142554962998  0.033438848230154916  1.0000
  C   C8        1.0  0.5459660082479659  0.5528059578376554  0.9616035628534476  1.0000
  C   C9        1.0  0.5036568724432797  0.5005421449011249  0.0698887923300475  1.0000
  C   C10       1.0  0.49795680343531507  0.49899752839938566  0.925162513467015  1.0000
  C   C11       1.0  0.5502164114072698  0.27974723304753707  0.5397635556957354  1.0000
  C   C12       1.0  0.4853070545088585  0.49846802170636545  0.6302389379882101  1.0000
  C   C13       1.0  0.4478200316886642  0.7221435861384574  0.4568242855592787  1.0000
  C   C14       1.0  0.5523331618391226  0.2038568163069313  0.5417098485311627  1.0000
  C   C15       1.0  0.4459896912793511  0.7980676849116788  0.45561378438871714  1.0000
  C   C16       1.0  0.3457311541541516  0.4854738996573003  0.4858641295606888  1.0000
  C   C17       1.0  0.6515996885589318  0.5157925975648964  0.5200294556177739  1.0000
  C   C18       1.0  0.5023232666843427  0.15915502908467966  0.4980055305228603  1.0000
  C   C19       1.0  0.4962537939032217  0.8421967023514579  0.49959564614137264  1.0000
  C   C20       1.0  0.4520989555062869  0.19441134022287793  0.45373019889379423  1.0000
  C   C21       1.0  0.5459996444940743  0.8062663919373277  0.5437737520527577  1.0000
  C   C22       1.0  0.45323770887796416  0.2705188188794806  0.4549196600921804  1.0000
  C   C23       1.0  0.4977057441059999  0.564971797978117  0.8133721175391245  1.0000
  C   C24       1.0  0.5446001578225363  0.7301390469894568  0.5418418216553107  1.0000
  C   C25       1.0  0.48759475600622443  0.037629822048202796  0.43801494723221884  1.0000
  C   C26       1.0  0.5117240416154303  0.9637691041452777  0.5596977090905852  1.0000
  C   C27       1.0  0.48550238338017954  0.9613242949324672  0.43837257290309856  1.0000
  C   C28       1.0  0.5138402734285067  0.040080745954938386  0.5593394780840769  1.0000
  C   C29       1.0  0.4975267445735058  0.9230587873395776  0.49926133722706817  1.0000
  C   C30       1.0  0.5016353752044936  0.0783369769728424  0.49847811040937273  1.0000
  C   C31       1.0  0.258997121079112  0.48236513266080977  0.4945726069227661  1.0000
  C   C32       1.0  0.7389068153776109  0.5183260672522961  0.528525869049318  1.0000
  C   C33       1.0  0.22426836724756782  0.5480208901568346  0.507137123187569  1.0000
  C   C34       1.0  0.5029440452970348  0.43513745766308165  0.1820602139032843  1.0000
  C   C35       1.0  0.7753277788873592  0.4521625761598569  0.5262255091187101  1.0000
  C   C36       1.0  0.1448410512934117  0.5455770534466777  0.5173536475177087  1.0000
  C   C37       1.0  0.8559481509908409  0.454226887965305  0.5286065691092645  1.0000
  C   C38       1.0  0.09758831947798538  0.4783677080666704  0.5153423985827175  1.0000
  C   C39       1.0  0.9027775451908868  0.5215250541213904  0.5338568332902157  1.0000
  C   C40       1.0  0.1327573742226775  0.41121974995441224  0.5033587712590305  1.0000
  C   C41       1.0  0.8660625881910989  0.5888052181048162  0.5396028285626642  1.0000
  C   C42       1.0  0.21385241325550916  0.4149609288251311  0.49276257804851303  1.0000
  C   C43       1.0  0.7837078204724222  0.5855820489578958  0.5359183660776382  1.0000
  C   C44       1.0  0.49389761017666706  0.564865343420024  0.7426472808411761  1.0000
  C   C45       1.0  0.4943305436808814  0.4986128153736259  0.8500822136386718  1.0000
  C   C46       1.0  0.5056623139662263  0.43564464254274055  0.2528190860970483  1.0000
  C   C47       1.0  0.11364104748648883  0.27603272953106733  0.4869720861511624  1.0000
  C   C48       1.0  0.8825155302880603  0.7249399253663069  0.5455132486562919  1.0000
  C   C49       1.0  0.5065836379489711  0.5012686966077737  0.14498597285090406  1.0000
  C   C50       1.0  0.48702907024539854  0.4321249826399053  0.8132493653484476  1.0000
  C   C51       1.0  0.5129692492072734  0.5679364419983839  0.18152681951963257  1.0000
  C   C52       1.0  0.48347641569591104  0.43200820371606585  0.7424867306102244  1.0000
  N   N1        1.0  0.01715741351695501  0.47035563106622647  0.5225377059567438  1.0000
  N   N2        1.0  0.9838126931742652  0.5296569800038637  0.5310773729095075  1.0000
  N   N3        1.0  0.5013683191481348  0.3123838468788165  0.4972368091313086  1.0000
  N   N4        1.0  0.49659042743759585  0.6888894186367763  0.49892912600748923  1.0000
  N   N5        1.0  0.08674342111322628  0.346386787140595  0.5028360534595039  1.0000
  N   N6        1.0  0.9118836255534292  0.6534214257301298  0.5471845209332429  1.0000
  O   O1        1.0  0.5097830044780025  0.44026736171176134  0.39465511913876844  1.0000
  O   O2        1.0  0.4893529455455408  0.5609427666001068  0.6009264459945456  1.0000
  O   O3        1.0  0.5146792834512723  0.5648820487341764  0.394617510734122  1.0000
  O   O4        1.0  0.4808652787573068  0.43617715121947487  0.6004508902294036  1.0000
  O   O5        1.0  0.37679787254879926  0.42475419557591454  0.48237437197283134  1.0000
  O   O6        1.0  0.6208606453598975  0.5766913677881788  0.5153833396661085  1.0000
  O   O7        1.0  0.3824859913843354  0.5493764352218375  0.48395250631755  1.0000
  O   O8        1.0  0.6144666593480891  0.45202675834373435  0.5169269489887115  1.0000
