data_image0
_chemical_formula_structural       Cu2H42C42N6O18
_chemical_formula_sum              "Cu2 H42 C42 N6 O18"
_cell_length_a       6.741770792215794
_cell_length_b       12.92412237630708
_cell_length_c       13.329921047234524
_cell_angle_alpha    97.3994228175776
_cell_angle_beta     93.60835489231091
_cell_angle_gamma    98.44095790122314

_space_group_name_H-M_alt    "P 1"
_space_group_IT_number       1

loop_
  _space_group_symop_operation_xyz
  'x, y, z'

loop_
  _atom_site_type_symbol
  _atom_site_label
  _atom_site_symmetry_multiplicity
  _atom_site_fract_x
  _atom_site_fract_y
  _atom_site_fract_z
  _atom_site_occupancy
  Cu  Cu1       1.0  0.3823313018964712  0.7599720185509825  0.2175308281627935  1.0000
  Cu  Cu2       1.0  0.6176580407603112  0.2400265564687345  0.7824698393494529  1.0000
  H   H1        1.0  0.8277112689835633  0.9544367012630628  0.2636800827043757  1.0000
  H   H2        1.0  0.1722898082609987  0.045571062026390094  0.7363368271130497  1.0000
  H   H3        1.0  0.7026029427168509  0.8981321128933926  0.1656959759152983  1.0000
  H   H4        1.0  0.2973309140393354  0.10188901930055039  0.8343335050687839  1.0000
  H   H5        1.0  0.023690708127027428  0.7652370277071228  0.2313519618706152  1.0000
  H   H6        1.0  0.9762944144070714  0.2347481662559261  0.7686706006586093  1.0000
  H   H7        1.0  0.11164662433896676  0.8898966876356836  0.2365441597446747  1.0000
  H   H8        1.0  0.8883294689329871  0.110083233510629  0.7634618596114606  1.0000
  H   H9        1.0  0.7177292134508093  0.703323374287606  0.2897654862694096  1.0000
  H   H10       1.0  0.28226085968348263  0.29668233838587804  0.7102366157117928  1.0000
  H   H11       1.0  0.5497139641428817  0.6069631813040743  0.2308365703202924  1.0000
  H   H12       1.0  0.45027513429886296  0.3930441960233821  0.7691679059425027  1.0000
  H   H13       1.0  0.32958269733916984  0.9309931236367461  0.3756762385786558  1.0000
  H   H14       1.0  0.6703796900952952  0.0690096068866808  0.6243269429753154  1.0000
  H   H15       1.0  0.3331560838270208  0.959167718350635  0.5637757308743545  1.0000
  H   H16       1.0  0.6668154815982703  0.04083108102989289  0.4362288855034037  1.0000
  H   H17       1.0  0.3952562498583276  0.6295665148097882  0.5587332846122237  1.0000
  H   H18       1.0  0.6047684157779258  0.3704404673496384  0.44126480053270006  1.0000
  H   H19       1.0  0.40196816247477335  0.6169247926167215  0.3737719208475809  1.0000
  H   H20       1.0  0.5980406377202669  0.3830837198424958  0.6262227896212096  1.0000
  H   H21       1.0  0.35504169676564606  0.8947440247551341  0.72318089218615  1.0000
  H   H22       1.0  0.6449136259222142  0.10526934082793099  0.2768102836888247  1.0000
  H   H23       1.0  0.4394569689020784  0.665130639833329  0.7165564643925746  1.0000
  H   H24       1.0  0.5605472102102382  0.3348918080878391  0.28345289662328094  1.0000
  H   H25       1.0  0.3123645484681178  0.9110396520546403  0.8842534978667941  1.0000
  H   H26       1.0  0.6875627816981336  0.08896513298245169  0.11575849666780158  1.0000
  H   H27       1.0  0.31013349239677973  0.9140739528726981  0.07052153849005549  1.0000
  H   H28       1.0  0.6898225357566546  0.0859275144135623  0.9294895771686456  1.0000
  H   H29       1.0  0.5195038621899429  0.6259542471679252  0.057810249169385486  1.0000
  H   H30       1.0  0.48061889208950237  0.37409092554408124  0.9421892901407318  1.0000
  H   H31       1.0  0.5140588259185818  0.6068389286013343  0.8683335294696661  1.0000
  H   H32       1.0  0.48600727319658427  0.39320088718896784  0.131662929230238  1.0000
  H   H33       1.0  0.9100907652142852  0.4843615821782946  0.2589485080101781  1.0000
  H   H34       1.0  0.08989516125368618  0.5156018125160955  0.7410150168369967  1.0000
  H   H35       1.0  0.949559643054563  0.4027499807347326  0.14480201478429677  1.0000
  H   H36       1.0  0.0505222952077204  0.5972306735332181  0.855172220339675  1.0000
  H   H37       1.0  0.05156703958635229  0.46037386104249106  0.41355483822688643  1.0000
  H   H38       1.0  0.948459439954881  0.539614841773286  0.5864168443335416  1.0000
  H   H39       1.0  0.14737534813393438  0.14303713206396648  0.4445553615502007  1.0000
  H   H40       1.0  0.8526379729422757  0.856947679476562  0.5554380537293611  1.0000
  H   H41       1.0  0.08178969382982611  0.2493785074520289  0.1521915506677942  1.0000
  H   H42       1.0  0.9181998964090851  0.7505873124983323  0.8477963370953462  1.0000
  C   C1        1.0  0.35015115430508814  0.8672961148872602  0.4195346762921517  1.0000
  C   C2        1.0  0.649829752970156  0.1327087865750372  0.5804655526173974  1.0000
  C   C3        1.0  0.35062219761335456  0.8821357522052082  0.5244680553934913  1.0000
  C   C4        1.0  0.6493499773400443  0.11786967607000777  0.4755236826281646  1.0000
  C   C5        1.0  0.3715054094628981  0.7981551157252937  0.5795762140200935  1.0000
  C   C6        1.0  0.6284962194182242  0.2018542395600278  0.4204190928209641  1.0000
  C   C7        1.0  0.3859622109950394  0.7000821034747418  0.5229084421414001  1.0000
  C   C8        1.0  0.6140478665988737  0.2999257748292763  0.47709075477654034  1.0000
  C   C9        1.0  0.386628313211119  0.69151074853508  0.41852110567883466  1.0000
  C   C10       1.0  0.6133847145231925  0.3084970388218763  0.5814759264816871  1.0000
  C   C11       1.0  0.3755920208542917  0.8156898067560475  0.6894397352331579  1.0000
  C   C12       1.0  0.6243841750181572  0.18431906347772295  0.31056070820925186  1.0000
  C   C13       1.0  0.40959575437622686  0.7426520081249848  0.7498656129793843  1.0000
  C   C14       1.0  0.5903861739510745  0.257365803843939  0.2501433493777228  1.0000
  C   C15       1.0  0.41290926805931605  0.7572576734318588  0.8597582031085692  1.0000
  C   C16       1.0  0.5870691498749635  0.24276315183182354  0.14024642055156988  1.0000
  C   C17       1.0  0.3575813220440692  0.8452759543533046  0.9188834713221466  1.0000
  C   C18       1.0  0.6423617914082838  0.1547317481933632  0.08112404976403549  1.0000
  C   C19       1.0  0.3583816359057792  0.8482428745390603  0.02336614690890571  1.0000
  C   C20       1.0  0.6415832432685918  0.15176311581371488  0.9766404193385723  1.0000
  C   C21       1.0  0.47241343146428966  0.6861061894717935  0.01574885743561792  1.0000
  C   C22       1.0  0.5276371598088686  0.31391724447748004  0.9842500876340381  1.0000
  C   C23       1.0  0.4705221829052704  0.6765694481902427  0.9111741441172256  1.0000
  C   C24       1.0  0.5294976967382965  0.3234555691421832  0.08882095046465109  1.0000
  C   C25       1.0  0.20561166380206689  0.5198085167443125  0.2081960767253577  1.0000
  C   C26       1.0  0.794395273729549  0.4801845162672223  0.7918061491546666  1.0000
  C   C27       1.0  0.017443543666800614  0.4403511165109534  0.21998602947809326  1.0000
  C   C28       1.0  0.9825830116637844  0.5596331117186677  0.7799927479002945  1.0000
  C   C29       1.0  0.07749487695780032  0.3815324817191126  0.38307604215474106  1.0000
  C   C30       1.0  0.9225260553352825  0.6184528517962135  0.6169109122429007  1.0000
  C   C31       1.0  0.11504852451037809  0.3063621181519665  0.44428133257734  1.0000
  C   C32       1.0  0.8849699554368156  0.6936297080101426  0.5557106466883397  1.0000
  C   C33       1.0  0.1287730938357541  0.20468344440640607  0.3978333871814356  1.0000
  C   C34       1.0  0.8712269293285005  0.7953016826770919  0.6021671329334666  1.0000
  C   C35       1.0  0.12008367058101753  0.18269778145293006  0.2919646723909892  1.0000
  C   C36       1.0  0.879913885706621  0.8172793970007106  0.7080335313957064  1.0000
  C   C37       1.0  0.08926168731306211  0.2621816057834891  0.2347383684701967  1.0000
  C   C38       1.0  0.910732873674142  0.7377906802719776  0.7652547820668048  1.0000
  C   C39       1.0  0.14104049324323845  0.33738428139850635  0.5591461963499853  1.0000
  C   C40       1.0  0.8589739924474104  0.6626138017275736  0.4408439804433186  1.0000
  C   C41       1.0  0.1388532511850045  0.07461439020428878  0.2371520909459051  1.0000
  C   C42       1.0  0.8611412044343609  0.9253576954330069  0.7628575513644122  1.0000
  N   N1        1.0  0.37061820759171826  0.7738034942833065  0.3669680714898718  1.0000
  N   N2        1.0  0.629363178380771  0.22620772854833854  0.6330327576105432  1.0000
  N   N3        1.0  0.41595094131368165  0.7698794283699185  0.07132365321238857  1.0000
  N   N4        1.0  0.584050700898686  0.23013477637667276  0.9286751051028546  1.0000
  N   N5        1.0  0.06064116514300368  0.35771748751796634  0.2805058652363499  1.0000
  N   N6        1.0  0.9393674115021468  0.6422615670947068  0.7194801083211074  1.0000
  O   O1        1.0  0.16726947740461637  0.6000000043725606  0.1711876711887683  1.0000
  O   O2        1.0  0.832735761322702  0.3999875824159743  0.8288162478104724  1.0000
  O   O3        1.0  0.6885685122153191  0.9387069617166262  0.2309592229810065  1.0000
  O   O4        1.0  0.3114156079955918  0.061313334370197495  0.7690755613240796  1.0000
  O   O5        1.0  0.1170820043955204  0.8146007724277099  0.2002404388328927  1.0000
  O   O6        1.0  0.8828847221631834  0.18537773543734204  0.7997688996261586  1.0000
  O   O7        1.0  0.37739388020220593  0.4991531912035683  0.23723700601210848  1.0000
  O   O8        1.0  0.6226229924602366  0.5008527472413676  0.7627749921090441  1.0000
  O   O9        1.0  0.16705547645720029  0.43472549918438114  0.5916916851733305  1.0000
  O   O10       1.0  0.8330072087194506  0.5652745951602398  0.40829498398568376  1.0000
  O   O11       1.0  0.620330382063365  0.6804319357099259  0.22569651151237477  1.0000
  O   O12       1.0  0.37966414492743883  0.31957376103854773  0.774305733212323  1.0000
  O   O13       1.0  0.14025495254443854  0.2610217437363644  0.6111677811627487  1.0000
  O   O14       1.0  0.859726445559822  0.7389847367411804  0.3888326096897998  1.0000
  O   O15       1.0  0.09604505941405957  0.9986692398177366  0.29073190797208065  1.0000
  O   O16       1.0  0.9039572985964595  0.0013139365549009012  0.7092805172959515  1.0000
  O   O17       1.0  0.1890036882160544  0.06742539183459678  0.1486149074355012  1.0000
  O   O18       1.0  0.8110226482138855  0.9325440210588454  0.8513902655998535  1.0000
