data_image0
_chemical_formula_structural       Ag4H36C40N4Cl4
_chemical_formula_sum              "Ag4 H36 C40 N4 Cl4"
_cell_length_a       4.023601529858467
_cell_length_b       14.899448920242705
_cell_length_c       15.261217406223452
_cell_angle_alpha    90.00048038126317
_cell_angle_beta     90.0003534778414
_cell_angle_gamma    94.13021169402198

_space_group_name_H-M_alt    "P 1"
_space_group_IT_number       1

loop_
  _space_group_symop_operation_xyz
  'x, y, z'

loop_
  _atom_site_type_symbol
  _atom_site_label
  _atom_site_symmetry_multiplicity
  _atom_site_fract_x
  _atom_site_fract_y
  _atom_site_fract_z
  _atom_site_occupancy
  Ag  Ag1       1.0  0.3138343974553094  0.9211235715333782  0.04350971394408989  1.0000
  Ag  Ag2       1.0  0.1861774532347836  0.5788748339427908  0.5435082998695078  1.0000
  Ag  Ag3       1.0  0.6861656643646936  0.07887405306600208  0.9564914134792699  1.0000
  Ag  Ag4       1.0  0.8138381536359134  0.42112474812982  0.456490861807289  1.0000
  H   H1        1.0  0.8132913857854546  0.7748965945875951  0.0819402711429689  1.0000
  H   H2        1.0  0.6867085432060236  0.725109795807228  0.5819393951288416  1.0000
  H   H3        1.0  0.18670274811676527  0.22510577038078589  0.9180608562949074  1.0000
  H   H4        1.0  0.3133054493484194  0.2748924877705645  0.41805714553478157  1.0000
  H   H5        1.0  0.17461945310495242  0.7160521390523227  0.06688501262112818  1.0000
  H   H6        1.0  0.3253696982391432  0.7839512912759544  0.5668874625862869  1.0000
  H   H7        1.0  0.8253699331504833  0.2839509191009311  0.933117425327154  1.0000
  H   H8        1.0  0.6746359792927237  0.21604833148746386  0.4331130095940593  1.0000
  H   H9        1.0  0.8470482605127285  0.668035655981299  0.13437014928300067  1.0000
  H   H10       1.0  0.6529349978795549  0.831969265473759  0.6343740213810278  1.0000
  H   H11       1.0  0.1529379923019647  0.3319653938127942  0.8656277018645182  1.0000
  H   H12       1.0  0.34707381301675605  0.16803236562191864  0.3656251402986114  1.0000
  H   H13       1.0  0.964330503238898  0.6777196344460773  0.2878993201961321  1.0000
  H   H14       1.0  0.535645930655505  0.8222840370744176  0.7879003018891735  1.0000
  H   H15       1.0  0.03564042156468618  0.3222801307202373  0.7121024624680173  1.0000
  H   H16       1.0  0.4643769062093952  0.17771484164509124  0.21209820453490374  1.0000
  H   H17       1.0  0.23563963909056432  0.7567399580352399  0.4133110641626202  1.0000
  H   H18       1.0  0.2643608373725213  0.743258538556837  0.9133111174958727  1.0000
  H   H19       1.0  0.7643428293511433  0.24325706492910362  0.5866907184997172  1.0000
  H   H20       1.0  0.7356477565011588  0.25674241969937117  0.08668738892512097  1.0000
  H   H21       1.0  0.5862756939577095  0.8931801247437714  0.4695846110681785  1.0000
  H   H22       1.0  0.9137402893276843  0.6068176505972642  0.9695778969912819  1.0000
  H   H23       1.0  0.41373181488760474  0.10681746934496766  0.5304171716168256  1.0000
  H   H24       1.0  0.08624046958058065  0.3931894852328097  0.030418643665150593  1.0000
  H   H25       1.0  0.9103094547492033  0.03799592593781398  0.4383676258056467  1.0000
  H   H26       1.0  0.5897067398845692  0.46200400468837427  0.9383600057616731  1.0000
  H   H27       1.0  0.08970754938967926  0.9620002817811721  0.561631535858524  1.0000
  H   H28       1.0  0.41026927136843466  0.5380038243235956  0.061637190149447484  1.0000
  H   H29       1.0  0.9639739571627288  0.09404287480493416  0.2839863739657672  1.0000
  H   H30       1.0  0.5360388935133072  0.40595766581743914  0.7839788650187101  1.0000
  H   H31       1.0  0.03603581695651292  0.9059540362581866  0.7160114771839614  1.0000
  H   H32       1.0  0.4639509267110924  0.5940467379878597  0.21601898614537862  1.0000
  H   H33       1.0  0.6850755878624425  0.0092776475341623  0.16304525371812417  1.0000
  H   H34       1.0  0.8149289514818889  0.4907211371801876  0.6630388887582227  1.0000
  H   H35       1.0  0.31491367654516716  0.9907173264041232  0.8369558736856602  1.0000
  H   H36       1.0  0.18508687239448557  0.5092791177259172  0.33695961766576926  1.0000
  C   C1        1.0  0.14394441643995035  0.7785472153955407  0.19255935809878363  1.0000
  C   C2        1.0  0.3560493842625121  0.7214539871653326  0.6925580719620255  1.0000
  C   C3        1.0  0.8560337383663139  0.22145184642066335  0.8074424245683715  1.0000
  C   C4        1.0  0.6439666566364862  0.27854694058024176  0.30744108972061207  1.0000
  C   C5        1.0  0.9833775886186228  0.7312774421406796  0.11514269395036787  1.0000
  C   C6        1.0  0.5166205002251372  0.7687285885180581  0.6151425527541221  1.0000
  C   C7        1.0  0.016603699535131987  0.2687236280018083  0.8848564677046366  1.0000
  C   C8        1.0  0.4833955406569075  0.2312723392215402  0.3848552984170722  1.0000
  C   C9        1.0  0.11096798365895207  0.7411609222332343  0.2776467551666428  1.0000
  C   C10       1.0  0.3890282359288122  0.7588417294756551  0.7776471379526837  1.0000
  C   C11       1.0  0.8890079058479541  0.2588388225996282  0.7223569932686189  1.0000
  C   C12       1.0  0.6109873709418847  0.241157852596956  0.22235202372411314  1.0000
  C   C13       1.0  0.26032381115045666  0.7857555906580698  0.3478118407290579  1.0000
  C   C14       1.0  0.23967745266607207  0.7142422981634339  0.8478096516107669  1.0000
  C   C15       1.0  0.7396640560228815  0.21424275764579184  0.6521919077102252  1.0000
  C   C16       1.0  0.7603282248403571  0.28575732459101727  0.1521888548024179  1.0000
  C   C17       1.0  0.44745697383969224  0.8685570229456939  0.3342183950661663  1.0000
  C   C18       1.0  0.052548902877603644  0.6314407215076799  0.8342152269410688  1.0000
  C   C19       1.0  0.5525408226809461  0.13144128467034477  0.6657846981252928  1.0000
  C   C20       1.0  0.9474522439877191  0.36856026726514557  0.16578393472972405  1.0000
  C   C21       1.0  0.6076972158279829  0.9191470368914448  0.402844318222037  1.0000
  C   C22       1.0  0.8923271867857918  0.5808507616999132  0.902839978650064  1.0000
  C   C23       1.0  0.3923173060143412  0.08084918101369708  0.5971581197187632  1.0000
  C   C24       1.0  0.10766263345556126  0.4191536421113538  0.09715918302546099  1.0000
  C   C25       1.0  0.7873838102526844  0.9994450805853387  0.3853311165903008  1.0000
  C   C26       1.0  0.7126258961681414  0.5005546377578368  0.8853264857631512  1.0000
  C   C27       1.0  0.2126180828383752  0.0005505153244200994  0.6146680450591119  1.0000
  C   C28       1.0  0.28735939341514427  0.49945113206582875  0.11467202065854558  1.0000
  C   C29       1.0  0.816735519215456  0.031518817143691494  0.2982810583090725  1.0000
  C   C30       1.0  0.6832784475982903  0.4684764610351165  0.798273642975758  1.0000
  C   C31       1.0  0.18326593985577933  0.9684754330960881  0.7017187585902248  1.0000
  C   C32       1.0  0.3167231332953405  0.5315258734106718  0.2017255187008686  1.0000
  C   C33       1.0  0.6617969891338547  0.9843662404318393  0.23016312238399908  1.0000
  C   C34       1.0  0.8382134495265487  0.5156313690183152  0.7301535763492593  1.0000
  C   C35       1.0  0.3381970229459767  0.015628040330540195  0.7698386602765268  1.0000
  C   C36       1.0  0.16179514434713133  0.4843695892378932  0.26984493007173427  1.0000
  C   C37       1.0  0.4725494675567106  0.9023381624943878  0.24641428668424228  1.0000
  C   C38       1.0  0.027466982702826142  0.597660075675378  0.7464088365966857  1.0000
  C   C39       1.0  0.527450160251945  0.09765811643800497  0.7535881512447131  1.0000
  C   C40       1.0  0.9725440935098036  0.40234087240961697  0.2535896698262832  1.0000
  N   N1        1.0  0.31827791348741397  0.8567826984843874  0.17780214927064714  1.0000
  N   N2        1.0  0.18173471299250102  0.6432162695542087  0.6777999421430181  1.0000
  N   N3        1.0  0.6817147013327087  0.1432149566345942  0.8222002886582301  1.0000
  N   N4        1.0  0.8182831591860306  0.35678262950472817  0.32219790902139767  1.0000
  Cl  Cl1       1.0  0.8044386774325715  0.8981962808536817  0.9382885698962651  1.0000
  Cl  Cl2       1.0  0.6955577224344934  0.6018046545369768  0.4382884985723478  1.0000
  Cl  Cl3       1.0  0.19555707076047207  0.10180338260054356  0.061713212787623185  1.0000
  Cl  Cl4       1.0  0.3044527027441575  0.3981942750415682  0.5617106630975854  1.0000
