data_image0
_chemical_formula_structural       Zn2H24C44N4O12
_chemical_formula_sum              "Zn2 H24 C44 N4 O12"
_cell_length_a       9.6985661175538
_cell_length_b       11.023923036593777
_cell_length_c       23.697718449292637
_cell_angle_alpha    90.44253926145345
_cell_angle_beta     90.04941321862655
_cell_angle_gamma    88.76129192449059

_space_group_name_H-M_alt    "P 1"
_space_group_IT_number       1

loop_
  _space_group_symop_operation_xyz
  'x, y, z'

loop_
  _atom_site_type_symbol
  _atom_site_label
  _atom_site_symmetry_multiplicity
  _atom_site_fract_x
  _atom_site_fract_y
  _atom_site_fract_z
  _atom_site_occupancy
  Zn  Zn1       1.0  0.3576902969409588  0.5105709184841132  0.5012896980018196  1.0000
  Zn  Zn2       1.0  0.6398564333899728  0.5048422080074743  0.4987597832030203  1.0000
  H   H1        1.0  0.6030726875713553  0.786267620998089  0.0444581161276574  1.0000
  H   H2        1.0  0.7096649896835248  0.5298177627109694  0.3216645338592769  1.0000
  H   H3        1.0  0.26769237472588975  0.5428328953338664  0.31963249994006293  1.0000
  H   H4        1.0  0.7209448064229776  0.8871377737997715  0.5007447878015725  1.0000
  H   H5        1.0  0.7256658514646972  0.11171033241402738  0.4900856389975272  1.0000
  H   H6        1.0  0.1831591291916581  0.14565192757927997  0.5299364605902283  1.0000
  H   H7        1.0  0.18198388188618958  0.1197113739139581  0.4554701874614934  1.0000
  H   H8        1.0  0.17312385546149048  0.8941597818437754  0.47179634272588794  1.0000
  H   H9        1.0  0.8750801975405054  0.3809460888237907  0.4330330983575621  1.0000
  H   H10       1.0  0.6157212225987508  0.7662897550821838  0.9380088826986748  1.0000
  H   H11       1.0  0.1358348294094327  0.38222944416006743  0.43488337695587365  1.0000
  H   H12       1.0  0.1231766060945674  0.743860756851667  0.5765921377903851  1.0000
  H   H13       1.0  0.856246655326352  0.626511441290546  0.6211632696669865  1.0000
  H   H14       1.0  0.8608590556278556  0.7480275918941216  0.5719937226024712  1.0000
  H   H15       1.0  0.41806740249752755  0.1861703977871088  0.9555868102855027  1.0000
  H   H16       1.0  0.40711916092137557  0.20581474126586127  0.061956818335026795  1.0000
  H   H17       1.0  0.29687854305672096  0.4798029845745262  0.7885011041907217  1.0000
  H   H18       1.0  0.2879919817854457  0.48542483184871077  0.6826166703644745  1.0000
  H   H19       1.0  0.726527750492096  0.4326497817925058  0.6754617638436498  1.0000
  H   H20       1.0  0.7368886238482375  0.4258453155543406  0.781312727461106  1.0000
  H   H21       1.0  0.7130480495894603  0.5201036626802633  0.21576492432676272  1.0000
  H   H22       1.0  0.2695968424098183  0.5337132751287611  0.21372033196885806  1.0000
  H   H23       1.0  0.18173814261469803  0.9211181638788019  0.546139686917499  1.0000
  H   H24       1.0  0.11878118912304811  0.6204233720360931  0.6247611977755554  1.0000
  C   C1        1.0  0.4993612034539083  0.7434465938973671  0.5103296327879647  1.0000
  C   C2        1.0  0.5785314137584338  0.7014361480075237  0.0231446404936761  1.0000
  C   C3        1.0  0.5856641425747  0.6903138963284478  0.9641373391471503  1.0000
  C   C4        1.0  0.5538866353707236  0.5814930746196652  0.9376475411391351  1.0000
  C   C5        1.0  0.5140633287540268  0.4805969105749525  0.9699846398941643  1.0000
  C   C6        1.0  0.4806443042133282  0.36887552314768624  0.9439412472410424  1.0000
  C   C7        1.0  0.44305053979282866  0.2710289265104819  0.9767898954049129  1.0000
  C   C8        1.0  0.4366821486186296  0.28200294328850356  0.03586542043777999  1.0000
  C   C9        1.0  0.5603412997765177  0.5722530256291236  0.8752566524202903  1.0000
  C   C10       1.0  0.4835848766066277  0.3562576373272747  0.8815032145044694  1.0000
  C   C11       1.0  0.3905777266250822  0.46947931573212304  0.7634256006368217  1.0000
  C   C12       1.0  0.5017488814832163  0.4745474748673003  0.6100720763594367  1.0000
  C   C13       1.0  0.3855878426802875  0.472850909207402  0.7047904515735793  1.0000
  C   C14       1.0  0.5069848355681968  0.46188229865052927  0.6730690841706134  1.0000
  C   C15       1.0  0.6332286390016932  0.4430472816293261  0.7007438792688132  1.0000
  C   C16       1.0  0.6388900060396878  0.4389999628667952  0.7594253882654768  1.0000
  C   C17       1.0  0.5175411152585808  0.45427175200989456  0.7903907817719823  1.0000
  C   C18       1.0  0.6159244524297236  0.5249252839992237  0.23884158883110015  1.0000
  C   C19       1.0  0.6141324983192717  0.5303820222171041  0.29749284378466706  1.0000
  C   C20       1.0  0.4885436928349094  0.5355128792854627  0.3266570013936274  1.0000
  C   C21       1.0  0.36447839536976545  0.5379644185086506  0.2963796813578341  1.0000
  C   C22       1.0  0.36559639241652064  0.5329437367686437  0.2376536862793016  1.0000
  C   C23       1.0  0.5086868572832942  0.2719328904265552  0.4878314679745515  1.0000
  C   C24       1.0  0.49144357706243375  0.5250223779001643  0.2093510352126273  1.0000
  C   C25       1.0  0.3797961926170927  0.9492168211531792  0.5024395697260573  1.0000
  C   C26       1.0  0.5000543963696771  0.8779620958803138  0.5048938797074953  1.0000
  C   C27       1.0  0.6249324546842344  0.9403382274685439  0.49979774296049573  1.0000
  C   C28       1.0  0.627637745581147  0.065785600316886  0.4934055460279935  1.0000
  C   C29       1.0  0.5053786098047014  0.13722144792088636  0.4912714253018036  1.0000
  C   C30       1.0  0.3825177527919124  0.07478898506690972  0.49543535412860956  1.0000
  C   C31       1.0  0.2267819038949099  0.089157794365498  0.4956968497989321  1.0000
  C   C32       1.0  0.22357104420151333  0.9473355457267091  0.504988539830215  1.0000
  C   C33       1.0  0.9236496554047877  0.5708073096908634  0.5355982736931749  1.0000
  C   C34       1.0  0.48760729384553514  0.534064802029853  0.3899207077087112  1.0000
  C   C35       1.0  0.9305553609266327  0.4368434882038202  0.4632022815162669  1.0000
  C   C36       1.0  0.0744330271065579  0.43693135506168784  0.4644145784014667  1.0000
  C   C37       1.0  0.06735616943733899  0.5697180834874017  0.5372640957886858  1.0000
  C   C38       1.0  0.07317025058284092  0.6581526117656294  0.5861368201526671  1.0000
  C   C39       1.0  0.9089221222455564  0.6607921611174915  0.58375237910424  1.0000
  C   C40       1.0  0.4590835632422668  0.40127762475197665  0.12481557825255858  1.0000
  C   C41       1.0  0.5337981114749296  0.6177391045167439  0.11815261881609018  1.0000
  C   C42       1.0  0.5399230475192098  0.6037826678311969  0.05586096049163559  1.0000
  C   C43       1.0  0.5071101418524436  0.4918771041074735  0.029909304119897197  1.0000
  C   C44       1.0  0.467482149641782  0.3910901467481764  0.06237075528397179  1.0000
  N   N1        1.0  0.4938076685181443  0.5147232777920152  0.1485434547342876  1.0000
  N   N2        1.0  0.5224327274880595  0.45995136428342664  0.851317408868084  1.0000
  N   N3        1.0  0.8518752389327914  0.5054966540021296  0.4991471180934468  1.0000
  N   N4        1.0  0.1459834110041101  0.5048211690488883  0.5020305562179743  1.0000
  O   O1        1.0  0.3815485274853643  0.6938545041192085  0.5101678450402004  1.0000
  O   O2        1.0  0.5615287907447667  0.7128134364221949  0.14258092936979236  1.0000
  O   O3        1.0  0.5947985485325802  0.6567419589303966  0.8452468276949929  1.0000
  O   O4        1.0  0.45342854507622127  0.2622601150882886  0.85669098544669  1.0000
  O   O5        1.0  0.6156415057731621  0.6877915146576611  0.5137098626520994  1.0000
  O   O6        1.0  0.3832475488149925  0.4891433158631314  0.5876089395097422  1.0000
  O   O7        1.0  0.6166331109250153  0.4716220909268357  0.583985547064941  1.0000
  O   O8        1.0  0.39216007423971894  0.32788429174156153  0.4906461255392712  1.0000
  O   O9        1.0  0.6257921675523406  0.32144408594255214  0.48394101709516946  1.0000
  O   O10       1.0  0.37090223912329634  0.5299632196397538  0.4143552557534065  1.0000
  O   O11       1.0  0.6046193035413836  0.5352121305938338  0.4144909852075145  1.0000
  O   O12       1.0  0.42476319561718884  0.3168722412059566  0.1548462983740677  1.0000
