data_image0
_chemical_formula_structural       Sr2Cu4H24C32O26
_chemical_formula_sum              "Sr2 Cu4 H24 C32 O26"
_cell_length_a       6.584556311836988
_cell_length_b       11.64272005138614
_cell_length_c       12.990340820483897
_cell_angle_alpha    99.39860726721132
_cell_angle_beta     96.79074789243249
_cell_angle_gamma    92.27039444371374

_space_group_name_H-M_alt    "P 1"
_space_group_IT_number       1

loop_
  _space_group_symop_operation_xyz
  'x, y, z'

loop_
  _atom_site_type_symbol
  _atom_site_label
  _atom_site_symmetry_multiplicity
  _atom_site_fract_x
  _atom_site_fract_y
  _atom_site_fract_z
  _atom_site_occupancy
  Sr  Sr1       1.0  0.6612790704912894  0.5068087331563332  0.8587105074252223  1.0000
  Sr  Sr2       1.0  0.33872858165582903  0.4931956140746792  0.14128574232661611  1.0000
  Cu  Cu1       1.0  0.23695856002815666  0.9261391989529243  0.9798233058406254  1.0000
  Cu  Cu2       1.0  0.763054376415873  0.07387293952537992  0.0201798817808978  1.0000
  Cu  Cu3       1.0  0.28046312089777803  0.1857127494501043  0.0549642197610538  1.0000
  Cu  Cu4       1.0  0.7195470057672179  0.8143011587339543  0.9450367434789156  1.0000
  H   H1        1.0  0.5641208119385438  0.8060270287423708  0.33097570014348326  1.0000
  H   H2        1.0  0.43586803490661913  0.1939754810980148  0.6690290264620629  1.0000
  H   H3        1.0  0.669855823712396  0.9751808491152333  0.47456121093416936  1.0000
  H   H4        1.0  0.3301099818392217  0.024821633501808497  0.525445830110165  1.0000
  H   H5        1.0  0.6307442125220819  0.17803428404538124  0.4347495445853653  1.0000
  H   H6        1.0  0.36921357322333387  0.8219647141675992  0.5652564280796639  1.0000
  H   H7        1.0  0.9077001312439351  0.9365692835294299  0.5972201516143657  1.0000
  H   H8        1.0  0.09227366668685731  0.06342270471980531  0.402788117195179  1.0000
  H   H9        1.0  0.8798215161637016  0.14030334716296264  0.5567126361236774  1.0000
  H   H10       1.0  0.12015843840282511  0.8596869807013405  0.4432873176523415  1.0000
  H   H11       1.0  0.9579960019240659  0.30847618299072377  0.7039703794780365  1.0000
  H   H12       1.0  0.0420076781097336  0.6915194524693931  0.2960234974977354  1.0000
  H   H13       1.0  0.05063854758413561  0.5315902302963664  0.7299714436187654  1.0000
  H   H14       1.0  0.949375013982916  0.4684123614277667  0.2700256988404632  1.0000
  H   H15       1.0  0.933051381617865  0.6455296131903553  0.7200812961035652  1.0000
  H   H16       1.0  0.06695750988652088  0.3544729493086222  0.2799186111786511  1.0000
  H   H17       1.0  0.31010088921519957  0.649138682938414  0.9704558014073542  1.0000
  H   H18       1.0  0.6899118699525032  0.35087087876828343  0.029543128900954195  1.0000
  H   H19       1.0  0.19810866476178285  0.5248827030640014  0.9167213851615728  1.0000
  H   H20       1.0  0.8019039693546047  0.4751251381526772  0.08327496270850077  1.0000
  H   H21       1.0  0.37795436378737424  0.5529721398156583  0.6785868922866457  1.0000
  H   H22       1.0  0.6220806988317163  0.44702963953126573  0.32140462476066023  1.0000
  H   H23       1.0  0.33873311555910135  0.41434347236997854  0.648100882162062  1.0000
  H   H24       1.0  0.6613063272607889  0.5856565522974578  0.3518914261179802  1.0000
  C   C1        1.0  0.4452857940142039  0.024803587344145197  0.19423749513155997  1.0000
  C   C2        1.0  0.5547138919951352  0.9751998046934319  0.8057665474246392  1.0000
  C   C3        1.0  0.4691751296806927  0.9098460645781046  0.2158273494552461  1.0000
  C   C4        1.0  0.5308229336818755  0.0901564561516111  0.7841764513747904  1.0000
  C   C5        1.0  0.5485842428210858  0.8951769688738979  0.3173580536086432  1.0000
  C   C6        1.0  0.45140274229702726  0.10482206910652542  0.6826444758927579  1.0000
  C   C7        1.0  0.607690985101314  0.9892304460997821  0.3967168027731772  1.0000
  C   C8        1.0  0.3922790962010936  0.010768569274596003  0.6032876797539188  1.0000
  C   C9        1.0  0.585677259537647  0.10112285819128176  0.3751292319928011  1.0000
  C   C10       1.0  0.4142958390003884  0.8988761396746626  0.6248769881071041  1.0000
  C   C11       1.0  0.5064074154581419  0.12174496436750101  0.2754127408471305  1.0000
  C   C12       1.0  0.49359079355706836  0.8782592847790625  0.7245928751093872  1.0000
  C   C13       1.0  0.4177617958644433  0.7996360677683398  0.13918292654800274  1.0000
  C   C14       1.0  0.5822391280587523  0.20036386660817126  0.8608175872298887  1.0000
  C   C15       1.0  0.4983161998602553  0.24750614886587394  0.2651212835963435  1.0000
  C   C16       1.0  0.5016876162472386  0.7524920475121918  0.7348783853161293  1.0000
  C   C17       1.0  0.073942676063659  0.0881301691842609  0.8405260167583606  1.0000
  C   C18       1.0  0.9260586421713982  0.9118732616600768  0.15947429071378147  1.0000
  C   C19       1.0  0.017150713358738277  0.9914519460442505  0.7584778969538348  1.0000
  C   C20       1.0  0.9828455721254771  0.0085488074618709  0.24152782383377058  1.0000
  C   C21       1.0  0.947635261718986  0.013117526411726  0.657914132736387  1.0000
  C   C22       1.0  0.052349323150991736  0.9868744877531203  0.3420917771488163  1.0000
  C   C23       1.0  0.9300071127263223  0.12561553050589677  0.6361313429611003  1.0000
  C   C24       1.0  0.06998196492997978  0.8743739361124981  0.36386754478790106  1.0000
  C   C25       1.0  0.9753344223611434  0.2193237617315731  0.7176842633096427  1.0000
  C   C26       1.0  0.024659947727606393  0.7806709907039604  0.2823103991901377  1.0000
  C   C27       1.0  0.04511906961286631  0.20359448379875297  0.8205648313937745  1.0000
  C   C28       1.0  0.9548839014492286  0.7964089937791671  0.179430973682571  1.0000
  C   C29       1.0  0.02112567556868329  0.8651107902622499  0.770311459100121  1.0000
  C   C30       1.0  0.9788700081470693  0.13488471457871046  0.22969495480197114  1.0000
  C   C31       1.0  0.0793303769841458  0.31181102600027805  0.9012801335263774  1.0000
  C   C32       1.0  0.9206705153153578  0.6881880600214672  0.09871793806478021  1.0000
  O   O1        1.0  0.36630924186943753  0.041144213914684306  0.09783510254613499  1.0000
  O   O2        1.0  0.6336972273420756  0.9588496439128491  0.9021617661229371  1.0000
  O   O3        1.0  0.9179537939791443  0.5653688715832672  0.7374005250813909  1.0000
  O   O4        1.0  0.08205953952999319  0.4346319600167092  0.2625978714983219  1.0000
  O   O5        1.0  0.3431325321592595  0.7988098795046384  0.04083893626012276  1.0000
  O   O6        1.0  0.6568742173351653  0.2011865947286395  0.9591583531634456  1.0000
  O   O7        1.0  0.32912042572407063  0.5645097238592032  0.9528826169326194  1.0000
  O   O8        1.0  0.6708937059877587  0.43549726817532536  0.047111390225389016  1.0000
  O   O9        1.0  0.4512639368029028  0.7047879551463938  0.17012702738818325  1.0000
  O   O10       1.0  0.548737018743971  0.2952128275848835  0.829875928576442  1.0000
  O   O11       1.0  0.3465939561739971  0.4782057075091046  0.7070977068248823  1.0000
  O   O12       1.0  0.6534439780280791  0.5217943259125449  0.2928937326687446  1.0000
  O   O13       1.0  0.4199375565404963  0.2806767673507196  0.1781373745994799  1.0000
  O   O14       1.0  0.5800767772456296  0.7193196789651352  0.8218627241326288  1.0000
  O   O15       1.0  0.5719818066938984  0.3222272084877034  0.3427677952875925  1.0000
  O   O16       1.0  0.42803967022935296  0.6777771550773082  0.6572270658009742  1.0000
  O   O17       1.0  0.1502956661571702  0.0708428276724646  0.9370381957785412  1.0000
  O   O18       1.0  0.8497244203738744  0.9291492942917331  0.06295777103600392  1.0000
  O   O19       1.0  0.09239227551241673  0.8331174262090714  0.8590878975779931  1.0000
  O   O20       1.0  0.9076153616734642  0.1668754556070482  0.14091890736689547  1.0000
  O   O21       1.0  0.9486566848020744  0.7890179815900851  0.6938112542757154  1.0000
  O   O22       1.0  0.0513313432390774  0.2109783598889194  0.3061986290632889  1.0000
  O   O23       1.0  0.18319940045262226  0.31448254617168914  0.9934847235950457  1.0000
  O   O24       1.0  0.8168017611074276  0.6855183158278707  0.00651055925213481  1.0000
  O   O25       1.0  0.006473001400856017  0.40458159273577377  0.8785185154178734  1.0000
  O   O26       1.0  0.9935435869807706  0.5954201489788247  0.12147638780394492  1.0000
