data_image0
_chemical_formula_structural       Cd2H40C36N8O10
_chemical_formula_sum              "Cd2 H40 C36 N8 O10"
_cell_length_a       9.344105193740209
_cell_length_b       11.43688488215101
_cell_length_c       11.436899394477427
_cell_angle_alpha    85.53068304411771
_cell_angle_beta     68.59682727023628
_cell_angle_gamma    68.59694902824539

_space_group_name_H-M_alt    "P 1"
_space_group_IT_number       1

loop_
  _space_group_symop_operation_xyz
  'x, y, z'

loop_
  _atom_site_type_symbol
  _atom_site_label
  _atom_site_symmetry_multiplicity
  _atom_site_fract_x
  _atom_site_fract_y
  _atom_site_fract_z
  _atom_site_occupancy
  Cd  Cd1       1.0  0.7612020729752729  0.6658248222095368  0.4198917758312107  1.0000
  Cd  Cd2       1.0  0.2612020028803101  0.4198900864345489  0.6658249855072924  1.0000
  H   H1        1.0  0.40753296870146727  0.6840489351312514  0.6255294839116415  1.0000
  H   H2        1.0  0.907535715696127  0.6255298016392247  0.6840496100826459  1.0000
  H   H3        1.0  0.1903339426660153  0.8096302015704071  0.820916520810229  1.0000
  H   H4        1.0  0.6903365513232061  0.8209178169121788  0.8096294162829166  1.0000
  H   H5        1.0  0.4465169531376247  0.07000413596908571  0.7503735732171394  1.0000
  H   H6        1.0  0.9465201388282904  0.7503732778790991  0.0700022586654471  1.0000
  H   H7        1.0  0.6589189540117105  0.9300241538136904  0.560460638247683  1.0000
  H   H8        1.0  0.15891776093259583  0.560461003770378  0.9300246025375641  1.0000
  H   H9        1.0  0.46432055380135034  0.7897029763653549  0.14121404588592404  1.0000
  H   H10       1.0  0.9643218600266649  0.14121227819754986  0.7897018533704384  1.0000
  H   H11       1.0  0.5678661126140482  0.627037936838626  0.1037603736529108  1.0000
  H   H12       1.0  0.06786736641694799  0.10376142537472084  0.6270325870737351  1.0000
  H   H13       1.0  0.3269222858731807  0.5902089666909092  0.27591817709424055  1.0000
  H   H14       1.0  0.8269242936328495  0.27591695663439003  0.5902054946364005  1.0000
  H   H15       1.0  0.15214173103723988  0.8746074744715386  0.26826722064581077  1.0000
  H   H16       1.0  0.6521461994828074  0.26826431138028545  0.8746049930215134  1.0000
  H   H17       1.0  0.2150864181890667  0.800243613531727  0.3938483106118297  1.0000
  H   H18       1.0  0.7150855128522692  0.3938473393602564  0.8002424623436751  1.0000
  H   H19       1.0  0.17275073228812227  0.12707319058061733  0.9181044425062268  1.0000
  H   H20       1.0  0.6727533085846457  0.9181029220520148  0.1270725302863056  1.0000
  H   H21       1.0  0.8637948964419517  0.9482672532018274  0.17321266704879443  1.0000
  H   H22       1.0  0.363793674956689  0.1732122344433052  0.9482669784716506  1.0000
  H   H23       1.0  0.592436893182416  0.4120885471310134  0.4413239304412642  1.0000
  H   H24       1.0  0.09243456544991349  0.4413249849969745  0.4120881741441806  1.0000
  H   H25       1.0  0.8247791032742383  0.2783873319802979  0.2566177035673434  1.0000
  H   H26       1.0  0.3247793007318975  0.25661625512456965  0.27838660995380576  1.0000
  H   H27       1.0  0.594645805950151  0.0002966098155852008  0.34351475112229923  1.0000
  H   H28       1.0  0.09464368246744213  0.34351411978105534  0.00029856227466498395  1.0000
  H   H29       1.0  0.36974673766351873  0.14680110011991596  0.5241452861588343  1.0000
  H   H30       1.0  0.8697468129214059  0.5241451152548395  0.14680317839506069  1.0000
  H   H31       1.0  0.24786393487565317  0.7470388468103409  0.060874827025422476  1.0000
  H   H32       1.0  0.7478632402632142  0.06087316185759311  0.7470367091789285  1.0000
  H   H33       1.0  0.15668038997732484  0.6385849270111593  0.14305918860811315  1.0000
  H   H34       1.0  0.6566800937531384  0.14305729204394174  0.6385848097550593  1.0000
  H   H35       1.0  0.3693413705639728  0.5833130254017435  0.046724883096537426  1.0000
  H   H36       1.0  0.8693450230313361  0.046723686993232115  0.5833095695049336  1.0000
  H   H37       1.0  0.8599954925093058  0.467049715640698  0.5901000107751813  1.0000
  H   H38       1.0  0.3599957277261439  0.5901008086270211  0.46705014548377477  1.0000
  H   H39       1.0  0.6663130061695239  0.5018790089799909  0.6183463500504585  1.0000
  H   H40       1.0  0.16631319880460183  0.6183465025245172  0.5018795462903113  1.0000
  C   C1        1.0  0.413239297578805  0.7691857339259517  0.65696306613102  1.0000
  C   C2        1.0  0.9132423665455606  0.6569621248754346  0.7691861126439647  1.0000
  C   C3        1.0  0.2926360647064996  0.8389837012640485  0.7657166157515078  1.0000
  C   C4        1.0  0.7926374448126194  0.7657154794774289  0.8389843685693775  1.0000
  C   C5        1.0  0.30229559863878536  0.9494776162165055  0.8021259732797077  1.0000
  C   C6        1.0  0.802296836524867  0.8021266583939453  0.9494769202872816  1.0000
  C   C7        1.0  0.4351887565653813  0.984271192299289  0.7266473630792446  1.0000
  C   C8        1.0  0.9351866353340625  0.7266479922571707  0.9842706056624377  1.0000
  C   C9        1.0  0.5524953395524006  0.9074889922820265  0.6208215007982716  1.0000
  C   C10       1.0  0.05249616894271717  0.6208223207388175  0.9074892002406542  1.0000
  C   C11       1.0  0.5579853631256596  0.6847124579078142  0.2778712876509886  1.0000
  C   C12       1.0  0.05798598397265657  0.27787029646611944  0.6847102497975895  1.0000
  C   C13       1.0  0.47684331420358467  0.6975034678696945  0.18130561030601908  1.0000
  C   C14       1.0  0.9768453669688881  0.1813037114950404  0.6975001403839585  1.0000
  C   C15       1.0  0.3128009052477977  0.6773161231247969  0.2253702951235894  1.0000
  C   C16       1.0  0.8128025654604583  0.2253695306397745  0.6773130256234905  1.0000
  C   C17       1.0  0.17501680838964961  0.7874147548067684  0.31799872496527837  1.0000
  C   C18       1.0  0.6750192517804763  0.31799663731432304  0.7874125035762701  1.0000
  C   C19       1.0  0.017233617222657913  0.7598790082786879  0.3750867511287836  1.0000
  C   C20       1.0  0.5172331533637831  0.3750866193444511  0.7598776529057716  1.0000
  C   C21       1.0  0.17810969827237946  0.030301915466928602  0.912629620016311  1.0000
  C   C22       1.0  0.6781114541769425  0.9126288749373049  0.030302154400928302  1.0000
  C   C23       1.0  0.8584219319932913  0.04498262318996641  0.178590612132723  1.0000
  C   C24       1.0  0.3584218688693709  0.17858996214932432  0.04498260554336048  1.0000
  C   C25       1.0  0.596831502551204  0.32069139152991977  0.41627053816331727  1.0000
  C   C26       1.0  0.09682721807774182  0.4162693609463447  0.3206935113767031  1.0000
  C   C27       1.0  0.7256266538930305  0.24642408975000765  0.3136333018968358  1.0000
  C   C28       1.0  0.22562672750954957  0.31363223807773727  0.2464249148084576  1.0000
  C   C29       1.0  0.72770541479494  0.12860224030685435  0.2847364258283562  1.0000
  C   C30       1.0  0.22770514895471186  0.28473574859231837  0.128603076901733  1.0000
  C   C31       1.0  0.597596306521936  0.09138657566563782  0.3616422213279479  1.0000
  C   C32       1.0  0.09759748409934588  0.3616383329404942  0.09138720280923712  1.0000
  C   C33       1.0  0.4724224939409254  0.17241891119184777  0.4617592656357843  1.0000
  C   C34       1.0  0.9724225005946463  0.4617570173531862  0.17241842812519093  1.0000
  C   C35       1.0  0.2692375996154508  0.6607695539541043  0.11248321831453013  1.0000
  C   C36       1.0  0.7692390385239135  0.11248147981265792  0.6607663840660863  1.0000
  N   N1        1.0  0.5414035700815346  0.8026262517754365  0.5855754665270468  1.0000
  N   N2        1.0  0.041407506481412774  0.5855754737515114  0.8026246450579606  1.0000
  N   N3        1.0  0.07513910664577139  0.9903140961433297  0.9994143750266956  1.0000
  N   N4        1.0  0.5751374749809272  0.9994138547157194  0.9903164940152677  1.0000
  N   N5        1.0  0.9651337905710232  0.08369675917259663  0.0942292866378694  1.0000
  N   N6        1.0  0.4651331804191939  0.09422944071290124  0.08369741390082915  1.0000
  N   N7        1.0  0.4715474139304091  0.284877850999095  0.4894630149104557  1.0000
  N   N8        1.0  0.9715476004552809  0.4894635790454916  0.2848763495754342  1.0000
  O   O1        1.0  0.6608207945142935  0.7398418147913618  0.2572073114189949  1.0000
  O   O2        1.0  0.16082184253212256  0.2572084185518052  0.7398409024451169  1.0000
  O   O3        1.0  0.7593158448612981  0.5347355684676458  0.5848272063151753  1.0000
  O   O4        1.0  0.25931685349389966  0.584828446643833  0.534736929451988  1.0000
  O   O5        1.0  0.5311700461254601  0.6158732279861638  0.3704998249515655  1.0000
  O   O6        1.0  0.03116802966085423  0.37049978677018214  0.6158733329439129  1.0000
  O   O7        1.0  0.8977513793577359  0.8149323748400549  0.33791779307934167  1.0000
  O   O8        1.0  0.39775129932612413  0.33791680912405303  0.8149293015053231  1.0000
  O   O9        1.0  0.012220258735922569  0.6751861789300052  0.45525255224321637  1.0000
  O   O10       1.0  0.5122212814929769  0.45525215018950166  0.67518629041259  1.0000
