data_image0
_chemical_formula_structural       Zn2H18C32N6O16
_chemical_formula_sum              "Zn2 H18 C32 N6 O16"
_cell_length_a       9.772270381958863
_cell_length_b       11.038636946098764
_cell_length_c       17.21818972629699
_cell_angle_alpha    93.67379396831313
_cell_angle_beta     98.90500946528084
_cell_angle_gamma    86.53710388428514

_space_group_name_H-M_alt    "P 1"
_space_group_IT_number       1

loop_
  _space_group_symop_operation_xyz
  'x, y, z'

loop_
  _atom_site_type_symbol
  _atom_site_label
  _atom_site_symmetry_multiplicity
  _atom_site_fract_x
  _atom_site_fract_y
  _atom_site_fract_z
  _atom_site_occupancy
  Zn  Zn1       1.0  0.635469307762719  0.48935886742210505  0.5041199912823018  1.0000
  Zn  Zn2       1.0  0.34417740870320296  0.5082692526481195  0.49456891095363886  1.0000
  H   H1        1.0  0.6299511889773655  0.31455914782285527  0.26541814243666556  1.0000
  H   H2        1.0  0.2339575048224916  0.5117420638363794  0.2330775197615509  1.0000
  H   H3        1.0  0.3247285262367114  0.4020089537103502  0.9705356538889305  1.0000
  H   H4        1.0  0.7157043438849727  0.3010358263748572  0.8729149407868917  1.0000
  H   H5        1.0  0.7127967385068317  0.3600940411658086  0.7364413303532942  1.0000
  H   H6        1.0  0.6430621688941898  0.3718973328114145  0.009182349462115293  1.0000
  H   H7        1.0  0.36966698565491646  0.5575150862882481  0.8957010449111564  1.0000
  H   H8        1.0  0.2866025133684004  0.12221435829690108  0.4371620295027511  1.0000
  H   H9        1.0  0.28190939340601057  0.8968609749398623  0.4301910223886409  1.0000
  H   H10       1.0  0.7456967302486106  0.8755701913590738  0.6366990516401287  1.0000
  H   H11       1.0  0.8271787997978064  0.8648953330855917  0.5498728270329423  1.0000
  H   H12       1.0  0.8306960465623235  0.09397408252360857  0.5558272045060733  1.0000
  H   H13       1.0  0.0763002845014213  0.5603375348547813  0.3825902583263812  1.0000
  H   H14       1.0  0.8201533044590193  0.5484791389190418  0.3840391933580776  1.0000
  H   H15       1.0  0.9162946852615761  0.4904941847536293  0.6847061956444662  1.0000
  H   H16       1.0  0.9232120904454105  0.334837494807573  0.6490373835651652  1.0000
  H   H17       1.0  0.17175042736914045  0.49906244502415104  0.6842708443166217  1.0000
  H   H18       1.0  0.181190192293343  0.34431394012985805  0.6468033987407935  1.0000
  C   C1        1.0  0.4947613745056145  0.26414798111226645  0.5059113832673674  1.0000
  C   C2        1.0  0.5323434350378378  0.5135864459121393  0.6528226053302149  1.0000
  C   C3        1.0  0.48336680664285575  0.7321435483311518  0.4900218154833312  1.0000
  C   C4        1.0  0.4511419977116162  0.4552141546825154  0.3459813989986529  1.0000
  C   C5        1.0  0.5434027078535095  0.4930247587768619  0.738968302307576  1.0000
  C   C6        1.0  0.4489495875614722  0.546955753838752  0.7860388704429155  1.0000
  C   C7        1.0  0.4435987714313755  0.5111025216442682  0.8611824493656499  1.0000
  C   C8        1.0  0.5399278484697874  0.4210560330528068  0.8936874610993257  1.0000
  C   C9        1.0  0.6396992018989207  0.3704284614026675  0.8486499837036092  1.0000
  C   C10       1.0  0.6394124773426954  0.40446360899107225  0.7720905329434018  1.0000
  C   C11       1.0  0.5276582369570875  0.3290525387109753  0.1462765003470992  1.0000
  C   C12       1.0  0.5404533623899184  0.3523262681224536  0.22713764618488597  1.0000
  C   C13       1.0  0.31928292936598973  0.462584261419316  0.20908514936736108  1.0000
  C   C14       1.0  0.31482233439439256  0.4457623405315514  0.128030782548997  1.0000
  C   C15       1.0  0.4212980870468713  0.38309485496623796  0.091960837629756  1.0000
  C   C16       1.0  0.5405869125964387  0.38819757365449437  0.9747253977141952  1.0000
  C   C17       1.0  0.42415327013647197  0.3862331581141092  0.007765284945563209  1.0000
  C   C18       1.0  0.4366493990020217  0.4222680881169509  0.2592910780900581  1.0000
  C   C19       1.0  0.6044095335210571  0.0544716647545656  0.533731204563729  1.0000
  C   C20       1.0  0.4928980505216032  0.1289834581726552  0.5014828792063142  1.0000
  C   C21       1.0  0.37663192105326715  0.06776956334372389  0.4634689271781767  1.0000
  C   C22       1.0  0.3744595432470064  0.9410138253626528  0.45931972157497813  1.0000
  C   C23       1.0  0.4884702325364856  0.8670563199615697  0.4922437362220506  1.0000
  C   C24       1.0  0.603150863447638  0.9283087683179969  0.5296319442256063  1.0000
  C   C25       1.0  0.7452801890648929  0.912320518845142  0.5788762817469717  1.0000
  C   C26       1.0  0.7477031467318439  0.05610536571077771  0.5811418726814424  1.0000
  C   C27       1.0  0.08241357670180352  0.47233824723979007  0.5590348998779575  1.0000
  C   C28       1.0  0.037438652866846715  0.5333128789354903  0.4345676931332321  1.0000
  C   C29       1.0  0.8957009805075133  0.5266298203643203  0.4353068187489413  1.0000
  C   C30       1.0  0.9401339865614348  0.4662222527478193  0.5598082090554115  1.0000
  C   C31       1.0  0.9592976862295474  0.4254408406258605  0.6428041719717683  1.0000
  C   C32       1.0  0.12098518093743849  0.4313787611497659  0.6419251849375696  1.0000
  N   N1        1.0  0.13474127391388183  0.5056176126574313  0.49737476114557205  1.0000
  N   N2        1.0  0.843991181494829  0.49209164699499297  0.4990691214369107  1.0000
  N   N3        1.0  0.3570960767867817  0.6511733939512465  0.7581892644730317  1.0000
  N   N4        1.0  0.19177582000450852  0.5035315535365041  0.0805404149447568  1.0000
  N   N5        1.0  0.7545924910873225  0.11440794647706551  0.6635757947865811  1.0000
  N   N6        1.0  0.6302823384548333  0.23847734282764319  0.1188587045046816  1.0000
  O   O1        1.0  0.6132147068054438  0.30985547664937485  0.5240011636280498  1.0000
  O   O2        1.0  0.3786054901616963  0.3227314257349291  0.49054317725550317  1.0000
  O   O3        1.0  0.6439299080208299  0.521559730261707  0.6248887610530929  1.0000
  O   O4        1.0  0.4100004949985419  0.5125870541462162  0.614520746228223  1.0000
  O   O5        1.0  0.5983899132055726  0.6713491109279559  0.48902707070993046  1.0000
  O   O6        1.0  0.3655575804933022  0.6891796733949603  0.4901129408481708  1.0000
  O   O7        1.0  0.5729207338637964  0.4435617569528105  0.3846324996072426  1.0000
  O   O8        1.0  0.3414815609226167  0.49318955125173847  0.3729012770742202  1.0000
  O   O9        1.0  0.2360743657096549  0.6554510438854634  0.772819784350247  1.0000
  O   O10       1.0  0.40716196226295404  0.7284993454121463  0.7236137824519702  1.0000
  O   O11       1.0  0.2090548104028684  0.5611244213061966  0.023604065547260696  1.0000
  O   O12       1.0  0.07870086279488935  0.49169210363272947  0.10252473877878998  1.0000
  O   O13       1.0  0.8635206378171459  0.16371989827909766  0.6921609320107578  1.0000
  O   O14       1.0  0.6536047507484142  0.1077765061354512  0.6978081521294186  1.0000
  O   O15       1.0  0.7538484077747115  0.24994760874609762  0.1470221071870554  1.0000
  O   O16       1.0  0.5845539018793673  0.15535604918360238  0.0723233255410918  1.0000
