data_image0
_chemical_formula_structural       CuH18PtC18N6O2
_chemical_formula_sum              "Cu1 H18 Pt1 C18 N6 O2"
_cell_length_a       8.162914572591886
_cell_length_b       8.318450585658288
_cell_length_c       8.928983162556856
_cell_angle_alpha    116.29879911703624
_cell_angle_beta     107.64262044747252
_cell_angle_gamma    95.87909136506333

_space_group_name_H-M_alt    "P 1"
_space_group_IT_number       1

loop_
  _space_group_symop_operation_xyz
  'x, y, z'

loop_
  _atom_site_type_symbol
  _atom_site_label
  _atom_site_symmetry_multiplicity
  _atom_site_fract_x
  _atom_site_fract_y
  _atom_site_fract_z
  _atom_site_occupancy
  Cu  Cu1       1.0  0.4999987269005004  0.9999995591589225  0.4999987312596303  1.0000
  H   H1        1.0  0.20310987684660375  0.6677129798068576  0.3992163132631816  1.0000
  H   H2        1.0  0.7968907286342957  0.33228899431397  0.6007865798194632  1.0000
  H   H3        1.0  0.1352873281802403  0.7700678184480412  0.658471172121189  1.0000
  H   H4        1.0  0.8647125341927905  0.2299313787924433  0.34152811759603463  1.0000
  H   H5        1.0  0.05953773697660121  0.8949545446241557  0.5455714855327186  1.0000
  H   H6        1.0  0.9404624943471164  0.1050460339425641  0.454430722143215  1.0000
  H   H7        1.0  0.24850469820727744  0.08281689451956713  0.893020011210041  1.0000
  H   H8        1.0  0.7514968176255294  0.9171836802737304  0.10698255142131058  1.0000
  H   H9        1.0  0.4349045800742458  0.025232781680600197  0.839714497286849  1.0000
  H   H10       1.0  0.565094366740368  0.9747678006595492  0.16028735543365233  1.0000
  H   H11       1.0  0.20138073308522314  0.36351934865131613  0.9378109096806075  1.0000
  H   H12       1.0  0.7986174732247804  0.6364784639224155  0.06218622339846988  1.0000
  H   H13       1.0  0.24736226738104247  0.6400450950430069  0.8983494306152624  1.0000
  H   H14       1.0  0.7526366846400876  0.35995550152500033  0.10165018955324705  1.0000
  H   H15       1.0  0.4042679125950244  0.6386915435079742  0.6922865038468943  1.0000
  H   H16       1.0  0.5957348929533879  0.3613090417397657  0.3077141811878903  1.0000
  H   H17       1.0  0.5037481298379092  0.3574379024956684  0.5384742829932138  1.0000
  H   H18       1.0  0.4962530170442179  0.6425612909713861  0.46152536167942765  1.0000
  Pt  Pt1       1.0  1.2132046904994406e-06  1.6182909944975393e-06  0.9999970039955389  1.0000
  C   C1        1.0  0.07600135152746648  0.2757186624894885  0.1514367726921151  1.0000
  C   C2        1.0  0.9239998005611694  0.7242805452054312  0.8485606394285338  1.0000
  C   C3        1.0  0.20093763385711574  0.9840977786959044  0.17790866854544152  1.0000
  C   C4        1.0  0.7990587517490725  0.015902832532894696  0.8220891254362145  1.0000
  C   C5        1.0  0.18048853668859974  0.8687374947351713  0.6182819582467189  1.0000
  C   C6        1.0  0.8195129765409562  0.1312630729441935  0.38172172066063587  1.0000
  C   C7        1.0  0.304730647833253  0.05001355500592549  0.7888341457229588  1.0000
  C   C8        1.0  0.6952692119365267  0.9499856351206263  0.21116626027026075  1.0000
  C   C9        1.0  0.3307430388182766  0.21561360603120516  0.76251026553026  1.0000
  C   C10       1.0  0.6692564546040742  0.7843842098830365  0.23748610622825328  1.0000
  C   C11       1.0  0.26866579180473593  0.36744508291584305  0.8506429633062924  1.0000
  C   C12       1.0  0.7313331628196452  0.632555520766104  0.14935554058621375  1.0000
  C   C13       1.0  0.2950717650735797  0.5221963758622863  0.8286610589771046  1.0000
  C   C14       1.0  0.7049286334941697  0.47780002649655984  0.17133721488211506  1.0000
  C   C15       1.0  0.3815360598005739  0.5221871029769574  0.7159893392678216  1.0000
  C   C16       1.0  0.6184649224407651  0.4778162738119107  0.2840131229455309  1.0000
  C   C17       1.0  0.43728237283869487  0.3664605927625928  0.6295609224798113  1.0000
  C   C18       1.0  0.5627147083964914  0.6335330260348969  0.37043527065513626  1.0000
  N   N1        1.0  0.11808747815843651  0.43885992498688614  0.23720178371887363  1.0000
  N   N2        1.0  0.8819149955051487  0.5611490197905269  0.762805652673329  1.0000
  N   N3        1.0  0.3211452307225854  0.9762751290779901  0.2838250100014006  1.0000
  N   N4        1.0  0.6788542600965145  0.023722679722318698  0.7161724780331086  1.0000
  N   N5        1.0  0.41380264231025177  0.21778099003145004  0.6528054590568574  1.0000
  N   N6        1.0  0.5861959355536897  0.7822182109824566  0.3471934757049409  1.0000
  O   O1        1.0  0.2763650187882049  0.7934206241262914  0.5063257424455756  1.0000
  O   O2        1.0  0.7236355892959522  0.20658135710846173  0.49367603436106583  1.0000
