data_image0
_chemical_formula_structural       Cd4H48C56Se8N32
_chemical_formula_sum              "Cd4 H48 C56 Se8 N32"
_cell_length_a       12.361688851928577
_cell_length_b       12.726421316196928
_cell_length_c       13.027071468052275
_cell_angle_alpha    63.257698494535546
_cell_angle_beta     87.58406247184305
_cell_angle_gamma    86.04535029624107

_space_group_name_H-M_alt    "P 1"
_space_group_IT_number       1

loop_
  _space_group_symop_operation_xyz
  'x, y, z'

loop_
  _atom_site_type_symbol
  _atom_site_label
  _atom_site_symmetry_multiplicity
  _atom_site_fract_x
  _atom_site_fract_y
  _atom_site_fract_z
  _atom_site_occupancy
  Cd  Cd1       1.0  0.9999975902536776  0.4999966138940978  0.4999978168927228  1.0000
  Cd  Cd2       1.0  0.2524889974957318  0.2542303954470455  0.2545328998279571  1.0000
  Cd  Cd3       1.0  0.7475112720746394  0.7457671320145921  0.7454691172257314  1.0000
  Cd  Cd4       1.0  0.49999977347668073  5.315145940969992e-07  0.9999992513613591  1.0000
  H   H1        1.0  0.9020275770868978  0.9062641169880974  0.13864564226037845  1.0000
  H   H2        1.0  0.097973504588694  0.0937334199408468  0.8613571029536403  1.0000
  H   H3        1.0  0.09077812087664233  0.9681572063294722  0.06712133094124793  1.0000
  H   H4        1.0  0.9092220625028772  0.03184210234734051  0.932881425352484  1.0000
  H   H5        1.0  0.24885375988922928  0.8295730306815727  0.17861491532669752  1.0000
  H   H6        1.0  0.7511463779511728  0.17042715920915444  0.8213874472305918  1.0000
  H   H7        1.0  0.199841569373163  0.6413510693526377  0.3519828660729515  1.0000
  H   H8        1.0  0.8001602284420599  0.35864822068409546  0.6480182931156051  1.0000
  H   H9        1.0  0.16737024281253812  0.8728446755379408  0.6279392196267538  1.0000
  H   H10       1.0  0.8326325443769916  0.1271510803230882  0.372062715954975  1.0000
  H   H11       1.0  0.004954826885907007  0.9456967429795496  0.7077675047753474  1.0000
  H   H12       1.0  0.9950479147645055  0.0542998940953936  0.2922340370699388  1.0000
  H   H13       1.0  0.9343386367348429  0.1575284043398355  0.5882401310887033  1.0000
  H   H14       1.0  0.06567032852269959  0.8424735957570776  0.411764873620619  1.0000
  H   H15       1.0  0.03713981288984059  0.27878908532676416  0.40742508753409357  1.0000
  H   H16       1.0  0.9628660381204528  0.7212102238654908  0.5925774223867533  1.0000
  H   H17       1.0  0.3273061273305444  0.6425757900041233  0.8812509673771843  1.0000
  H   H18       1.0  0.672694137352444  0.35742171867015327  0.11874952296358289  1.0000
  H   H19       1.0  0.46984366161826324  0.5671826543538216  0.7826474608538092  1.0000
  H   H20       1.0  0.5301557885158062  0.43281483545946736  0.21735153797017398  1.0000
  H   H21       1.0  0.5380751215842139  0.35147585576966384  0.892566252426434  1.0000
  H   H22       1.0  0.4619251959689591  0.6485207998717328  0.10743692172015071  1.0000
  H   H23       1.0  0.4494373048004904  0.23128022567637885  0.08264987730326817  1.0000
  H   H24       1.0  0.5505620689174934  0.7687190829268005  0.917352914186587  1.0000
  H   H25       1.0  0.31617406201172565  0.965261398491727  0.35121144789844283  1.0000
  H   H26       1.0  0.6838308393850028  0.034739485181191306  0.6487750426165064  1.0000
  H   H27       1.0  0.4819145061721953  0.8249901991630822  0.41983175384103066  1.0000
  H   H28       1.0  0.5180905733845975  0.1750082005605904  0.5801688949430073  1.0000
  H   H29       1.0  0.6615390754340353  0.9141738899493819  0.40925016551121707  1.0000
  H   H30       1.0  0.3384642604007908  0.08582720023714778  0.5907531892380504  1.0000
  H   H31       1.0  0.659121971447611  0.13639398241720366  0.3308460952227037  1.0000
  H   H32       1.0  0.3408789907164688  0.8636062639092187  0.6691608122772054  1.0000
  H   H33       1.0  0.8502612025493407  0.3675857090941577  0.14656583894802822  1.0000
  H   H34       1.0  0.14973821182037741  0.6324126995077535  0.8534358195653482  1.0000
  H   H35       1.0  0.8411644625986697  0.5892651872660934  0.07897535713905768  1.0000
  H   H36       1.0  0.1588357614325844  0.41073322140945123  0.9210262661781954  1.0000
  H   H37       1.0  0.0151592275886188  0.6802836192173417  0.08422517093539018  1.0000
  H   H38       1.0  0.9848418036604867  0.3197147801381632  0.9157756538292787  1.0000
  H   H39       1.0  0.18109943355605648  0.5416252094209497  0.16328693169462832  1.0000
  H   H40       1.0  0.8189008335706232  0.4583723086470074  0.8367143220025994  1.0000
  H   H41       1.0  0.4189564355386608  0.6046390159423966  0.3693093947248443  1.0000
  H   H42       1.0  0.5810433933026999  0.39536738002043836  0.6306932651032184  1.0000
  H   H43       1.0  0.6111704441642161  0.5300954580263664  0.43358914119788483  1.0000
  H   H44       1.0  0.388829336694343  0.4699118097567025  0.5664123615372814  1.0000
  H   H45       1.0  0.7623601367489313  0.6646977119758262  0.321213825062344  1.0000
  H   H46       1.0  0.23763985469937404  0.335305083981936  0.6787843028598103  1.0000
  H   H47       1.0  0.7049078013197345  0.8560459384344127  0.15075247653065563  1.0000
  H   H48       1.0  0.2950922738757313  0.14395506691449358  0.8492441487950019  1.0000
  C   C1        1.0  0.815074396333941  0.37963814403792634  0.4114982704955779  1.0000
  C   C2        1.0  0.18490104824835638  0.6203689430562849  0.5884897843506777  1.0000
  C   C3        1.0  0.24253219821495262  0.3939112498201355  0.4249924545328483  1.0000
  C   C4        1.0  0.7574672543628153  0.6060862493868342  0.5750073076475887  1.0000
  C   C5        1.0  0.2609908598807351  0.09165521764380462  0.0964939362642738  1.0000
  C   C6        1.0  0.7390092706285998  0.9083449440658952  0.9035061362236477  1.0000
  C   C7        1.0  0.6892087079427968  0.1293579342262134  0.07771612828880589  1.0000
  C   C8        1.0  0.3107922346717729  0.8706422369507933  0.9222846723594458  1.0000
  C   C9        1.0  0.9732215481114678  0.849459979723676  0.18048658879572332  1.0000
  C   C10       1.0  0.026778632824360205  0.1505393195594635  0.8195154041415478  1.0000
  C   C11       1.0  0.07814245754272518  0.8844220991394066  0.1416621965336801  1.0000
  C   C12       1.0  0.9218577258367943  0.11557720953740609  0.8583405597600446  1.0000
  C   C13       1.0  0.1643556432290225  0.8094081291300199  0.20241127053477453  1.0000
  C   C14       1.0  0.8356453498120401  0.19059117962043357  0.7975914505628269  1.0000
  C   C15       1.0  0.13812661683137148  0.705263342898924  0.29762859848436557  1.0000
  C   C16       1.0  0.861875228966653  0.2947350753175683  0.7023737177970945  1.0000
  C   C17       1.0  0.1345584378581535  0.9638983432802849  0.5841148468559749  1.0000
  C   C18       1.0  0.8654434079398639  0.0361000749362077  0.4158874694254777  1.0000
  C   C19       1.0  0.04441330117349909  0.004205474524724199  0.627759860600058  1.0000
  C   C20       1.0  0.9555877805020998  0.9957920624042205  0.37224288461396066  1.0000
  C   C21       1.0  0.006269868724771802  0.11957127024410853  0.5634393422915451  1.0000
  C   C22       1.0  0.9937383706183952  0.8804289391703083  0.43656419501740346  1.0000
  C   C23       1.0  0.062472277895658096  0.18727000217513282  0.461910526547328  1.0000
  C   C24       1.0  0.9375352404205157  0.8127284353441412  0.5380930700741614  1.0000
  C   C25       1.0  0.3578673183538045  0.5504376420851216  0.9205880073547091  1.0000
  C   C26       1.0  0.6421329487728756  0.44955987598283564  0.07941324634251846  1.0000
  C   C27       1.0  0.4376354478961203  0.5084594226129155  0.8667064464124151  1.0000
  C   C28       1.0  0.5623623878022599  0.49153808584046055  0.13329414951673596  1.0000
  C   C29       1.0  0.47384163557869385  0.39141597270979395  0.925556424508656  1.0000
  C   C30       1.0  0.52615782188645  0.6085815452845296  0.07444486438470219  1.0000
  C   C31       1.0  0.4252312103586533  0.32404114001703743  0.03210254008896374  1.0000
  C   C32       1.0  0.5747698257778282  0.6759572781258214  0.9678998113886196  1.0000
  C   C33       1.0  0.39656566718709024  0.9964485808610489  0.3484570864779784  1.0000
  C   C34       1.0  0.6034385254010886  0.0035505778851075  0.6515332801318011  1.0000
  C   C35       1.0  0.4886681725780874  0.919640767507808  0.38626028620720376  1.0000
  C   C36       1.0  0.5113358500720792  0.08036196306238709  0.6137323222391159  1.0000
  C   C37       1.0  0.586507896799688  0.9684092830981401  0.3805693176997023  1.0000
  C   C38       1.0  0.4134954243729966  0.031591750726327895  0.6194294569108223  1.0000
  C   C39       1.0  0.5855148716706751  0.09098279391012912  0.3381086884490472  1.0000
  C   C40       1.0  0.4144875032231283  0.9090208834824482  0.6618889401482942  1.0000
  C   C41       1.0  0.9204711439769184  0.4138746107345313  0.1486618629620935  1.0000
  C   C42       1.0  0.07952898897610791  0.5861255603688492  0.8513389728822816  1.0000
  C   C43       1.0  0.9159911840536097  0.5357277011280319  0.11160079885227242  1.0000
  C   C44       1.0  0.0840089968822184  0.4642715981551079  0.8884011940849987  1.0000
  C   C45       1.0  0.0107233182794957  0.585688923218413  0.11516210904428438  1.0000
  C   C46       1.0  0.9892760960902222  0.41430948538349816  0.8848395494690919  1.0000
  C   C47       1.0  0.10275833502463878  0.5100879725091545  0.15829904981231382  1.0000
  C   C48       1.0  0.8972419321020411  0.4899095455588025  0.841702203884914  1.0000
  C   C49       1.0  0.4879604222888218  0.6562631020156219  0.32451577949035476  1.0000
  C   C50       1.0  0.5120386781944717  0.3437414938710432  0.6754846495808806  1.0000
  C   C51       1.0  0.5943676363287266  0.6159021168810244  0.36096796933179576  1.0000
  C   C52       1.0  0.405632230720677  0.38410336968686926  0.6390327941633345  1.0000
  C   C53       1.0  0.6769618324586802  0.6876755580624732  0.2991140180650546  1.0000
  C   C54       1.0  0.32303807279877356  0.31232901911047156  0.700884849097136  1.0000
  C   C55       1.0  0.6461052814732965  0.7937399536590631  0.20495576304647045  1.0000
  C   C56       1.0  0.3538947099750017  0.20626284229870612  0.7950423648756839  1.0000
  Se  Se1       1.0  0.6936996008365242  0.30637944298715064  0.4235295068307892  1.0000
  Se  Se2       1.0  0.30625239274385047  0.6936733431983202  0.5764290651860832  1.0000
  Se  Se3       1.0  0.3662152987564298  0.351166665991741  0.3724143563866066  1.0000
  Se  Se4       1.0  0.6337849179437571  0.6488317145027765  0.6275849768612713  1.0000
  Se  Se5       1.0  0.1425356470083088  0.1656147093693363  0.1253154233773373  1.0000
  Se  Se6       1.0  0.8574644859447176  0.834385461734037  0.8746854124670378  1.0000
  Se  Se7       1.0  0.8206849156494939  0.1613175429177502  0.10439173748549989  1.0000
  Se  Se8       1.0  0.17931355977240318  0.8386835374333048  0.8956110650840684  1.0000
  N   N1        1.0  0.8962433244137104  0.4276561290332097  0.40312512169438  1.0000
  N   N2        1.0  0.1037469305294394  0.572315842194044  0.5968888064617346  1.0000
  N   N3        1.0  0.161433512874197  0.4192164859372767  0.4614830895601614  1.0000
  N   N4        1.0  0.8385668453307104  0.5807792697028518  0.5385189516099375  1.0000
  N   N5        1.0  0.33828948501388817  0.04274135683117209  0.07815117541639441  1.0000
  N   N6        1.0  0.6617098285028363  0.9572587766238668  0.9218466421982825  1.0000
  N   N7        1.0  0.6015505900920742  0.10814295321004151  0.06119389423776771  1.0000
  N   N8        1.0  0.39844953797356913  0.8918571991059778  0.938805414893693  1.0000
  N   N9        1.0  0.0355413816036148  0.6760191768979952  0.32915254604543515  1.0000
  N   N10       1.0  0.9644596927409168  0.32397833184991504  0.6708479090992084  1.0000
  N   N11       1.0  0.9520631453085214  0.7473084171696769  0.2711586362771356  1.0000
  N   N12       1.0  0.04793788594058409  0.252689982185828  0.7288421884875335  1.0000
  N   N13       1.0  0.14925091168799298  0.1434470734732827  0.4261189550248616  1.0000
  N   N14       1.0  0.8507542182953002  0.8565504638238296  0.5738836142085262  1.0000
  N   N15       1.0  0.18569288320686891  0.031166394025589704  0.48625761868984096  1.0000
  N   N16       1.0  0.8143122972029173  0.9688302808449623  0.5137468709929037  1.0000
  N   N17       1.0  0.34777115411315407  0.3695630946467859  0.0776789576246911  1.0000
  N   N18       1.0  0.6522290219352983  0.6304361858489997  0.9223215085996657  1.0000
  N   N19       1.0  0.3140932300999069  0.4831785611184571  0.023188772256190742  1.0000
  N   N20       1.0  0.6859070874532662  0.5168180945229394  0.976814401890394  1.0000
  N   N21       1.0  0.40161426580122855  0.11267743734094893  0.3096279906771215  1.0000
  N   N22       1.0  0.5983889447437108  0.887325283761932  0.690363889608868  1.0000
  N   N23       1.0  0.4954895026676808  0.16115356695209473  0.3044285766268402  1.0000
  N   N24       1.0  0.5045113464249696  0.8388483572590673  0.6955706731920798  1.0000
  N   N25       1.0  0.10090743314497529  0.3941024290036311  0.19329576052561484  1.0000
  N   N26       1.0  0.8990920267638601  0.6058950983843729  0.806706291724197  1.0000
  N   N27       1.0  0.010652476977106999  0.3450783645864917  0.18762535705484132  1.0000
  N   N28       1.0  0.9893461277310679  0.6549200439417859  0.8123763366546655  1.0000
  N   N29       1.0  0.5426505283758801  0.8261359237903106  0.1734682552555357  1.0000
  N   N30       1.0  0.4573502751776529  0.1738668816347584  0.8265306008269491  1.0000
  N   N31       1.0  0.46233775775601765  0.7584263986497104  0.23299977452041531  1.0000
  N   N32       1.0  0.5376613378399  0.2415781784496005  0.7669991278379058  1.0000
