data_image0
_chemical_formula_structural       Ag2H20C32N4Cl2O8
_chemical_formula_sum              "Ag2 H20 C32 N4 Cl2 O8"
_cell_length_a       5.363736959028256
_cell_length_b       10.830079377322189
_cell_length_c       13.251739395901314
_cell_angle_alpha    113.51144982154773
_cell_angle_beta     90.00023513549594
_cell_angle_gamma    90.00022051255156

_space_group_name_H-M_alt    "P 1"
_space_group_IT_number       1

loop_
  _space_group_symop_operation_xyz
  'x, y, z'

loop_
  _atom_site_type_symbol
  _atom_site_label
  _atom_site_symmetry_multiplicity
  _atom_site_fract_x
  _atom_site_fract_y
  _atom_site_fract_z
  _atom_site_occupancy
  Ag  Ag1       1.0  0.7972192515512689  0.5257223917144742  0.7174170705871746  1.0000
  Ag  Ag2       1.0  0.20275744318421124  0.0257318126114967  0.21741856904663595  1.0000
  H   H1        1.0  0.0167463261484144  0.8016129472992545  0.8005679535570851  1.0000
  H   H2        1.0  0.9832540553546282  0.30163586637155504  0.3005777727636172  1.0000
  H   H3        1.0  0.23359308596107553  0.9597263056044769  0.974533081796125  1.0000
  H   H4        1.0  0.7664087795865979  0.45974657501403016  0.47454252708764955  1.0000
  H   H5        1.0  0.34294829032600654  0.814184494041456  0.22265346779175849  1.0000
  H   H6        1.0  0.6570493838448782  0.3141799664186209  0.722646223313504  1.0000
  H   H7        1.0  0.3756835679944572  0.7404911025469262  0.37614353150385693  1.0000
  H   H8        1.0  0.6243079234328164  0.2404914043856081  0.8761332245425211  1.0000
  H   H9        1.0  0.0620789552345613  0.5841323178524291  0.3962433324477744  1.0000
  H   H10       1.0  0.9379320555704282  0.08415080412348891  0.8962444318069063  1.0000
  H   H11       1.0  0.727591379406249  0.491972234170369  0.25845641837175753  1.0000
  H   H12       1.0  0.27242863644248416  0.9919924771319091  0.7584649862379323  1.0000
  H   H13       1.0  0.4566544094277419  0.4306794857940801  0.15528709349363373  1.0000
  H   H14       1.0  0.5433415039245303  0.9306853377160778  0.6552870042519318  1.0000
  H   H15       1.0  0.1372844386195808  0.3381859636676552  0.014564159573836786  1.0000
  H   H16       1.0  0.8627090450638165  0.8381946684919585  0.5145601210703887  1.0000
  H   H17       1.0  0.11880641073177861  0.40728210861472297  0.8554508987893004  1.0000
  H   H18       1.0  0.8811712296735834  0.9072909969872074  0.35544817556336755  1.0000
  H   H19       1.0  0.4313949586037538  0.5639541647034536  0.8380838956313712  1.0000
  H   H20       1.0  0.5685909533888989  0.0639696518653565  0.3380847786794377  1.0000
  C   C1        1.0  0.9992128975223479  0.789708748261063  0.878038796809179  1.0000
  C   C2        1.0  0.0007901909779591001  0.2897267625356649  0.3780487429907709  1.0000
  C   C3        1.0  0.12463139120352199  0.8739404318418804  0.9727808397463634  1.0000
  C   C4        1.0  0.875382827880962  0.3739539116210083  0.47278529215232384  1.0000
  C   C5        1.0  0.8264193073795738  0.6723108731013242  0.9741197176912028  1.0000
  C   C6        1.0  0.17357656014447542  0.1723313865887306  0.474129175116211  1.0000
  C   C7        1.0  0.983561999189  0.7448422485470942  0.06507360140491164  1.0000
  C   C8        1.0  0.0164462746955891  0.24485901660577264  0.5650751543357516  1.0000
  C   C9        1.0  0.0035255071707354004  0.7024758919374463  0.15581948498235226  1.0000
  C   C10       1.0  0.9964704791576083  0.20247750971345374  0.6558184059769518  1.0000
  C   C11       1.0  0.20001043329911283  0.7482813588250821  0.23270455280515287  1.0000
  C   C12       1.0  0.7999831144920789  0.2482912690602248  0.7326982497474503  1.0000
  C   C13       1.0  0.2218146093744267  0.7057225228498325  0.3179764416631274  1.0000
  C   C14       1.0  0.7781759051463981  0.20573053013491457  0.8179770603826741  1.0000
  C   C15       1.0  0.046272520352737004  0.6152335578635474  0.3278818966186564  1.0000
  C   C16       1.0  0.9537080792426309  0.11525223284207443  0.8278891147093504  1.0000
  C   C17       1.0  0.8573835936335927  0.5650093611104837  0.25084662269509295  1.0000
  C   C18       1.0  0.142618051552752  0.065022570542169  0.750851010100945  1.0000
  C   C19       1.0  0.8335006116708997  0.6049508591907369  0.16209910062046626  1.0000
  C   C20       1.0  0.1664853604864476  0.10496124367251271  0.6621079202136997  1.0000
  C   C21       1.0  0.6424744754616611  0.5478554463450891  0.07755677508259141  1.0000
  C   C22       1.0  0.3575212111338359  0.0478631041167574  0.577552929647162  1.0000
  C   C23       1.0  0.4584252540228703  0.45932215779661334  0.08555334779315875  1.0000
  C   C24       1.0  0.5415681776817323  0.9593298945043074  0.5855485627198151  1.0000
  C   C25       1.0  0.275511048449637  0.4070933566514656  0.005926326300716871  1.0000
  C   C26       1.0  0.7244866024285912  0.9070987125816999  0.5059248226393366  1.0000
  C   C27       1.0  0.26711211040316835  0.44474743926341637  0.9162520307398697  1.0000
  C   C28       1.0  0.7328740175551332  0.9447567991709533  0.41624547651623817  1.0000
  C   C29       1.0  0.4458758152341887  0.5312618167422726  0.9058455813255081  1.0000
  C   C30       1.0  0.5541293019703347  0.0312762005687972  0.40584383494556425  1.0000
  C   C31       1.0  0.6391148931904738  0.5810912693119903  0.9839391911677355  1.0000
  C   C32       1.0  0.36088783178137623  0.08110212075518321  0.4839390914797549  1.0000
  N   N1        1.0  0.8524230599672366  0.6901554936679944  0.8788550724366361  1.0000
  N   N2        1.0  0.1475811184486275  0.1901738093563949  0.37885927784711987  1.0000
  N   N3        1.0  0.11912964043758481  0.8503286578350426  0.06445949913030806  1.0000
  N   N4        1.0  0.8808719995938931  0.3503431212988204  0.5644668082638591  1.0000
  Cl  Cl1       1.0  0.3392958663037291  0.6488661398056267  0.6190852150696106  1.0000
  Cl  Cl2       1.0  0.6607253548399968  0.14885201825161692  0.11909054596689833  1.0000
  O   O1        1.0  0.46248893859501555  0.7574878080623081  0.7097778432445809  1.0000
  O   O2        1.0  0.5375323701001377  0.2574711604326012  0.20977617567235285  1.0000
  O   O3        1.0  0.3439489963430518  0.5260190634866502  0.6425630197903375  1.0000
  O   O4        1.0  0.656047303931814  0.02600582883692941  0.14256409335376222  1.0000
  O   O5        1.0  0.07896813071690902  0.6849063484676493  0.6111178728564469  1.0000
  O   O6        1.0  0.9210570067917487  0.1848860875976897  0.11112692552438125  1.0000
  O   O7        1.0  0.4678939104148867  0.6219065934880632  0.5157954418328003  1.0000
  O   O8        1.0  0.5321333073044271  0.1218979663072801  0.0157955216751873  1.0000
