data_image0
_chemical_formula_structural       Ni2H28C42N4O14
_chemical_formula_sum              "Ni2 H28 C42 N4 O14"
_cell_length_a       8.97728418180757
_cell_length_b       10.667654077955762
_cell_length_c       11.103869682578171
_cell_angle_alpha    94.24141722003971
_cell_angle_beta     112.90124709572606
_cell_angle_gamma    102.82610103048948

_space_group_name_H-M_alt    "P 1"
_space_group_IT_number       1

loop_
  _space_group_symop_operation_xyz
  'x, y, z'

loop_
  _atom_site_type_symbol
  _atom_site_label
  _atom_site_symmetry_multiplicity
  _atom_site_fract_x
  _atom_site_fract_y
  _atom_site_fract_z
  _atom_site_occupancy
  Ni  Ni1       1.0  0.6395671238360876  0.9834766438951448  0.6611456709009146  1.0000
  Ni  Ni2       1.0  0.36042804390908145  0.016518176688670387  0.3388576265331054  1.0000
  H   H1        1.0  0.9981973223711763  0.2786400030561823  0.6341234280961103  1.0000
  H   H2        1.0  0.0018036635236882848  0.721342714996645  0.3659075443597147  1.0000
  H   H3        1.0  0.4059756747107814  0.6340685151051773  0.6934026374400942  1.0000
  H   H4        1.0  0.5940209696941565  0.36592436714796145  0.30659462626741163  1.0000
  H   H5        1.0  0.36899785463180734  0.22366253789427043  0.624367549224587  1.0000
  H   H6        1.0  0.6310032825544668  0.7763157164283995  0.3756414252497606  1.0000
  H   H7        1.0  0.805466704915631  0.507729840839083  0.644295138971863  1.0000
  H   H8        1.0  0.19453492292911537  0.49226866047052903  0.3557069013463732  1.0000
  H   H9        1.0  0.286529894586252  0.830674091783173  0.5917300493875713  1.0000
  H   H10       1.0  0.7134818438016525  0.16930361019918652  0.4082767442218652  1.0000
  H   H11       1.0  0.08156003773338245  0.835815186820284  0.6915432690109427  1.0000
  H   H12       1.0  0.9184473833231764  0.16417195730642223  0.3084576816413929  1.0000
  H   H13       1.0  0.1582245613672981  0.011587679019804406  0.8848637688397644  1.0000
  H   H14       1.0  0.8417740858821077  0.9884155141756139  0.11511887755431618  1.0000
  H   H15       1.0  0.3792749040358744  0.20987776819767842  0.05230212937348005  1.0000
  H   H16       1.0  0.6207066572964095  0.7901299682364565  0.9476981889829686  1.0000
  H   H17       1.0  0.6685311829125526  0.35872273908719166  0.14186917315507233  1.0000
  H   H18       1.0  0.33144082179442347  0.6413102811544391  0.8581071699275425  1.0000
  H   H19       1.0  0.953746580231048  0.41923794060087244  0.1406195140106945  1.0000
  H   H20       1.0  0.046237431450094894  0.5807807777664423  0.8593781003582492  1.0000
  H   H21       1.0  0.14758105962719983  0.367290663007644  0.041953054071704805  1.0000
  H   H22       1.0  0.8524223417043757  0.6327388180315409  0.9580515757077919  1.0000
  H   H23       1.0  0.037780056113611245  0.17779900958856132  0.8561309607152977  1.0000
  H   H24       1.0  0.9622324203712793  0.8222124677819662  0.14388917823590208  1.0000
  H   H25       1.0  0.8394527370690811  0.8916280842698967  0.6167563321891407  1.0000
  H   H26       1.0  0.16055822083858837  0.10835878257487516  0.383247487094188  1.0000
  H   H27       1.0  0.9032229757487542  0.04997056630831051  0.6205877471643433  1.0000
  H   H28       1.0  0.0967947189887469  0.9500256982865025  0.37942625389833745  1.0000
  C   C1        1.0  0.6180489661437178  0.5869066806660754  0.6748057019034094  1.0000
  C   C2        1.0  0.38194298993310133  0.4130788142676495  0.32517679893489065  1.0000
  C   C3        1.0  0.46156183900301795  0.5561202454633546  0.6806948224182108  1.0000
  C   C4        1.0  0.5384286271657859  0.4438675837672081  0.3192784309062517  1.0000
  C   C5        1.0  0.3712798815512244  0.42641588693759763  0.6639223063285868  1.0000
  C   C6        1.0  0.6287247807965247  0.5735624394850377  0.33607605332938567  1.0000
  C   C7        1.0  0.43874805906541076  0.325464247013791  0.6409047861931327  1.0000
  C   C8        1.0  0.5612512868666786  0.6745182962056689  0.359097735853922  1.0000
  C   C9        1.0  0.5958983591355533  0.3555625543803417  0.6354021364021563  1.0000
  C   C10       1.0  0.4041029248230146  0.6444461088723585  0.36459625836502596  1.0000
  C   C11       1.0  0.6853830893415207  0.4860663840422178  0.6521708185648335  1.0000
  C   C12       1.0  0.3146239917254051  0.5139308055669433  0.34783098101890175  1.0000
  C   C13       1.0  0.7026108324982515  0.7267909481060073  0.6808367702079464  1.0000
  C   C14       1.0  0.29738890982581273  0.27320072966088566  0.31916133666603497  1.0000
  C   C15       1.0  0.20228103150032697  0.4046199755661989  0.6658240875494315  1.0000
  C   C16       1.0  0.79772531630222  0.5953780318094744  0.3341865717247501  1.0000
  C   C17       1.0  0.6699317368808624  0.2487173338800375  0.6105308831799903  1.0000
  C   C18       1.0  0.3300697209690641  0.7512861901707951  0.38947158160394224  1.0000
  C   C19       1.0  0.31887040797759186  0.9029346551093058  0.6787900079710881  1.0000
  C   C20       1.0  0.6811403373952557  0.0970654418198151  0.32120779514033154  1.0000
  C   C21       1.0  0.20295342754302953  0.9088094338003074  0.7334420846983106  1.0000
  C   C22       1.0  0.797052604106483  0.09119097072574078  0.26655429062909525  1.0000
  C   C23       1.0  0.2461341692832804  0.005779365016501001  0.8403684308163191  1.0000
  C   C24       1.0  0.7538691075539747  0.9942121053448293  0.15962984799918448  1.0000
  C   C25       1.0  0.40749864635399996  0.09543631527568407  0.89553439360769  1.0000
  C   C26       1.0  0.5924912914489157  0.9045740674657452  0.1044615582674809  1.0000
  C   C27       1.0  0.46439775022805924  0.19906122849192806  0.006276093816609316  1.0000
  C   C28       1.0  0.5355975966984089  0.8009560964764403  0.9937113788934722  1.0000
  C   C29       1.0  0.623808057767583  0.2805879718939083  0.05670656657959231  1.0000
  C   C30       1.0  0.37616930823298855  0.7194325543313768  0.9432747514410167  1.0000
  C   C31       1.0  0.7417845393647298  0.26165878871400855  0.004442176712693399  1.0000
  C   C32       1.0  0.2582002032428648  0.7383591817631795  0.9955438812763334  1.0000
  C   C33       1.0  0.9104138898663975  0.3390280356809328  0.057507561087810265  1.0000
  C   C34       1.0  0.08957168728584729  0.6610000198401096  0.9424752082961589  1.0000
  C   C35       1.0  0.01685762445449514  0.30963923861720133  0.0037660112217779065  1.0000
  C   C36       1.0  0.9831427554655716  0.6903752884353622  0.9962407688050658  1.0000
  C   C37       1.0  0.9554745499863702  0.20247839115835117  0.8994797394711538  1.0000
  C   C38       1.0  0.04452439191739912  0.7975299833423862  0.10053502043734858  1.0000
  C   C39       1.0  0.6909485196405568  0.15751090848809202  0.897390586764061  1.0000
  C   C40       1.0  0.3090524505029041  0.8425000820385976  0.10259622074581648  1.0000
  C   C41       1.0  0.5200312633077077  0.07780777135351258  0.8388280682790921  1.0000
  C   C42       1.0  0.4799642637445914  0.9222042280759766  0.16117066561967164  1.0000
  N   N1        1.0  0.4724874973487447  0.9849373424810466  0.7305568846077009  1.0000
  N   N2        1.0  0.5275119522015502  0.015056033672394198  0.26945390521422746  1.0000
  N   N3        1.0  0.7976716987559557  0.1274252534115092  0.8477438976486125  1.0000
  N   N4        1.0  0.2023370931609777  0.8725839222343622  0.1522568664661392  1.0000
  O   O1        1.0  0.632619079749368  0.810307146848551  0.7099352177030056  1.0000
  O   O2        1.0  0.3673771651463511  0.18967669402566403  0.2900628655916222  1.0000
  O   O3        1.0  0.8053919023683419  0.9742838210624851  0.5864880945108552  1.0000
  O   O4        1.0  0.19462639116495242  0.0257086507930566  0.4135158218962687  1.0000
  O   O5        1.0  0.5713902630613178  0.1314145368869006  0.5757153021925204  1.0000
  O   O6        1.0  0.4286045646942184  0.868590329179362  0.42428884417289936  1.0000
  O   O7        1.0  0.8292519000912718  0.7541904594190498  0.6536731778024957  1.0000
  O   O8        1.0  0.17075754095454704  0.24580648322314153  0.3463329312592123  1.0000
  O   O9        1.0  0.8205831635487114  0.2786650460260702  0.6259412414927821  1.0000
  O   O10       1.0  0.17943420210948358  0.7213409379614149  0.3740861930521646  1.0000
  O   O11       1.0  0.11313133101907627  0.27879819266691197  0.6379878290332072  1.0000
  O   O12       1.0  0.8868894485545339  0.721169456776515  0.36203792097172277  1.0000
  O   O13       1.0  0.148990980961294  0.49567101414930903  0.6907117448212503  1.0000
  O   O14       1.0  0.8510105378100833  0.50431681727121  0.3092757354466826  1.0000
