data_image0
_chemical_formula_structural       Al2H6C16S2ClO10F
_chemical_formula_sum              "Al2 H6 C16 S2 Cl1 O10 F1"
_cell_length_a       6.642197257727278
_cell_length_b       11.100748329656724
_cell_length_c       12.756379710304175
_cell_angle_alpha    80.59099408176607
_cell_angle_beta     74.82176459228677
_cell_angle_gamma    73.10078955654018

_space_group_name_H-M_alt    "P 1"
_space_group_IT_number       1

loop_
  _space_group_symop_operation_xyz
  'x, y, z'

loop_
  _atom_site_type_symbol
  _atom_site_label
  _atom_site_symmetry_multiplicity
  _atom_site_fract_x
  _atom_site_fract_y
  _atom_site_fract_z
  _atom_site_occupancy
  Al  Al1       1.0  0.4997400508018615  0.5018910274960077  0.49547694626041067  1.0000
  Al  Al2       1.0  0.9995363144118414  0.4965193678696449  0.5003077966163546  1.0000
  H   H1        1.0  0.19911918612925214  0.6516566028983917  0.4319432721727807  1.0000
  H   H2        1.0  0.7115551924193465  0.4221898645098677  0.6295491309364039  1.0000
  H   H3        1.0  0.11582959537440732  0.11415342170204207  0.5392411903135469  1.0000
  H   H4        1.0  0.7819469563580623  0.12618930581020746  0.4486260435016335  1.0000
  H   H5        1.0  0.2356418871228456  0.8777263532331857  0.5404546591299494  1.0000
  H   H6        1.0  0.608431802232488  0.5742464565340484  0.14414335670183223  1.0000
  C   C1        1.0  0.8605172028912023  0.4939884621785139  0.30464173774748105  1.0000
  C   C2        1.0  0.634325311395422  0.7277311571252623  0.49690735887357107  1.0000
  C   C3        1.0  0.14718090071765738  0.49676390591713454  0.694999769460111  1.0000
  C   C4        1.0  0.3724821184391729  0.27481776021829757  0.4945111511467958  1.0000
  C   C5        1.0  0.5734099949223719  0.8684113735536342  0.495901239166166  1.0000
  C   C6        1.0  0.44098600689150647  0.1341672285267848  0.49453686771086325  1.0000
  C   C7        1.0  0.7236920977677102  0.9416389232559648  0.47030710533481834  1.0000
  C   C8        1.0  0.28653212613075846  0.0642571902057938  0.5202847743545932  1.0000
  C   C9        1.0  0.661179029985938  0.0723311738664734  0.4692327478998948  1.0000
  C   C10       1.0  0.353191496471723  0.9335495928042192  0.5209013841170886  1.0000
  C   C11       1.0  0.23259245862806918  0.44885092728868153  0.8865415521927248  1.0000
  C   C12       1.0  0.7814218399006307  0.535660084200714  0.11523016838123104  1.0000
  C   C13       1.0  0.09686362957431528  0.4954407518942078  0.8142296488847194  1.0000
  C   C14       1.0  0.9197656071508433  0.4918544301010854  0.18545202954957324  1.0000
  C   C15       1.0  0.8962609905007853  0.5220549800116742  0.005908292772808469  1.0000
  C   C16       1.0  0.1190608975306802  0.46543855388384964  0.9959116725600483  1.0000
  S   S1        1.0  0.8299256284241708  0.5566424635335918  0.8806842495907861  1.0000
  S   S2        1.0  0.18879955622669098  0.43265254191468466  0.12026536951258752  1.0000
  Cl  Cl1       1.0  0.5014717511597695  0.37242407852092907  0.853866219926978  1.0000
  O   O1        1.0  0.6594528577548786  0.5239962819472693  0.3491484571644462  1.0000
  O   O2        1.0  0.8341438075157299  0.6701522319546526  0.4808557118586095  1.0000
  O   O3        1.0  0.9865401242357948  0.5175797119113097  0.6508228472220097  1.0000
  O   O4        1.0  0.5209251978510069  0.3320674166295703  0.472761263078695  1.0000
  O   O5        1.0  0.3453333421675282  0.4768784595505123  0.6455404792306325  1.0000
  O   O6        1.0  0.17034693566062492  0.32675426752771125  0.5180580455532109  1.0000
  O   O7        1.0  0.014517900293988382  0.467691963814154  0.3537036650746614  1.0000
  O   O8        1.0  0.47958552603024873  0.6756692434646039  0.5128057475165378  1.0000
  O   O9        1.0  0.24132437169021156  0.56079058524152  0.45010710783651586  1.0000
  O   O10       1.0  0.7485212529247176  0.44267791301703596  0.5510504906232258  1.0000
  F   F1        1.0  0.9402733971561689  0.8867800440388436  0.4444281641698423  1.0000
