data_image0
_chemical_formula_structural       Zr6H28C96O32F24
_chemical_formula_sum              "Zr6 H28 C96 O32 F24"
_cell_length_a       21.647658698296723
_cell_length_b       21.64765692469946
_cell_length_c       21.648079884601145
_cell_angle_alpha    89.99909500879897
_cell_angle_beta     120.00002841449317
_cell_angle_gamma    60.00118993563859

_space_group_name_H-M_alt    "P 1"
_space_group_IT_number       1

loop_
  _space_group_symop_operation_xyz
  'x, y, z'

loop_
  _atom_site_type_symbol
  _atom_site_label
  _atom_site_symmetry_multiplicity
  _atom_site_fract_x
  _atom_site_fract_y
  _atom_site_fract_z
  _atom_site_occupancy
  Zr  Zr1       1.0  1.7141480391652023e-05  0.5816989594537532  0.08171124797991786  1.0000
  Zr  Zr2       1.0  0.9999544913512183  0.41831637019436135  0.9182607711933953  1.0000
  Zr  Zr3       1.0  0.9999820062657959  0.4182823414037602  0.08171348791875477  1.0000
  Zr  Zr4       1.0  0.9999762730934946  0.5817421569167468  0.9182686320873898  1.0000
  Zr  Zr5       1.0  0.16334528811370325  0.4183077144797521  0.08166049314792903  1.0000
  Zr  Zr6       1.0  0.8365622183861348  0.5817361310940968  0.9182966205195059  1.0000
  H   H1        1.0  0.12863746425369266  0.4356775866007395  0.19293265251876324  1.0000
  H   H2        1.0  0.12862470643395327  0.43568607501423173  0.9356914241903311  1.0000
  H   H3        1.0  0.8713588126207696  0.43568748785116906  0.935682020158957  1.0000
  H   H4        1.0  0.8713693274210426  0.6929585430351893  0.9356906339319621  1.0000
  H   H5        1.0  0.18360062661349014  0.6007309686678469  0.28261929871499797  1.0000
  H   H6        1.0  0.383392335230937  0.4010006972544744  0.2826009036644662  1.0000
  H   H7        1.0  0.6166169107149101  0.6008013117419039  0.7156119482832892  1.0000
  H   H8        1.0  0.816386759102052  0.40102371629711114  0.7156192148110206  1.0000
  H   H9        1.0  0.8164098000260867  0.7826176995614135  0.10073407169164743  1.0000
  H   H10       1.0  0.6166170528152219  0.7825949259819466  0.9010106263890519  1.0000
  H   H11       1.0  0.38338683577953253  0.21561235515000735  0.10080174366093074  1.0000
  H   H12       1.0  0.1836188506200711  0.21561265285038897  0.9010283819286612  1.0000
  H   H13       1.0  0.38334904680375814  0.40101091375549913  0.1007534247654434  1.0000
  H   H14       1.0  0.18356859388929772  0.6008200020391357  0.901012312193501  1.0000
  H   H15       1.0  0.8163909299717886  0.40103358646430126  0.10080274362878319  1.0000
  H   H16       1.0  0.6166262005338224  0.6007882689037415  0.9010173835657226  1.0000
  H   H17       1.0  0.6166577241476928  0.7826472442702157  0.7157026765854722  1.0000
  H   H18       1.0  0.8164228657085175  0.7825982653748014  0.7156407611756208  1.0000
  H   H19       1.0  0.18361223572301097  0.21561823809859249  0.2826080381147733  1.0000
  H   H20       1.0  0.38337863622375323  0.21561726502969947  0.28259320873682003  1.0000
  H   H21       1.0  0.99829698946035  0.40097571089720674  0.2826303620545685  1.0000
  H   H22       1.0  0.9982138396525926  0.6007909350030187  0.28257665374336205  1.0000
  H   H23       1.0  0.9981964791553608  0.40101849691125596  0.7156085368392482  1.0000
  H   H24       1.0  0.9982121404885902  0.6007821568873483  0.7156095101611513  1.0000
  H   H25       1.0  0.001716074095227516  0.7826526468046708  0.9010148291823156  1.0000
  H   H26       1.0  0.0017933220903288455  0.7825724821222765  0.10082380399896353  1.0000
  H   H27       1.0  0.0018073518613234655  0.2156063096930651  0.901046898664184  1.0000
  H   H28       1.0  0.0018007730084619437  0.2156366799337093  0.10081674346457703  1.0000
  C   C1        1.0  0.2075988236322246  0.5017532663045188  0.20580609641893224  1.0000
  C   C2        1.0  0.20758304483776166  0.2906394544540305  0.001784601255202693  1.0000
  C   C3        1.0  0.7923989315658346  0.5017992224655216  0.7906335598905798  1.0000
  C   C4        1.0  0.7924139667000744  0.7058129332924991  0.0017718569502348886  1.0000
  C   C5        1.0  0.99646069442624  0.5017792805205943  0.20580630043278333  1.0000
  C   C6        1.0  0.003546716066019062  0.70581819713437  0.0017973901975594302  1.0000
  C   C7        1.0  0.996435694963381  0.5017838050830081  0.7906301349851785  1.0000
  C   C8        1.0  0.0035623157123723065  0.2906383420915262  0.0017927450505013114  1.0000
  C   C9        1.0  0.20758845093651956  0.2906344537137642  0.20580672659843194  1.0000
  C   C10       1.0  0.7924077281131404  0.5017899402407124  0.0017824603962493732  1.0000
  C   C11       1.0  0.7924279613408345  0.705822230521946  0.7906525367449077  1.0000
  C   C12       1.0  0.20755825159774596  0.5017939230550752  0.0017697387039206213  1.0000
  C   C13       1.0  0.27650690069458517  0.5011678717849648  0.2753152764318544  1.0000
  C   C14       1.0  0.25218655738375173  0.5570111228941029  0.3077716693203527  1.0000
  C   C15       1.0  0.3170190391931271  0.5553595946453171  0.3722445638760161  1.0000
  C   C16       1.0  0.40699638385995474  0.49984292988549583  0.4071540260624785  1.0000
  C   C17       1.0  0.42762279614116494  0.44479298991051763  0.3722342160504155  1.0000
  C   C18       1.0  0.3648151056315997  0.4444206778268551  0.30776067974486665  1.0000
  C   C19       1.0  0.4718428231552706  0.49960936543514123  0.47225136014478847  1.0000
  C   C20       1.0  0.5281421812420604  0.4996240328805257  0.5285481268027397  1.0000
  C   C21       1.0  0.5929966510610926  0.49987845213398446  0.5931448934856646  1.0000
  C   C22       1.0  0.5723784875517877  0.5554164638919661  0.6275762351276767  1.0000
  C   C23       1.0  0.6351900867483877  0.5570776348686762  0.6907536165657433  1.0000
  C   C24       1.0  0.7234921791281649  0.5012203191745569  0.7222956484608145  1.0000
  C   C25       1.0  0.7478103568625372  0.4444581762212537  0.6907598068890267  1.0000
  C   C26       1.0  0.6829682287800053  0.4448247620587864  0.6275795926961363  1.0000
  C   C27       1.0  0.7235014730669395  0.7753163991467532  0.001179285916428841  1.0000
  C   C28       1.0  0.7478230686075875  0.8077730012137537  0.05701925554865259  1.0000
  C   C29       1.0  0.6829881904369303  0.8722450586550393  0.055364903253256006  1.0000
  C   C30       1.0  0.5930118480843163  0.9071497453715409  0.9998506767422057  1.0000
  C   C31       1.0  0.5723842719399455  0.8722287350918734  0.9448001116350961  1.0000
  C   C32       1.0  0.6351923867271907  0.8077573892197948  0.9444299550403912  1.0000
  C   C33       1.0  0.5281647409086292  0.97224944645064  0.9996148965744285  1.0000
  C   C34       1.0  0.4718645883208125  0.028548496782903384  0.9996261721272289  1.0000
  C   C35       1.0  0.40700682101078905  0.09314540347451578  0.9998798430880739  1.0000
  C   C36       1.0  0.42762519893845763  0.12757658443056394  0.055417371107623015  1.0000
  C   C37       1.0  0.36480932341250133  0.1907555207054656  0.05707643590303481  1.0000
  C   C38       1.0  0.2765027242382417  0.2222977670052728  0.001217242825866427  1.0000
  C   C39       1.0  0.2521964531462117  0.19075224513673558  0.944462516049711  1.0000
  C   C40       1.0  0.3170379605435582  0.1275731629904302  0.9448285258960991  1.0000
  C   C41       1.0  0.27646767774423625  0.5012224668273007  0.0011932958962716925  1.0000
  C   C42       1.0  0.3647735422636772  0.4444533319087256  0.05703809631877026  1.0000
  C   C43       1.0  0.4275893397306945  0.44482696072520156  0.05538623769074034  1.0000
  C   C44       1.0  0.406963766845763  0.49990027018247224  0.9998664357246626  1.0000
  C   C45       1.0  0.3169907558561177  0.5554351276018678  0.9448143370139944  1.0000
  C   C46       1.0  0.25215199093494767  0.5570886431331276  0.9444421400584417  1.0000
  C   C47       1.0  0.4718093975523059  0.4996680337838768  0.9996209454034569  1.0000
  C   C48       1.0  0.5281341626278218  0.49965670691181446  0.9996361514190678  1.0000
  C   C49       1.0  0.5929964618127102  0.49989067994242464  0.99988370420121  1.0000
  C   C50       1.0  0.6829692872405886  0.44484006356126565  0.05542218567717305  1.0000
  C   C51       1.0  0.747808203498231  0.44446995341282775  0.05707882234405299  1.0000
  C   C52       1.0  0.7234986052663431  0.5012223454243668  0.0012197541666055303  1.0000
  C   C53       1.0  0.6351964086134955  0.5570736296488263  0.9444558479224624  1.0000
  C   C54       1.0  0.5723857213039452  0.5554167652176362  0.9448234365976019  1.0000
  C   C55       1.0  0.7235239118157039  0.7753355731647742  0.7223530674242297  1.0000
  C   C56       1.0  0.6352238936165548  0.8078036253271467  0.6908374040974934  1.0000
  C   C57       1.0  0.5724137168536744  0.8722805643989561  0.6276687955062671  1.0000
  C   C58       1.0  0.5930216571593121  0.9071788417229104  0.5931910743653573  1.0000
  C   C59       1.0  0.6830031615194797  0.8722539262386632  0.6276305579685866  1.0000
  C   C60       1.0  0.7478357153203562  0.8077781600478958  0.6908012541328787  1.0000
  C   C61       1.0  0.5281741226763471  0.972252815239301  0.5285712331411216  1.0000
  C   C62       1.0  0.4718604214485255  0.028554074642769843  0.4722478491974939  1.0000
  C   C63       1.0  0.4070042810997024  0.09315615697680366  0.407148684884227  1.0000
  C   C64       1.0  0.3170315785407211  0.12759017883168167  0.3722376676732465  1.0000
  C   C65       1.0  0.252195460500907  0.19076230597335814  0.30776044856892776  1.0000
  C   C66       1.0  0.27650417812350986  0.22230488089193295  0.27530485022492  1.0000
  C   C67       1.0  0.36480843327387186  0.19076237453806036  0.3077526063958301  1.0000
  C   C68       1.0  0.427622850653563  0.12759159858412525  0.37222841437241516  1.0000
  C   C69       1.0  0.9976502196935475  0.501184536596732  0.2753119860811493  1.0000
  C   C70       1.0  0.9985809322857478  0.44441292260606974  0.3077767944440165  1.0000
  C   C71       1.0  0.9998676688234981  0.44478547929359286  0.37224439169040807  1.0000
  C   C72       1.0  0.00031099876873944606  0.4998641348057191  0.4071419996102748  1.0000
  C   C73       1.0  0.9998234921229849  0.555401322757824  0.37221662419711493  1.0000
  C   C74       1.0  0.9985336564001983  0.5570533385476609  0.3077448480716427  1.0000
  C   C75       1.0  0.000793257018095514  0.4996209234919532  0.4722364502910354  1.0000
  C   C76       1.0  0.0007877811186745116  0.4996094747926848  0.5285424671588217  1.0000
  C   C77       1.0  0.00027447148398348055  0.49985967538615483  0.5931380880644639  1.0000
  C   C78       1.0  0.9997790347743846  0.44481335596054106  0.6275704200960348  1.0000
  C   C79       1.0  0.9984830953653585  0.4444514258439868  0.6907463562652294  1.0000
  C   C80       1.0  0.9975860258415564  0.5012087453259328  0.7222920486275796  1.0000
  C   C81       1.0  0.9984949958763567  0.5570608874533536  0.6907481269362065  1.0000
  C   C82       1.0  0.9997937219786908  0.5553968011826599  0.6275749256134375  1.0000
  C   C83       1.0  0.002361135728705315  0.775321518918261  0.0012200693292712874  1.0000
  C   C84       1.0  0.0014371714221041876  0.8077935774585112  0.9444561345373402  1.0000
  C   C85       1.0  0.00014578431867540365  0.872260774222248  0.9448347928014654  1.0000
  C   C86       1.0  0.9996965834142415  0.9071551999737936  0.9999152347379832  1.0000
  C   C87       1.0  0.0001773122836893712  0.8722175972862727  0.055441295926108546  1.0000
  C   C88       1.0  0.0014686701468491308  0.8077503236030736  0.057086866685672547  1.0000
  C   C89       1.0  0.9992298625117398  0.9722362358967943  0.9996900562725202  1.0000
  C   C90       1.0  0.9992476033470654  0.028541576381584874  0.9996870365572832  1.0000
  C   C91       1.0  0.9997518288679005  0.09313945900963454  0.9999247515385505  1.0000
  C   C92       1.0  0.0002377272994422237  0.12756171549066403  0.9448675062512704  1.0000
  C   C93       1.0  0.0015217017286132417  0.1907496122165282  0.9444841370340598  1.0000
  C   C94       1.0  0.002418579368686839  0.22230380866744065  0.001235636164153745  1.0000
  C   C95       1.0  0.001507915734570994  0.1907734699411847  0.057090518790097584  1.0000
  C   C96       1.0  0.00021791311321099846  0.1275943748214274  0.055443601749004805  1.0000
  O   O1        1.0  0.12811216362131012  0.5542145512901656  0.17895568560985003  1.0000
  O   O2        1.0  0.12809505072519994  0.31767882810875386  0.9491458158802999  1.0000
  O   O3        1.0  0.8718858577398406  0.4491529316823064  0.8176703643166404  1.0000
  O   O4        1.0  0.8719041790271406  0.6789505069062898  0.054223328594438895  1.0000
  O   O5        1.0  0.9966338827506933  0.44914504301225827  0.17895502986718964  1.0000
  O   O6        1.0  0.003364063681992237  0.6789762465595784  0.9491598397000445  1.0000
  O   O7        1.0  0.9966218586617827  0.5542335900265699  0.817666502954488  1.0000
  O   O8        1.0  0.0033744464671485825  0.31767425760671836  0.054239676460205985  1.0000
  O   O9        1.0  0.23317551896582958  0.3176757610614516  0.17894605148890713  1.0000
  O   O10       1.0  0.7668102154758358  0.5542336515688646  0.9491449561865508  1.0000
  O   O11       1.0  0.7668227166726354  0.6789672316778949  0.817675514582774  1.0000
  O   O12       1.0  0.23314886494178919  0.449155830702935  0.05420797337549013  1.0000
  O   O13       1.0  0.8718953676916357  0.4491441317654645  0.05422843631541222  1.0000
  O   O14       1.0  0.8719115626252572  0.6789654142950853  0.8176787558650103  1.0000
  O   O15       1.0  0.1280732825964889  0.5542501499940543  0.9491357605342543  1.0000
  O   O16       1.0  0.12810257437902103  0.3176676678251269  0.17896154014240306  1.0000
  O   O17       1.0  0.9966359028682987  0.5542288494413655  0.1789484247279205  1.0000
  O   O18       1.0  0.003361846092062127  0.31767824700425246  0.949149505695523  1.0000
  O   O19       1.0  0.9966235178121963  0.44914789908151687  0.8176666038050442  1.0000
  O   O20       1.0  0.0033718523202494557  0.6789551343070457  0.05424859277734835  1.0000
  O   O21       1.0  0.7668035724438339  0.6789687118823056  0.9491358483747873  1.0000
  O   O22       1.0  0.23317828141178162  0.4491290542064378  0.17894256089756772  1.0000
  O   O23       1.0  0.23317257792503912  0.31768607836779233  0.05422549255686699  1.0000
  O   O24       1.0  0.7668089990322288  0.5542445255068815  0.817673879725298  1.0000
  O   O25       1.0  0.9079268032271417  0.6381112321057929  0.9539629081614152  1.0000
  O   O26       1.0  0.9079139408170321  0.4539796608006695  0.9539617393907419  1.0000
  O   O27       1.0  0.09202705363634295  0.45398698541453103  0.9539414144331244  1.0000
  O   O28       1.0  0.09204771789478627  0.45396461037883284  0.13808585900583376  1.0000
  O   O29       1.0  0.06778160031968389  0.39825678063751724  0.03388886519221056  1.0000
  O   O30       1.0  0.06780954716024479  0.5339399236906388  0.03389143182487696  1.0000
  O   O31       1.0  0.932158172027961  0.5339329221898198  0.8982646271778802  1.0000
  O   O32       1.0  0.9321759726357611  0.5339081244557279  0.03390830658938872  1.0000
  F   F1        1.0  0.5130750374564882  0.3904308038258791  0.4040029789000812  1.0000
  F   F2        1.0  0.2944098921773132  0.6090283293300089  0.40402576548338937  1.0000
  F   F3        1.0  0.7055739405386561  0.3904367457007112  0.5965083498358652  1.0000
  F   F4        1.0  0.4869301785257817  0.6090880370603388  0.596499906277806  1.0000
  F   F5        1.0  0.48693674672693277  0.9039960674150934  0.8904382468575917  1.0000
  F   F6        1.0  0.7056014908862379  0.9040260160684568  0.10903150571530756  1.0000
  F   F7        1.0  0.29443304284396987  0.09649951997027982  0.8904427681107093  1.0000
  F   F8        1.0  0.5130744125030732  0.09650030034279679  0.10909185680972656  1.0000
  F   F9        1.0  0.29439844326748227  0.6091169604700821  0.8904467483309304  1.0000
  F   F10       1.0  0.5130428870711442  0.3904411018242299  0.10905314552037726  1.0000
  F   F11       1.0  0.4869346457167651  0.6090917264256319  0.8904455699055517  1.0000
  F   F12       1.0  0.7055733585496357  0.3904695374048828  0.10910564136369758  1.0000
  F   F13       1.0  0.7056085762076024  0.9040058898477101  0.59654481611647  1.0000
  F   F14       1.0  0.4869665732594795  0.9040645815580105  0.5966202279156361  1.0000
  F   F15       1.0  0.5130676893482473  0.09651893094823556  0.404002251474779  1.0000
  F   F16       1.0  0.2944317599800997  0.09651950531938516  0.4040158452320455  1.0000
  F   F17       1.0  0.0005079354362394382  0.6090835322664674  0.4039760780496167  1.0000
  F   F18       1.0  0.0005890123173984501  0.39039624195361  0.40403175638026323  1.0000
  F   F19       1.0  0.0005034308148879144  0.6090670477527381  0.5965024087940023  1.0000
  F   F20       1.0  0.0004753328086052373  0.390437229744499  0.5964936076040174  1.0000
  F   F21       1.0  0.9994957951386996  0.9039735966045513  0.10913294458936908  1.0000
  F   F22       1.0  0.9994246878844208  0.9040555158746953  0.8904509886341216  1.0000
  F   F23       1.0  0.9995002561333308  0.09653290880725517  0.10911390931644131  1.0000
  F   F24       1.0  0.9995329541706468  0.09648478861380755  0.890484838141262  1.0000
