data_image0
_chemical_formula_structural       AlH15C33O9
_chemical_formula_sum              "Al1 H15 C33 O9"
_cell_length_a       3.9648849223674167
_cell_length_b       20.441370834027882
_cell_length_c       20.47878823945827
_cell_angle_alpha    60.03543515689934
_cell_angle_beta     87.21096745274863
_cell_angle_gamma    87.28321936151157

_space_group_name_H-M_alt    "P 1"
_space_group_IT_number       1

loop_
  _space_group_symop_operation_xyz
  'x, y, z'

loop_
  _atom_site_type_symbol
  _atom_site_label
  _atom_site_symmetry_multiplicity
  _atom_site_fract_x
  _atom_site_fract_y
  _atom_site_fract_z
  _atom_site_occupancy
  Al  Al1       1.0  0.030599351742651527  0.49946242267247215  0.49985052014394443  1.0000
  H   H1        1.0  0.8196706918097689  0.30747450207493887  0.7067456856793229  1.0000
  H   H2        1.0  0.8065720335282548  0.235499192985735  0.8474532164186499  1.0000
  H   H3        1.0  0.2320778051099524  0.7086256636485188  0.30738514587371674  1.0000
  H   H4        1.0  0.23257427657814134  0.8497167343493144  0.23529155479768357  1.0000
  H   H5        1.0  0.2690384626767468  0.3083950131654447  0.4846410006651851  1.0000
  H   H6        1.0  0.2867206734893983  0.2361447315616303  0.4157499101411375  1.0000
  H   H7        1.0  0.7849349747458518  0.7074178312724656  0.48334008622638464  1.0000
  H   H8        1.0  0.7670905764732155  0.8482768292918264  0.41465930191074596  1.0000
  H   H9        1.0  0.20071235084002842  0.48431797904941465  0.7095751910806671  1.0000
  H   H10       1.0  0.20600689071342523  0.4156705636207931  0.8504377302575534  1.0000
  H   H11       1.0  0.8700174425752749  0.48071306860388313  0.30726242526390724  1.0000
  H   H12       1.0  0.8698273747022186  0.4119799891393825  0.23514926826490518  1.0000
  H   H13       1.0  0.528816177711505  0.0290761777760125  0.3348328052997331  1.0000
  H   H14       1.0  0.5608768966007105  0.3353246247930741  0.13431837313602563  1.0000
  H   H15       1.0  0.4732044460196221  0.1355075522466151  0.029301358810684505  1.0000
  C   C1        1.0  0.5168362880160019  0.4418033975969137  0.6161596007274427  1.0000
  C   C2        1.0  0.5572803903793258  0.44087528199631965  0.4418867424058918  1.0000
  C   C3        1.0  0.5172044918736844  0.61588442502115  0.4413808914122799  1.0000
  C   C4        1.0  0.681127683765105  0.32984083867025765  0.7388826993639483  1.0000
  C   C5        1.0  0.6741556121596872  0.2900007800236608  0.8170991471461451  1.0000
  C   C6        1.0  0.35279363352861287  0.7398626528133291  0.3296864408243821  1.0000
  C   C7        1.0  0.35198488807973394  0.8182069230382895  0.2897370073921407  1.0000
  C   C8        1.0  0.4050351730511678  0.3296951643046952  0.4306626806540237  1.0000
  C   C9        1.0  0.41394258419587254  0.2896976580429537  0.3923078487973441  1.0000
  C   C10       1.0  0.6591276064727651  0.7392143657868288  0.42971947613186506  1.0000
  C   C11       1.0  0.6494040563953263  0.8175631933447391  0.39136525136146366  1.0000
  C   C12       1.0  0.33675409906544473  0.4303937440197103  0.7404263514595543  1.0000
  C   C13       1.0  0.33845606737794043  0.3921628301341258  0.818627650304144  1.0000
  C   C14       1.0  0.7384437830611291  0.42779447773634877  0.32982742346184313  1.0000
  C   C15       1.0  0.7388282378336015  0.3894116419587873  0.28985648735381636  1.0000
  C   C16       1.0  0.5105977662783232  0.4000112892005133  0.6999171368452579  1.0000
  C   C17       1.0  0.505730238587077  0.32097547394072723  0.8582378345657986  1.0000
  C   C18       1.0  0.5065510929269762  0.28203652196573614  0.937964304305389  1.0000
  C   C19       1.0  0.5083893469554539  0.2514899391990538  0.006774116173815475  1.0000
  C   C20       1.0  0.5130097285675816  0.21073780120063645  0.08610371148067492  1.0000
  C   C21       1.0  0.508959166162704  0.6996944349478369  0.3995680155853663  1.0000
  C   C22       1.0  0.49856163908627577  0.858352610363376  0.3203188090854994  1.0000
  C   C23       1.0  0.4971308087921357  0.9381430796953296  0.27956172601751217  1.0000
  C   C24       1.0  0.49869854488039067  0.007081317571795899  0.24114740440501953  1.0000
  C   C25       1.0  0.5073811488564388  0.0864849152355731  0.2023909350979025  1.0000
  C   C26       1.0  0.5685132255451961  0.3987709615628318  0.40008146920290244  1.0000
  C   C27       1.0  0.5777856619899921  0.31950107906283154  0.32067413988667687  1.0000
  C   C28       1.0  0.5750760654036143  0.2793319142626699  0.28108243220992796  1.0000
  C   C29       1.0  0.5608671082435706  0.24120676164105956  0.25051197091497823  1.0000
  C   C30       1.0  0.5426548095290472  0.20263437856589664  0.20996773851745587  1.0000
  C   C31       1.0  0.4983338113114399  0.13096549959426076  0.12325409928717332  1.0000
  C   C32       1.0  0.5303303442248506  0.1233969455611259  0.24496066593252414  1.0000
  C   C33       1.0  0.5339008811911227  0.24550206039803868  0.1302543600852459  1.0000
  O   O1        1.0  0.2935303291326433  0.5823741633089481  0.42680198951872955  1.0000
  O   O2        1.0  0.27709356179528294  0.4896696257822768  0.5830898090848962  1.0000
  O   O3        1.0  0.3160078743618371  0.4265870017869274  0.4904945501754697  1.0000
  O   O4        1.0  0.7480855547092916  0.5823595463060726  0.48956111941919295  1.0000
  O   O5        1.0  0.7872399559614109  0.4884979396208138  0.426922785207303  1.0000
  O   O6        1.0  0.7628968587467426  0.42699960557701633  0.5824897959038752  1.0000
  O   O7        1.0  0.5410959526611377  0.08252177960667238  0.32089256982749964  1.0000
  O   O8        1.0  0.5455325273483281  0.32159893209574614  0.09483669159877194  1.0000
  O   O9        1.0  0.4762446323113991  0.09578027211305339  0.08272086187524512  1.0000
