data_image0
_chemical_formula_structural       Zn4H56C56N8O24
_chemical_formula_sum              "Zn4 H56 C56 N8 O24"
_cell_length_a       8.009208995
_cell_length_b       11.932709632
_cell_length_c       15.721
_cell_angle_alpha    90.0
_cell_angle_beta     90.0
_cell_angle_gamma    90.0

_space_group_name_H-M_alt    "P 1"
_space_group_IT_number       1

loop_
  _space_group_symop_operation_xyz
  'x, y, z'

loop_
  _atom_site_type_symbol
  _atom_site_label
  _atom_site_symmetry_multiplicity
  _atom_site_fract_x
  _atom_site_fract_y
  _atom_site_fract_z
  _atom_site_occupancy
  Zn  Zn1       1.0  0.9999976283550608  0.49999959640348385  0.4999993639081454  1.0000
  Zn  Zn2       1.0  0.5000006870216538  0.49999959640348385  0.0  1.0000
  Zn  Zn3       1.0  0.5000006870216538  0.0  0.5  1.0000
  Zn  Zn4       1.0  1.2485627465e-06  0.0  0.0  1.0000
  H   H1        1.0  0.8065665415939094  0.3273606850806488  0.4696953120030544  1.0000
  H   H2        1.0  0.6934342709082983  0.6726393457589523  0.9696953120030544  1.0000
  H   H3        1.0  0.3065671031350092  0.1726397493554614  0.5303046879969457  1.0000
  H   H4        1.0  0.19343358388664467  0.827361119516766  0.030304687996945707  1.0000
  H   H5        1.0  0.19343233532389806  0.6726376696936924  0.5303040519050983  1.0000
  H   H6        1.0  0.3065658545722627  0.3273606850806488  0.030304687996945707  1.0000
  H   H7        1.0  0.6934330223455447  0.8273602814841398  0.4696953120030544  1.0000
  H   H8        1.0  0.8065665415939094  0.17263891132283501  0.9696953120030544  1.0000
  H   H9        1.0  0.9928121497346467  0.282556946743945  0.4570765218497571  1.0000
  H   H10       1.0  0.507188662767561  0.7174439221282825  0.9570771579416049  1.0000
  H   H11       1.0  0.4928127112757394  0.2174443257247916  0.5429234781502432  1.0000
  H   H12       1.0  0.007187975745914302  0.7825557051148095  0.0429228420583954  1.0000
  H   H13       1.0  0.0071867271831607  0.7174430840956562  0.5429228420583956  1.0000
  H   H14       1.0  0.49281146271299303  0.2825561087113186  0.042923478150243013  1.0000
  H   H15       1.0  0.5071874142048145  0.7825557051148095  0.4570765218497571  1.0000
  H   H16       1.0  0.9928121497346467  0.2174443257247916  0.9570771579416049  1.0000
  H   H17       1.0  0.0532724268109845  0.7911966595316855  0.2533165829145716  1.0000
  H   H18       1.0  0.4467257630851692  0.2088033713079156  0.7533172190064266  1.0000
  H   H19       1.0  0.5532743623953849  0.7088029677113994  0.7466827809935739  1.0000
  H   H20       1.0  0.9467264501068229  0.2911970631282017  0.24668278099357377  1.0000
  H   H21       1.0  0.9467264501068229  0.2088033713079156  0.7466827809935739  1.0000
  H   H22       1.0  0.5532731138326383  0.7911966595316855  0.24668341708542846  1.0000
  H   H23       1.0  0.4467270116479227  0.2911970631282017  0.2533172190064263  1.0000
  H   H24       1.0  0.0532724268109845  0.7088038057440258  0.7533165829145716  1.0000
  H   H25       1.0  0.2371270372874079  0.46095984647521254  0.19152025952547555  1.0000
  H   H26       1.0  0.2628748982969925  0.5390401843643886  0.6915202595254757  1.0000
  H   H27       1.0  0.7371264757463081  0.0390405879609048  0.8084797404745248  1.0000
  H   H28       1.0  0.7628743367558997  0.9609594428786963  0.3084797404745246  1.0000
  H   H29       1.0  0.7628755853186464  0.5390401843643886  0.80847910438267  1.0000
  H   H30       1.0  0.7371264757463081  0.46095984647521254  0.3084797404745246  1.0000
  H   H31       1.0  0.2628748982969925  0.9609594428786963  0.19152025952547555  1.0000
  H   H32       1.0  0.2371270372874079  0.0390405879609048  0.6915202595254757  1.0000
  H   H33       1.0  0.9884346887367033  0.7195607925440584  0.3997850009541396  1.0000
  H   H34       1.0  0.5115648752027582  0.2804392382955427  0.899784364862285  1.0000
  H   H35       1.0  0.4884352502777958  0.7804388346990336  0.6002156351377155  1.0000
  H   H36       1.0  0.011565436743858  0.2195611961405675  0.10021563513771532  1.0000
  H   H37       1.0  0.011565436743858  0.2804384002629163  0.6002149990458605  1.0000
  H   H38       1.0  0.4884352502777958  0.7195607925440584  0.10021563513771532  1.0000
  H   H39       1.0  0.511566123765512  0.2195611961405675  0.3997843648622848  1.0000
  H   H40       1.0  0.9884359372994496  0.7804396727316602  0.899784364862285  1.0000
  H   H41       1.0  0.1623531113761345  0.4026076346579758  0.3406507219642522  1.0000
  H   H42       1.0  0.3376488242082659  0.5973915581489919  0.8406507219642521  1.0000
  H   H43       1.0  0.6623513012722952  0.0973919617455081  0.6593492780357482  1.0000
  H   H44       1.0  0.8376495112299196  0.9026080690940932  0.15934927803574794  1.0000
  H   H45       1.0  0.837648262667166  0.5973915581489919  0.6593486419438932  1.0000
  H   H46       1.0  0.6623525498350418  0.4026084726906092  0.15934927803574794  1.0000
  H   H47       1.0  0.3376488242082659  0.9026080690940932  0.3406507219642522  1.0000
  H   H48       1.0  0.1623531113761345  0.0973919617455081  0.8406507219642521  1.0000
  H   H49       1.0  0.1795258434256937  0.659242556183905  0.14710196552382376  1.0000
  H   H50       1.0  0.3204735950332136  0.34075747465569606  0.6471026016156716  1.0000
  H   H51       1.0  0.679527779010094  0.84075707105918  0.8528973983843289  1.0000
  H   H52       1.0  0.8204742820548674  0.1592429597804212  0.3528973983843287  1.0000
  H   H53       1.0  0.8204730334921138  0.34075747465569606  0.8528973983843289  1.0000
  H   H54       1.0  0.6795265304473403  0.659242556183905  0.3528973983843287  1.0000
  H   H55       1.0  0.3204735950332136  0.1592429597804212  0.1471026016156713  1.0000
  H   H56       1.0  0.1795258434256937  0.84075707105918  0.6471019655238237  1.0000
  C   C1        1.0  0.552387882843604  0.4205742161479904  0.5066039056039671  1.0000
  C   C2        1.0  0.9476104325331036  0.5794274907568635  0.006602633420264702  1.0000
  C   C3        1.0  0.052389692947450314  0.0794270563207462  0.4933967304878807  1.0000
  C   C4        1.0  0.4476109940742035  0.9205729745188549  0.9933973665797353  1.0000
  C   C5        1.0  0.44760475126045673  0.5794266527242371  0.49339736657973543  1.0000
  C   C6        1.0  0.052389692947450314  0.42057337811536405  0.9933973665797353  1.0000
  C   C7        1.0  0.9476104325331036  0.9205729745188549  0.5066026334202647  1.0000
  C   C8        1.0  0.5523903799691041  0.0794270563207462  0.006603269512119402  1.0000
  C   C9        1.0  0.3806280997166098  0.4654114757897787  0.5069232237135068  1.0000
  C   C10       1.0  0.1193700901795509  0.534587717017196  0.006923859805354502  1.0000
  C   C11       1.0  0.8806300353010101  0.0345872825810858  0.49307614019464563  1.0000
  C   C12       1.0  0.6193720257639512  0.9654127482585153  0.993075504102791  1.0000
  C   C13       1.0  0.6193682800757045  0.5345893930824488  0.49307614019464563  1.0000
  C   C14       1.0  0.8806300353010101  0.4654131518550315  0.9930761401946457  1.0000
  C   C15       1.0  0.1193700901795509  0.9654127482585153  0.5069238598053547  1.0000
  C   C16       1.0  0.380630596842103  0.0345872825810858  0.0069257680809116  1.0000
  C   C17       1.0  0.0801964339301122  0.7045105645959637  0.2703250429362001  1.0000
  C   C18       1.0  0.4198042530915345  0.2954894662436374  0.7703250429362003  1.0000
  C   C19       1.0  0.580197120951766  0.7954899006797547  0.7296749570638001  1.0000
  C   C20       1.0  0.9198036915504417  0.20451013015984643  0.22967495706379995  1.0000
  C   C21       1.0  0.9198036915504417  0.2954894662436374  0.7296743209719452  1.0000
  C   C22       1.0  0.580197120951766  0.7045105645959637  0.22967495706379995  1.0000
  C   C23       1.0  0.4198042530915345  0.20451013015984643  0.2703250429362001  1.0000
  C   C24       1.0  0.0801964339301122  0.7954899006797547  0.7703250429362003  1.0000
  C   C25       1.0  0.18107031554618666  0.5205640790371646  0.23574581769607766  1.0000
  C   C26       1.0  0.3189291229127207  0.4794351137698101  0.7357451816042231  1.0000
  C   C27       1.0  0.6810710025678404  0.9794355482059204  0.7642548183957771  1.0000
  C   C28       1.0  0.8189298099343674  0.0205644826336808  0.2642548183957772  1.0000
  C   C29       1.0  0.8189298099343674  0.4794351137698101  0.7642541823039226  1.0000
  C   C30       1.0  0.681069754005087  0.5205640790371646  0.2642548183957772  1.0000
  C   C31       1.0  0.3189303714754672  0.0205644826336808  0.23574518160422295  1.0000
  C   C32       1.0  0.18107031554618666  0.9794355482059204  0.7357451816042231  1.0000
  C   C33       1.0  0.0438033269226707  0.66528141929399  0.3516525666306195  1.0000
  C   C34       1.0  0.4561961115362294  0.3347186115456111  0.8516532027224744  1.0000
  C   C35       1.0  0.5438040139443245  0.8347190459817284  0.6483474333693808  1.0000
  C   C36       1.0  0.9561955499951369  0.1652809848578727  0.1483474333693806  1.0000
  C   C37       1.0  0.9561955499951369  0.3347186115456111  0.6483467972775261  1.0000
  C   C38       1.0  0.5438040139443245  0.66528141929399  0.1483474333693806  1.0000
  C   C39       1.0  0.4561961115362294  0.1652809848578727  0.3516525666306195  1.0000
  C   C40       1.0  0.0438045754854244  0.8347190459817284  0.8516525666306194  1.0000
  C   C41       1.0  0.1407492301304316  0.48789505313926185  0.3183003625723586  1.0000
  C   C42       1.0  0.3592527054539687  0.5121049777003392  0.8182997264805041  1.0000
  C   C43       1.0  0.6407486685893389  0.0121045432642291  0.6817002735194961  1.0000
  C   C44       1.0  0.8592521439128689  0.987895487575372  0.18170027351949616  1.0000
  C   C45       1.0  0.8592508953501226  0.5121049777003392  0.6816996374276416  1.0000
  C   C46       1.0  0.6407486685893389  0.48789505313926185  0.18170027351949616  1.0000
  C   C47       1.0  0.3592514568912151  0.987895487575372  0.3182997264805039  1.0000
  C   C48       1.0  0.1407492301304316  0.0121045432642291  0.8182997264805041  1.0000
  C   C49       1.0  0.1496901879759207  0.6310637091014044  0.2111875834870531  1.0000
  C   C50       1.0  0.3503092504829795  0.36893632173819674  0.7111875834870531  1.0000
  C   C51       1.0  0.649692123560321  0.8689359181416806  0.7888117804210923  1.0000
  C   C52       1.0  0.8503099375046332  0.1310641126979206  0.2888124165129469  1.0000
  C   C53       1.0  0.8503099375046332  0.36893632173819674  0.7888117804210923  1.0000
  C   C54       1.0  0.6496908749975745  0.6310637091014044  0.2888124165129469  1.0000
  C   C55       1.0  0.3503092504829795  0.1310641126979206  0.21118821957890796  1.0000
  C   C56       1.0  0.1496901879759207  0.8689367561743069  0.7111875834870531  1.0000
  N   N1        1.0  0.0725739583475544  0.5586417675096556  0.37531391132879593  1.0000
  N   N2        1.0  0.4274254801113457  0.44135826332994554  0.8753132752369412  1.0000
  N   N3        1.0  0.5725758939319547  0.9413578597334293  0.6246867247630592  1.0000
  N   N4        1.0  0.9274249185702532  0.05864217110617181  0.12468672476305903  1.0000
  N   N5        1.0  0.9274249185702532  0.4413574252973191  0.6246860886712045  1.0000
  N   N6        1.0  0.5725746453692082  0.5586417675096556  0.12468608867120423  1.0000
  N   N7        1.0  0.4274254801113457  0.05864217110617181  0.37531327523694114  1.0000
  N   N8        1.0  0.0725752069103081  0.9413578597334293  0.8753132752369412  1.0000
  O   O1        1.0  0.9159755981620492  0.3459281359642148  0.4420692067934625  1.0000
  O   O2        1.0  0.5840252143401585  0.6540718948753863  0.9420692067934626  1.0000
  O   O3        1.0  0.4159761597031491  0.154071460439269  0.5579307932065378  1.0000
  O   O4        1.0  0.08402452731850472  0.8459277323677057  0.057930793206537615  1.0000
  O   O5        1.0  0.08402327875575823  0.6540710568427599  0.5579307932065378  1.0000
  O   O6        1.0  0.4159749111403954  0.3459281359642148  0.057930793206537615  1.0000
  O   O7        1.0  0.5840239657774122  0.8459277323677057  0.44206984288531  1.0000
  O   O8        1.0  0.9159755981620492  0.154071460439269  0.9420692067934626  1.0000
  O   O9        1.0  0.61571123978392  0.3239557585171937  0.5135411233382072  1.0000
  O   O10       1.0  0.8842883241555344  0.6760451103550338  0.013539851154504803  1.0000
  O   O11       1.0  0.11571180132501983  0.1760446759189165  0.4864595127536405  1.0000
  O   O12       1.0  0.38429013425938063  0.8239545168880583  0.986458876661793  1.0000
  O   O13       1.0  0.3842813943201406  0.6760442723224074  0.48645824056993814  1.0000
  O   O14       1.0  0.11571180132501983  0.3239549204845673  0.9864595127536406  1.0000
  O   O15       1.0  0.8842883241555344  0.8239553549206846  0.5135404872463596  1.0000
  O   O16       1.0  0.61571123978392  0.1760455139515429  0.013540487246359603  1.0000
  O   O17       1.0  0.2389886443461435  0.42083400626236067  0.5155219133642888  1.0000
  O   O18       1.0  0.2610107941127567  0.5791626724467349  0.015523185547991104  1.0000
  O   O19       1.0  0.7389905799305438  0.0791622380106176  0.484476814452009  1.0000
  O   O20       1.0  0.7610102325716639  0.9208377928289835  0.9844761783601543  1.0000
  O   O21       1.0  0.7610077354461637  0.5791651865446141  0.4844780866357113  1.0000
  O   O22       1.0  0.7389905799305438  0.4208381964254926  0.9844768144520091  1.0000
  O   O23       1.0  0.2610107941127567  0.9208377928289835  0.5155231855479911  1.0000
  O   O24       1.0  0.2389911414716437  0.0791613999779912  0.015524457731693503  1.0000
