data_image0
_chemical_formula_structural       Ca4H36C44N12O20
_chemical_formula_sum              "Ca4 H36 C44 N12 O20"
_cell_length_a       8.76567324159553
_cell_length_b       11.384894405
_cell_length_c       12.717
_cell_angle_alpha    90.0
_cell_angle_beta     100.19770894592855
_cell_angle_gamma    90.0

_space_group_name_H-M_alt    "P 1"
_space_group_IT_number       1

loop_
  _space_group_symop_operation_xyz
  'x, y, z'

loop_
  _atom_site_type_symbol
  _atom_site_label
  _atom_site_symmetry_multiplicity
  _atom_site_fract_x
  _atom_site_fract_y
  _atom_site_fract_z
  _atom_site_occupancy
  Ca  Ca1       1.0  0.8344399914519302  0.0122284840814046  0.8845337564216467  1.0000
  Ca  Ca2       1.0  0.8344423097014086  0.9877702506455535  0.38453246663178936  1.0000
  Ca  Ca3       1.0  0.3715539583101021  0.408348100089384  0.023818727851576706  1.0000
  Ca  Ca4       1.0  0.3715585948090664  0.5916523913512748  0.523819293667792  1.0000
  H   H1        1.0  0.2472134882327524  0.3131192853606422  0.41334796344146707  1.0000
  H   H2        1.0  0.24721464735749524  0.686882084436867  0.9133488912445032  1.0000
  H   H3        1.0  0.0814563320395578  0.2589958145509925  0.4588443716074125  1.0000
  H   H4        1.0  0.0814563320395578  0.741003798532816  0.9588443716074125  1.0000
  H   H5        1.0  0.3925735263609482  0.05870585850198749  0.3875146254759088  1.0000
  H   H6        1.0  0.3925735263609482  0.9412955112955217  0.88751619817387  1.0000
  H   H7        1.0  0.2022649490314876  0.2238281629455301  0.6425642387536996  1.0000
  H   H8        1.0  0.2022637899067448  0.7761732068519792  0.14256488364863174  1.0000
  H   H9        1.0  0.5453960095708297  0.9292506037960067  0.5247300515817557  1.0000
  H   H10       1.0  0.5453948504460939  0.0707490092878018  0.024729910127703595  1.0000
  H   H11       1.0  0.3641854023324172  0.0912735738281114  0.7682210692740838  1.0000
  H   H12       1.0  0.3641854023324172  0.9087269176125474  0.268221855623068  1.0000
  H   H13       1.0  0.5766518082082612  0.3480427537614901  0.4411290892111452  1.0000
  H   H14       1.0  0.5766494899587755  0.6519577376791688  0.9411240882091506  1.0000
  H   H15       1.0  0.6895621492159307  0.227649015247934  0.5003630313545244  1.0000
  H   H16       1.0  0.6895575127169735  0.7723514761927177  0.0003593201423868013  1.0000
  H   H17       1.0  0.9032827280613915  0.36607014977403907  0.6782192606667081  1.0000
  H   H18       1.0  0.9032780915624272  0.6339294633097623  0.17821869485049294  1.0000
  H   H19       1.0  0.7711483032264683  0.4346768467019401  0.33989478784617694  1.0000
  H   H20       1.0  0.7711459849769895  0.5653227663818612  0.8398929322401045  1.0000
  H   H21       1.0  0.1472980946949178  0.4673912476222029  0.6733345249441813  1.0000
  H   H22       1.0  0.1472934581959535  0.5326074871047553  0.17333395912796593  1.0000
  H   H23       1.0  0.0251101192613632  0.5378038462360237  0.3495949474329123  1.0000
  H   H24       1.0  0.0251089601366203  0.4621966452046351  0.8495940196298762  1.0000
  H   H25       1.0  0.255861717924347  0.2794597724685701  0.22155283706884893  1.0000
  H   H26       1.0  0.255861717924347  0.7205407189720886  0.7215528370688488  1.0000
  H   H27       1.0  0.7185657684818596  0.202073020456794  0.7056804297046427  1.0000
  H   H28       1.0  0.7185634502323808  0.7979265926270145  0.20567621505162495  1.0000
  H   H29       1.0  0.039031207399155214  0.2164543571803108  0.7789819445977244  1.0000
  H   H30       1.0  0.0390300482744124  0.7835443775466473  0.27898101679469534  1.0000
  H   H31       1.0  0.1683477999890286  0.2516369408522436  0.8694474053986454  1.0000
  H   H32       1.0  0.1683477999890286  0.7483644289452656  0.3694474053986454  1.0000
  H   H33       1.0  0.5678563696745726  0.9248939538144114  0.7356356682345012  1.0000
  H   H34       1.0  0.5678563696745726  0.0751065376262474  0.2356364545834779  1.0000
  H   H35       1.0  0.6562036982985762  0.8016982569457552  0.7651416966164106  1.0000
  H   H36       1.0  0.6562036982985762  0.19830223449490347  0.2651416966164107  1.0000
  C   C1        1.0  0.13085127374678512  0.1660893753366324  0.0333475639266823  1.0000
  C   C2        1.0  0.1308605467447137  0.8339067243197676  0.5333526273040123  1.0000
  C   C3        1.0  0.1037463008063924  0.1434163499384695  0.14332752745459493  1.0000
  C   C4        1.0  0.1037463008063924  0.8565841415021892  0.6433275274545949  1.0000
  C   C5        1.0  0.0092660431784779  0.0660541919185249  0.18893608368810533  1.0000
  C   C6        1.0  0.0092672023032137  0.9339471778789843  0.6889362251421574  1.0000
  C   C7        1.0  0.9125082018739336  0.9615846761997275  0.1483362077273398  1.0000
  C   C8        1.0  0.9125070427491977  0.0384149368840809  0.6483455024610694  1.0000
  C   C9        1.0  0.1268963401309549  0.17856292097950194  0.3172299458967274  1.0000
  C   C10       1.0  0.1268963401309549  0.8214375704611568  0.8172299458967276  1.0000
  C   C11       1.0  0.1822503421309705  0.23230079313150748  0.42403305146343945  1.0000
  C   C12       1.0  0.1822503421309705  0.7676996983091442  0.9240330514634394  1.0000
  C   C13       1.0  0.2818921822299601  0.1520066799425024  0.50258431070462  1.0000
  C   C14       1.0  0.2818910231052172  0.8479938114981563  0.0025857419485361996  1.0000
  C   C15       1.0  0.3820811292066396  0.0685311582387058  0.4711134788236677  1.0000
  C   C16       1.0  0.3820799700818966  0.931469333201953  0.9711141237186  1.0000
  C   C17       1.0  0.2763098374779531  0.1605609973156348  0.6114847303293587  1.0000
  C   C18       1.0  0.2763098374779531  0.8394403724818743  0.11148551667834283  1.0000
  C   C19       1.0  0.46923687759702665  0.9968489470588082  0.5478020785998369  1.0000
  C   C20       1.0  0.46923687759702665  0.0031515443818506  0.0478028649488209  1.0000
  C   C21       1.0  0.3674715209727708  0.0859393126712078  0.682973746777627  1.0000
  C   C22       1.0  0.3674703618480351  0.9140603004126007  0.18297439167255902  1.0000
  C   C23       1.0  0.6058095910647268  0.2636607677873286  0.887062139827343  1.0000
  C   C24       1.0  0.6058072728152413  0.7363335751553706  0.3870610705702617  1.0000
  C   C25       1.0  0.5801465693019665  0.3232335645013862  0.7805718506034651  1.0000
  C   C26       1.0  0.5801442510524879  0.6767669269392727  0.2805676359504475  1.0000
  C   C27       1.0  0.5002851929058423  0.4228216642822673  0.7352774708771577  1.0000
  C   C28       1.0  0.500280556406878  0.5771788271583915  0.23527375966502012  1.0000
  C   C29       1.0  0.4112307981899122  0.518638978101265  0.7768874831161838  1.0000
  C   C30       1.0  0.4112296390651764  0.4813615133393938  0.2768873416621318  1.0000
  C   C31       1.0  0.6046562619475608  0.3409412386201254  0.6099110918734141  1.0000
  C   C32       1.0  0.604650466323861  0.6590592528205335  0.10990645285824033  1.0000
  C   C33       1.0  0.6655763809532118  0.3218185316142126  0.5089693031596809  1.0000
  C   C34       1.0  0.665575221828469  0.6781810814695888  0.008965229960722392  1.0000
  C   C35       1.0  0.8143940881834055  0.38946606286068425  0.5086298735646579  1.0000
  C   C36       1.0  0.8143906108091841  0.6105344285799745  0.0086278765045407  1.0000
  C   C37       1.0  0.9231408531218932  0.4019870397735161  0.6025935833182886  1.0000
  C   C38       1.0  0.9231373757476717  0.5980134516671427  0.1025939453051095  1.0000
  C   C39       1.0  0.8518117939432771  0.4392890985272189  0.4157069641330509  1.0000
  C   C40       1.0  0.8518106348185341  0.5607096361997392  0.9157052499810376  1.0000
  C   C41       1.0  0.061967967771394704  0.4597592049427561  0.6002020486340882  1.0000
  C   C42       1.0  0.0619644903971661  0.5402421648547531  0.1002000515739709  1.0000
  C   C43       1.0  0.9935020431418877  0.4967081642422997  0.4203017754027556  1.0000
  C   C44       1.0  0.9934985657676664  0.5032923271983591  0.9203005646916154  1.0000
  N   N1        1.0  0.0250417309016484  0.0910970241010318  0.2967187869076326  1.0000
  N   N2        1.0  0.0250417309016484  0.9089025889827766  0.7967195732566099  1.0000
  N   N3        1.0  0.17707948666196677  0.2112957673936364  0.2267086224030379  1.0000
  N   N4        1.0  0.17708064578670965  0.7887047240470224  0.7267087638570899  1.0000
  N   N5        1.0  0.4622067860436801  0.0049398789307418  0.6523770448856255  1.0000
  N   N6        1.0  0.4622067860436801  0.995060612509917  0.15237783123460252  1.0000
  N   N7        1.0  0.6441325732472054  0.2747236723272906  0.6989780224376007  1.0000
  N   N8        1.0  0.6441290958729837  0.7252759407565179  0.19897445267951502  1.0000
  N   N9        1.0  0.5166868079890818  0.4311809864344553  0.6292134642154608  1.0000
  N   N10       1.0  0.5166821714901175  0.5688203833630538  0.12920975300332324  1.0000
  N   N11       1.0  0.09909936972026401  0.5065211669831058  0.5108716279039882  1.0000
  N   N12       1.0  0.09909589234604253  0.4934784461007027  0.010871203541832105  1.0000
  O   O1        1.0  0.24216318173680662  0.23501579415835036  0.022308592382430006  1.0000
  O   O2        1.0  0.2421620226120638  0.7649864539960163  0.522309237277355  1.0000
  O   O3        1.0  0.0424100560187739  0.119435451188977  0.9561073444174542  1.0000
  O   O4        1.0  0.04240657864455241  0.88056767532224  0.45610298831039137  1.0000
  O   O5        1.0  0.8830675925807017  0.9341483215978954  0.050893451632696006  1.0000
  O   O6        1.0  0.8830652743312228  0.0658521698427634  0.5508884506307014  1.0000
  O   O7        1.0  0.8639258066100555  0.9005213079093081  0.22108165964031207  1.0000
  O   O8        1.0  0.8639246474853125  0.0994765484607925  0.721080731837283  1.0000
  O   O9        1.0  0.6633218833322305  0.1609290288362573  0.8892792186698701  1.0000
  O   O10       1.0  0.6633242015817089  0.8390740976749528  0.3892747834840833  1.0000
  O   O11       1.0  0.5701270950419328  0.3159291489274025  0.9669822113384967  1.0000
  O   O12       1.0  0.5701317315408971  0.6840722208701067  0.4669764863628529  1.0000
  O   O13       1.0  0.3725484873377596  0.5133372161478533  0.8678112914654577  1.0000
  O   O14       1.0  0.37255196471198815  0.486662396935948  0.3678093567806684  1.0000
  O   O15       1.0  0.378333678919418  0.6060442683570031  0.7126369709566732  1.0000
  O   O16       1.0  0.378333678919418  0.3939544663699479  0.2126353982587048  1.0000
  O   O17       1.0  0.12260757858975072  0.274334560242238  0.7958321458347228  1.0000
  O   O18       1.0  0.12260641946500782  0.7256659311984208  0.2958312180316867  1.0000
  O   O19       1.0  0.6442519630955132  0.8792273027674185  0.7943672874947795  1.0000
  O   O20       1.0  0.644254281344999  0.12077318867324041  0.2943683567518677  1.0000
