data_image0
_chemical_formula_structural       Mn4P4H28C8O32
_chemical_formula_sum              "Mn4 P4 H28 C8 O32"
_cell_length_a       5.846013881862034
_cell_length_b       7.928345614046324
_cell_length_c       15.490337603000572
_cell_angle_alpha    89.99998053635468
_cell_angle_beta     89.99998307049685
_cell_angle_gamma    110.35885425176389

_space_group_name_H-M_alt    "P 1"
_space_group_IT_number       1

loop_
  _space_group_symop_operation_xyz
  'x, y, z'

loop_
  _atom_site_type_symbol
  _atom_site_label
  _atom_site_symmetry_multiplicity
  _atom_site_fract_x
  _atom_site_fract_y
  _atom_site_fract_z
  _atom_site_occupancy
  Mn  Mn1       1.0  0.7385683380699959  0.4880266098589843  0.6352410722987828  1.0000
  Mn  Mn2       1.0  0.2614359418756607  0.011975667388846001  0.1352404186069762  1.0000
  Mn  Mn3       1.0  0.26143227991671847  0.5119732256326516  0.3647589371264246  1.0000
  Mn  Mn4       1.0  0.7385676436848387  0.9880268647754918  0.8647589452541027  1.0000
  P   P1        1.0  0.98890347726595  0.16690460524782216  0.6787701554205299  1.0000
  P   P2        1.0  0.011093729532824217  0.3330935753174345  0.17876754010602983  1.0000
  P   P3        1.0  0.011096513630256728  0.8330938849196627  0.32122985400483367  1.0000
  P   P4        1.0  0.9889051750614969  0.6669062541501419  0.8212324693192841  1.0000
  H   H1        1.0  0.2829407682457302  0.5198589556488502  0.6318712542149498  1.0000
  H   H2        1.0  0.7170600590460409  0.9801427082081348  0.1318717570868699  1.0000
  H   H3        1.0  0.7170604768318682  0.48014222516727056  0.3681281096463778  1.0000
  H   H4        1.0  0.28293884554828  0.019857121259441595  0.8681282523384439  1.0000
  H   H5        1.0  0.4568968101369536  0.6738870608869832  0.5717589190899801  1.0000
  H   H6        1.0  0.5431017480671372  0.8261133105047308  0.0717594691128838  1.0000
  H   H7        1.0  0.5431038078505213  0.3261127746052851  0.4282397992077804  1.0000
  H   H8        1.0  0.45689778361807504  0.1738878642873161  0.9282398947485504  1.0000
  H   H9        1.0  0.05607561692363551  0.7909449950594478  0.5525482478283195  1.0000
  H   H10       1.0  0.9439253045802117  0.709056746498618  0.0525481243244457  1.0000
  H   H11       1.0  0.943923914761193  0.20905617973228635  0.4474517615968452  1.0000
  H   H12       1.0  0.05607531340688608  0.2909430889933375  0.9474512395370382  1.0000
  H   H13       1.0  0.9587709356692996  0.649887914342763  0.477576308558632  1.0000
  H   H14       1.0  0.041229481030221345  0.8501134108796508  0.9775757781610537  1.0000
  H   H15       1.0  0.04122968231702372  0.3501119211485603  0.5224243464302986  1.0000
  H   H16       1.0  0.9587700506546072  0.1498877639120835  0.0224242312641039  1.0000
  H   H17       1.0  0.4749238343576537  0.23734923715039  0.7761825180082981  1.0000
  H   H18       1.0  0.5250762243170257  0.2626515446661273  0.2761817899098062  1.0000
  H   H19       1.0  0.5250750702366745  0.7626505923171865  0.2238174914170088  1.0000
  H   H20       1.0  0.47492268027729523  0.7373482848014491  0.7238182195155076  1.0000
  H   H21       1.0  0.7721003478017254  0.9964453836723524  0.5685265351004177  1.0000
  H   H22       1.0  0.227899300543676  0.5035536515858183  0.0685265324253947  1.0000
  H   H23       1.0  0.2278979297020953  0.0035531004710663006  0.4314734743250455  1.0000
  H   H24       1.0  0.7721002311411526  0.4964475232059158  0.9314734769997628  1.0000
  H   H25       1.0  0.2695293291776437  0.002098344580773  0.6941895020600128  1.0000
  H   H26       1.0  0.7304697405780445  0.49790385685205524  0.19418870916327077  1.0000
  H   H27       1.0  0.7304695754166773  0.9979014848868035  0.3058105073652939  1.0000
  H   H28       1.0  0.26952807771439075  0.5020973119156197  0.8058113002619933  1.0000
  C   C1        1.0  0.2890200680130164  0.1354849149664332  0.6679576532078002  1.0000
  C   C2        1.0  0.7109784058072606  0.36451596683728843  0.16795753100952737  1.0000
  C   C3        1.0  0.7109788365820721  0.8645149145017754  0.332041065090067  1.0000
  C   C4        1.0  0.2890194124851746  0.635485201930379  0.8320424784157369  1.0000
  C   C5        1.0  0.3593889510951982  0.14234857507629783  0.5731876028742846  1.0000
  C   C6        1.0  0.6406090081922925  0.35765105423486426  0.0731881358354585  1.0000
  C   C7        1.0  0.6406038504735818  0.8576418310984197  0.4268117609884783  1.0000
  C   C8        1.0  0.3593953723374527  0.6423568532017258  0.9268118735888322  1.0000
  O   O1        1.0  0.4474860722169468  0.6169338890987535  0.6296104719158038  1.0000
  O   O2        1.0  0.5525158440618156  0.8830664376726606  0.1296110110762854  1.0000
  O   O3        1.0  0.5525156320720371  0.38306460709311096  0.3703888919457299  1.0000
  O   O4        1.0  0.4474836876230129  0.11693473711907393  0.8703889983488722  1.0000
  O   O5        1.0  0.5207180447667668  0.2837942511327256  0.5437815080233933  1.0000
  O   O6        1.0  0.4792840033215171  0.2162067643554124  0.0437820844727526  1.0000
  O   O7        1.0  0.47928708630738026  0.7162042571075774  0.4562172102742181  1.0000
  O   O8        1.0  0.5207121015781482  0.7837943983878758  0.9562185705163344  1.0000
  O   O9        1.0  0.9556544865594035  0.66322081742387  0.5412185615877263  1.0000
  O   O10       1.0  0.04434239452533709  0.8367795778598506  0.0412185239187295  1.0000
  O   O11       1.0  0.04434379094440997  0.33677766671954146  0.4587814478377368  1.0000
  O   O12       1.0  0.9556554237670979  0.1632215909078241  0.9587814855065346  1.0000
  O   O13       1.0  0.4664194284937508  0.2769145262642424  0.7149617706749964  1.0000
  O   O14       1.0  0.5335789894998443  0.22308630949661531  0.2149616938859467  1.0000
  O   O15       1.0  0.533579935312332  0.7230826185793973  0.285037593186793  1.0000
  O   O16       1.0  0.46641991509447667  0.7769135199709608  0.7850383155393672  1.0000
  O   O17       1.0  0.016581755769585996  0.34533369256273977  0.6324826339168652  1.0000
  O   O18       1.0  0.9834191006671634  0.15466857533873224  0.132482514983522  1.0000
  O   O19       1.0  0.9834205756091308  0.6546661489526501  0.3675180210719589  1.0000
  O   O20       1.0  0.01657980392754157  0.8453312541291639  0.8675168488780615  1.0000
  O   O21       1.0  0.9369761693067816  0.1682974681779186  0.7741250846769674  1.0000
  O   O22       1.0  0.06302326472020778  0.3317019703291422  0.2741256912038921  1.0000
  O   O23       1.0  0.06302444867954891  0.8317023673134045  0.22587557031195618  1.0000
  O   O24       1.0  0.9369762669650045  0.6682992044629047  0.7258736726575422  1.0000
  O   O25       1.0  0.7863170543423833  0.0034626999769927004  0.6353521478184874  1.0000
  O   O26       1.0  0.21367911772043877  0.4965368624171874  0.1353520625721316  1.0000
  O   O27       1.0  0.21367950976904376  0.9965357781423592  0.3646478616070823  1.0000
  O   O28       1.0  0.7863180734818799  0.5034629610266421  0.8646473012895655  1.0000
  O   O29       1.0  0.2405749685993683  0.006400714231020301  0.528289955857872  1.0000
  O   O30       1.0  0.7594270978890025  0.49360031643252716  0.0282891602310471  1.0000
  O   O31       1.0  0.7594290761709742  0.9935991333077966  0.4717119902582922  1.0000
  O   O32       1.0  0.2405728930068207  0.5063981737346381  0.9717114947580328  1.0000
