data_image0
_chemical_formula_structural       Ag4H44C38S6N8O10
_chemical_formula_sum              "Ag4 H44 C38 S6 N8 O10"
_cell_length_a       7.153263055641947
_cell_length_b       12.525452556746894
_cell_length_c       14.211
_cell_angle_alpha    67.39753659469709
_cell_angle_beta     84.61426055401863
_cell_angle_gamma    89.64606707504532

_space_group_name_H-M_alt    "P 1"
_space_group_IT_number       1

loop_
  _space_group_symop_operation_xyz
  'x, y, z'

loop_
  _atom_site_type_symbol
  _atom_site_label
  _atom_site_symmetry_multiplicity
  _atom_site_fract_x
  _atom_site_fract_y
  _atom_site_fract_z
  _atom_site_occupancy
  Ag  Ag1       1.0  0.8312502365453653  0.9327948637099297  0.4856572106028878  1.0000
  Ag  Ag2       1.0  0.16874906351995375  0.0672042783042031  0.5143417761158986  1.0000
  Ag  Ag3       1.0  0.4914201822238766  0.9481825408743704  0.6141491633650205  1.0000
  Ag  Ag4       1.0  0.5085778507734275  0.0518191969017678  0.3858490039040775  1.0000
  H   H1        1.0  0.9468567791288861  0.0913907234109033  0.24801911448901853  1.0000
  H   H2        1.0  0.0531426580307084  0.9086110143652348  0.7519789864394113  1.0000
  H   H3        1.0  0.3350986191871073  0.6660647431449789  0.7450718513568759  1.0000
  H   H4        1.0  0.6649009093686686  0.3339387251391628  0.2549284737656379  1.0000
  H   H5        1.0  0.5270808099162066  0.646407902736648  0.6646692666918456  1.0000
  H   H6        1.0  0.4729174058734742  0.35359729605549733  0.33533123792467723  1.0000
  H   H7        1.0  0.802306830794862  0.5212454503893298  0.7271665619753805  1.0000
  H   H8        1.0  0.1976955060854877  0.47875801789481204  0.2728322231053113  1.0000
  H   H9        1.0  0.9798912720194295  0.735135374330632  0.44348339617044996  1.0000
  H   H10       1.0  0.020114866064936593  0.2648603066675008  0.5565157362185715  1.0000
  H   H11       1.0  0.9720673946888849  0.5899215257502562  0.5294385106806986  1.0000
  H   H12       1.0  0.027937430629378895  0.4100758857558731  0.4705622085628249  1.0000
  H   H13       1.0  0.7459198724677805  0.3266844355897547  0.8689060313806395  1.0000
  H   H14       1.0  0.2540865855032308  0.6733173021863834  0.13109244152471436  1.0000
  H   H15       1.0  0.7808710173193206  0.7054398569957457  0.28739285502433626  1.0000
  H   H16       1.0  0.2191296869082748  0.2945592850183871  0.7126088800747752  1.0000
  H   H17       1.0  0.9406044477000819  0.7058413348524867  0.184945513871952  1.0000
  H   H18       1.0  0.0593948980633243  0.294158672415648  0.8150552886241229  1.0000
  H   H19       1.0  0.24003083048747698  0.0321796615734726  0.1611124632121843  1.0000
  H   H20       1.0  0.7599686523702045  0.9678229414566673  0.8388860461330411  1.0000
  H   H21       1.0  0.0863449886837415  0.10810570021379111  0.0669445922056582  1.0000
  H   H22       1.0  0.9136528615211998  0.89189257654634  0.9330540524369936  1.0000
  H   H23       1.0  0.7847481760097565  0.6781670508653406  0.949407302374162  1.0000
  H   H24       1.0  0.2152413406176663  0.321832956402787  0.050594668186818056  1.0000
  H   H25       1.0  0.6112314807307867  0.6784300880818321  0.14951457262900186  1.0000
  H   H26       1.0  0.3887664608703361  0.3215699191863024  0.8504869998879911  1.0000
  H   H27       1.0  0.5532396573457561  0.2643186576624927  0.10934823914387687  1.0000
  H   H28       1.0  0.4467624510441226  0.7356804843516329  0.8906513185738305  1.0000
  H   H29       1.0  0.7896342376877854  0.2652159260621545  0.1356316201901961  1.0000
  H   H30       1.0  0.2103679620982817  0.7347849464599818  0.8643673470006021  1.0000
  H   H31       1.0  0.7279609529064571  0.20585431002844962  0.0470455275295478  1.0000
  H   H32       1.0  0.2720425596457048  0.7941448319856832  0.9529539638474916  1.0000
  H   H33       1.0  0.0790349224529052  0.6052486351345792  0.34996878964689426  1.0000
  H   H34       1.0  0.9209638749333919  0.39474098908553407  0.6500362596908573  1.0000
  H   H35       1.0  0.7335742085323673  0.4852950118768931  0.08955851424238398  1.0000
  H   H36       1.0  0.2664208333480005  0.5147032648832379  0.910441670442097  1.0000
  H   H37       1.0  0.453456484873179  0.6386733972163512  0.42988323558864044  1.0000
  H   H38       1.0  0.5465527814223988  0.36132834055977986  0.5701094751933979  1.0000
  H   H39       1.0  0.4220717775536684  0.5925138267390437  0.3231872087395331  1.0000
  H   H40       1.0  0.5779288352777385  0.4074835847670855  0.6768094874445013  1.0000
  H   H41       1.0  0.6463156359384357  0.9451688611868009  0.07356930001427033  1.0000
  H   H42       1.0  0.3536837098249705  0.0548311460813338  0.9264322061620548  1.0000
  H   H43       1.0  0.4749051208963948  0.8582532314721689  0.03991549637422049  1.0000
  H   H44       1.0  0.5250928207047281  0.1417467757959656  0.9600860761427726  1.0000
  C   C1        1.0  0.2607758593041041  0.7990689925087865  0.5273062123153168  1.0000
  C   C2        1.0  0.7392234407612078  0.2009301495053464  0.4726941817639628  1.0000
  C   C3        1.0  0.8508064182968623  0.9296920628601981  0.2525227790901853  1.0000
  C   C4        1.0  0.14919156900235464  0.0703088096619382  0.7474770908028605  1.0000
  C   C5        1.0  0.3820331147180553  0.675722708310829  0.666327540803124  1.0000
  C   C6        1.0  0.6179663681396333  0.3242798947193108  0.3336730795828445  1.0000
  C   C7        1.0  0.7955987176991002  0.6106746429786085  0.8297768242550561  1.0000
  C   C8        1.0  0.2043979111359207  0.3893270947975296  0.1702235203954458  1.0000
  C   C9        1.0  0.785048877661481  0.5123238163788457  0.8068179322894198  1.0000
  C   C10       1.0  0.2149534135207674  0.4876787866512942  0.1931818517349697  1.0000
  C   C11       1.0  0.0685426096990511  0.6608334174513075  0.4782167073644672  1.0000
  C   C12       1.0  0.9314620785249302  0.3391613982928163  0.52178278662867  1.0000
  C   C13       1.0  0.2539546018291148  0.6078080564713133  0.629371813744939  1.0000
  C   C14       1.0  0.7460491849116053  0.39219627706683013  0.3706294244526235  1.0000
  C   C15       1.0  0.7539766599479873  0.403939504376531  0.8864584215633968  1.0000
  C   C16       1.0  0.2460254941399853  0.5960605028915964  0.11354084089084886  1.0000
  C   C17       1.0  0.7341419717100164  0.39198515509043835  0.9891461329860933  1.0000
  C   C18       1.0  0.2658588239137671  0.6080157174316909  0.010853604225616152  1.0000
  C   C19       1.0  0.8266190724834812  0.7542081682878745  0.20601822667441644  1.0000
  C   C20       1.0  0.173380318978019  0.2457927042342547  0.793982984238454  1.0000
  C   C21       1.0  0.0554086638975662  0.9220579268040865  0.12148257874070369  1.0000
  C   C22       1.0  0.9445935358885007  0.07794294571804981  0.8785170921303448  1.0000
  C   C23       1.0  0.0977955468953411  0.0315289905642686  0.1375842357995793  1.0000
  C   C24       1.0  0.9022037988680649  0.9684710167038659  0.8624158630162455  1.0000
  C   C25       1.0  0.7767268166895392  0.6010244650987744  0.9317609514095934  1.0000
  C   C26       1.0  0.2232683165870171  0.3989755421693602  0.06824005010847861  1.0000
  C   C27       1.0  0.666996472153393  0.7625518126252971  0.14247843334066346  1.0000
  C   C28       1.0  0.3330042320742095  0.23744732938883575  0.857523301758448  1.0000
  C   C29       1.0  0.6995070863264203  0.2755392715552318  0.07448433323396841  1.0000
  C   C30       1.0  0.30049506776155244  0.7244607357129027  0.9255142255400344  1.0000
  C   C31       1.0  0.1717895042694408  0.6267008775962282  0.39756102716248176  1.0000
  C   C32       1.0  0.8282164967206427  0.37329220763989224  0.6024396946971392  1.0000
  C   C33       1.0  0.7467781945590062  0.4924324921360821  0.01018233445929438  1.0000
  C   C34       1.0  0.2532182971817392  0.5075666498780508  0.9898174886210711  1.0000
  C   C35       1.0  0.3575152200827745  0.6189637763139261  0.3829905012551861  1.0000
  C   C36       1.0  0.6424868883071114  0.3810353657002068  0.6170055380612779  1.0000
  C   C37       1.0  0.5929002145724453  0.8600711301295263  0.08239989033315707  1.0000
  C   C38       1.0  0.4070991311909609  0.1399288771386082  0.917602319523418  1.0000
  S   S1        1.0  0.8343886072544109  0.7498005644037349  0.7304353357659038  1.0000
  S   S2        1.0  0.1656093800448062  0.2502003081184014  0.2695659414876346  1.0000
  S   S3        1.0  0.1976774553087992  0.9210300050501844  0.42754322454416627  1.0000
  S   S4        1.0  0.8023176779677569  0.0789700022179503  0.5724556659331627  1.0000
  S   S5        1.0  0.6772493077904187  0.8837799550273432  0.3500540798960472  1.0000
  S   S6        1.0  0.32274745813888467  0.11622437851080043  0.649942564243105  1.0000
  N   N1        1.0  0.3727182212986548  0.7958736094808785  0.5957991662742546  1.0000
  N   N2        1.0  0.6272783618382789  0.2041272630412578  0.4042021773199522  1.0000
  N   N3        1.0  0.19013326752740772  0.6893348842639853  0.5417623925256762  1.0000
  N   N4        1.0  0.8098716034889506  0.3106633924961457  0.4582380314543926  1.0000
  N   N5        1.0  0.9557703842691438  0.0264127436528128  0.21889360400435723  1.0000
  N   N6        1.0  0.0442261531696957  0.9735872636153218  0.7811066274928038  1.0000
  N   N7        1.0  0.9074283981658624  0.8652297744870623  0.1946959558882853  1.0000
  N   N8        1.0  0.0925737559221105  0.1347702327810723  0.8053054176067108  1.0000
  O   O1        1.0  0.0292403301248996  0.7866188526797799  0.7331959904972437  1.0000
  O   O2        1.0  0.9707562987101283  0.2133828850963582  0.2668050578335084  1.0000
  O   O3        1.0  0.8099600306856374  0.735968613934169  0.6337973905662296  1.0000
  O   O4        1.0  0.19003940647395717  0.2640331238419691  0.3662035250831864  1.0000
  O   O5        1.0  0.6958279025967683  0.8249461439346106  0.7556392157644468  1.0000
  O   O6        1.0  0.30417017609863  0.1750564590955292  0.24436006360169668  1.0000
  O   O7        1.0  0.13101079707264063  0.8867097050767612  0.05843742543099491  1.0000
  O   O8        1.0  0.8689898614568676  0.11328857168336981  0.9415639012513211  1.0000
  O   O9        1.0  0.2120146150951001  0.5037924119230723  0.6656322512186535  1.0000
  O   O10       1.0  0.7879873105024089  0.49620326907505335  0.33437270963434435  1.0000
