data_image0
_chemical_formula_structural       Tb3H15C18N6O21
_chemical_formula_sum              "Tb3 H15 C18 N6 O21"
_cell_length_a       9.704124965974367
_cell_length_b       9.704151335557432
_cell_length_c       9.704129346374614
_cell_angle_alpha    79.5687919229604
_cell_angle_beta     79.56887431936661
_cell_angle_gamma    79.56831256978921

_space_group_name_H-M_alt    "P 1"
_space_group_IT_number       1

loop_
  _space_group_symop_operation_xyz
  'x, y, z'

loop_
  _atom_site_type_symbol
  _atom_site_label
  _atom_site_symmetry_multiplicity
  _atom_site_fract_x
  _atom_site_fract_y
  _atom_site_fract_z
  _atom_site_occupancy
  Tb  Tb1       1.0  0.5000025544303738  0.9908973232758174  0.009107469590418294  1.0000
  Tb  Tb2       1.0  0.00910953318982879  0.4999988334203493  0.9909000747956183  1.0000
  Tb  Tb3       1.0  0.9908990246658079  0.009107664580696496  0.5000024635016941  1.0000
  H   H1        1.0  0.5874972232195077  0.412510389340035  0.999998375455682  1.0000
  H   H2        1.0  0.9999981699454281  0.5874945500098079  0.412514381085593  1.0000
  H   H3        1.0  0.4125135153126891  0.9999976791980741  0.5874979858001481  1.0000
  H   H4        1.0  0.2343085608853103  0.145122113755356  0.9250977924332343  1.0000
  H   H5        1.0  0.9250964242953189  0.23430830596726787  0.14512506046230556  1.0000
  H   H6        1.0  0.1451241065640474  0.9250948657065978  0.23430978302215513  1.0000
  H   H7        1.0  0.07490882802500216  0.8548795768416323  0.7656986732911831  1.0000
  H   H8        1.0  0.854880826234826  0.7656964738099531  0.0749093238284858  1.0000
  H   H9        1.0  0.765697355236057  0.07490524536570578  0.8548827465608753  1.0000
  H   H10       1.0  0.2327010871050916  0.9761455651446411  0.9366733821187907  1.0000
  H   H11       1.0  0.9366730065803353  0.2326985882632187  0.9761477045836742  1.0000
  H   H12       1.0  0.9761467239759372  0.9366719191510028  0.232699986916451  1.0000
  H   H13       1.0  0.06333166457338993  0.023857243586562  0.7673071586950327  1.0000
  H   H14       1.0  0.023858442357358494  0.7673044853707224  0.06333264859673453  1.0000
  H   H15       1.0  0.7673069461142605  0.0633309005092428  0.023859732277067336  1.0000
  C   C1        1.0  0.33039412410316515  0.33424713951551877  0.998468958385402  1.0000
  C   C2        1.0  0.9984637053667457  0.33039162797174265  0.3342492061170574  1.0000
  C   C3        1.0  0.3342472925866035  0.9984608192680755  0.33039041663894136  1.0000
  C   C4        1.0  0.0015435954566882914  0.6657544526724379  0.6696121879098554  1.0000
  C   C5        1.0  0.6657563636030658  0.6696115383005506  0.0015399141332324937  1.0000
  C   C6        1.0  0.6696134398808625  0.0015388821445227999  0.6657574898964497  1.0000
  C   C7        1.0  0.36128396388706824  0.4806041756932657  0.0013474800946937679  1.0000
  C   C8        1.0  0.0013419423646326173  0.36128181362742845  0.4806070133600357  1.0000
  C   C9        1.0  0.48060641083850436  0.0013402553065091998  0.3612817672410528  1.0000
  C   C10       1.0  0.9986613577349956  0.5194003271364026  0.6387215310041227  1.0000
  C   C11       1.0  0.51940302664255  0.6387200086459116  0.9986598873859048  1.0000
  C   C12       1.0  0.6387204464772652  0.9986600001898863  0.5194013888972506  1.0000
  C   C13       1.0  0.5000089413664881  0.4999970218204268  2.5710387348204308e-06  1.0000
  C   C14       1.0  2.7848702902712636e-07  0.5000066358706973  0.49999937431370967  1.0000
  C   C15       1.0  0.499998509015775  0.999998354411531  0.5000079408635826  1.0000
  C   C16       1.0  0.27811777244031793  0.7218870493489219  2.5663105987445873e-06  1.0000
  C   C17       1.0  3.589191464917566e-06  0.2781165214419515  0.7218865589076201  1.0000
  C   C18       1.0  0.721887274249326  4.632566010800013e-06  0.2781173289150587  1.0000
  N   N1        1.0  0.2516614299157141  0.5865408045030308  1.5296009081653491e-07  1.0000
  N   N2        1.0  0.9999993885900763  0.251660349976028  0.5865425660380836  1.0000
  N   N3        1.0  0.5865435879064337  0.9999996972452719  0.2516598527324234  1.0000
  N   N4        1.0  7.016608641687963e-06  0.4134639432298073  0.7483435858900549  1.0000
  N   N5        1.0  0.4134656289992549  0.7483417972538078  7.141436455522372e-06  1.0000
  N   N6        1.0  0.7483436672916852  9.156756291899937e-06  0.41346537764079005  1.0000
  O   O1        1.0  0.42576498722980455  0.23130797593613292  0.026264142595707123  1.0000
  O   O2        1.0  0.026254697919050263  0.42576638324212734  0.23131422101544521  1.0000
  O   O3        1.0  0.23131119240858317  0.026252807579396593  0.42576170786749395  1.0000
  O   O4        1.0  0.9737532666400457  0.7686921139259085  0.5742411420523013  1.0000
  O   O5        1.0  0.7686944237907127  0.5742384779989463  0.9737506701173686  1.0000
  O   O6        1.0  0.5742429359598306  0.9737477645729626  0.7686948300628343  1.0000
  O   O7        1.0  0.2109344310473561  0.3259963271362806  0.9651379062756927  1.0000
  O   O8        1.0  0.9651387666737465  0.21093087409298758  0.32599589147449837  1.0000
  O   O9        1.0  0.32599429608347924  0.9651327687068092  0.21092717986461904  1.0000
  O   O10       1.0  0.03487156586117378  0.6740056424341108  0.789072699317728  1.0000
  O   O11       1.0  0.6740076154551675  0.7890692220341364  0.034871144817366  1.0000
  O   O12       1.0  0.7890733811670431  0.0348664438713939  0.6740105584115098  1.0000
  O   O13       1.0  0.17549708064581182  0.8245077419587402  3.4987384936440706e-06  1.0000
  O   O14       1.0  4.272808134000874e-06  0.17549521955340447  0.8245088207187335  1.0000
  O   O15       1.0  0.8245096126827677  1.0544986182000016e-05  0.17549584188016348  1.0000
  O   O16       1.0  0.29241198600441726  0.0539484173216493  0.9062158202312035  1.0000
  O   O17       1.0  0.9062164254784764  0.2924123195782755  0.05394986956158476  1.0000
  O   O18       1.0  0.05394905972575259  0.9062154622407236  0.2924129583555839  1.0000
  O   O19       1.0  0.09379079618194197  0.9460539958220338  0.707595077748948  1.0000
  O   O20       1.0  0.9460563339693094  0.7075932039067324  0.09379108184730715  1.0000
  O   O21       1.0  0.707594551561762  0.09379060581470358  0.94605667229969  1.0000
