data_image0
_chemical_formula_structural       In6H18C18O36
_chemical_formula_sum              "In6 H18 C18 O36"
_cell_length_a       6.948657392006424
_cell_length_b       12.62250687364356
_cell_length_c       12.622484826039523
_cell_angle_alpha    120.0001979492165
_cell_angle_beta     89.99987106072285
_cell_angle_gamma    89.99998826149118

_space_group_name_H-M_alt    "P 1"
_space_group_IT_number       1

loop_
  _space_group_symop_operation_xyz
  'x, y, z'

loop_
  _atom_site_type_symbol
  _atom_site_label
  _atom_site_symmetry_multiplicity
  _atom_site_fract_x
  _atom_site_fract_y
  _atom_site_fract_z
  _atom_site_occupancy
  In  In1       1.0  0.9944049522521327  0.34461860740231043  0.01895048857386429  1.0000
  In  In2       1.0  0.9943912609667296  0.9810472590708704  0.3256611782425693  1.0000
  In  In3       1.0  0.9943992695450916  0.6743308714762223  0.6553823940095213  1.0000
  In  In4       1.0  0.4943926586282857  0.6553837956897298  0.9810467849879315  1.0000
  In  In5       1.0  0.49440059341526427  0.018948740444621102  0.6743321012850813  1.0000
  In  In6       1.0  0.4943868283237408  0.3256642132535036  0.34461359707518086  1.0000
  H   H1        1.0  0.7133922401002194  0.3058078004091059  0.7958218383941966  1.0000
  H   H2        1.0  0.7133928454015432  0.20417784855791155  0.5099871717845514  1.0000
  H   H3        1.0  0.713392417860007  0.4900162659988327  0.6941959507273195  1.0000
  H   H4        1.0  0.21339176444745084  0.6941930495986669  0.20417896567630567  1.0000
  H   H5        1.0  0.21339691565498242  0.7958193422640678  0.4900133871565158  1.0000
  H   H6        1.0  0.213394464930623  0.5099882432027414  0.3058098518935352  1.0000
  H   H7        1.0  0.7342276217529858  0.5390855886665734  0.22189824892885918  1.0000
  H   H8        1.0  0.734225945987781  0.778097220644348  0.3171795027150352  1.0000
  H   H9        1.0  0.7342271056088451  0.6828133978388353  0.4609165241176284  1.0000
  H   H10       1.0  0.23422486400588127  0.4609161556399712  0.7781037688866091  1.0000
  H   H11       1.0  0.23423085717096367  0.22189812006845241  0.6828137676292484  1.0000
  H   H12       1.0  0.2342239410302298  0.31718102809636417  0.5390826267359472  1.0000
  H   H13       1.0  0.3109328350665663  0.14060463856716152  0.9857394280851465  1.0000
  H   H14       1.0  0.31093168757429623  0.014263738822776902  0.1548712375613022  1.0000
  H   H15       1.0  0.3109300969866169  0.845135046382083  0.8593965849378331  1.0000
  H   H16       1.0  0.810930581733686  0.8593979450611475  0.014262914982239774  1.0000
  H   H17       1.0  0.8109331683474679  0.985737930016228  0.8451338170569398  1.0000
  H   H18       1.0  0.8109347589405685  0.15486753724552227  0.14060575812831638  1.0000
  C   C1        1.0  0.6779665138842363  0.3959739330190216  0.8747201542996873  1.0000
  C   C2        1.0  0.6779600914205661  0.12527860554113351  0.5212532658552504  1.0000
  C   C3        1.0  0.6779641784292211  0.47874942869860604  0.6040324245445986  1.0000
  C   C4        1.0  0.17796495438899027  0.604026037037727  0.12527549997470533  1.0000
  C   C5        1.0  0.17796705945502822  0.8747204497434284  0.47875064564136927  1.0000
  C   C6        1.0  0.17797016807561758  0.5212487117938167  0.39597419849790316  1.0000
  C   C7        1.0  0.7148238590600825  0.4599795996298967  0.23536399279720402  1.0000
  C   C8        1.0  0.7148209511524471  0.7646366894493255  0.22460875542197536  1.0000
  C   C9        1.0  0.7148231786975574  0.7753845206937771  0.5400238646875051  1.0000
  C   C10       1.0  0.2148240080817772  0.5400230785624417  0.7646377236066612  1.0000
  C   C11       1.0  0.21483123338547466  0.2353614147448227  0.7753859205490696  1.0000
  C   C12       1.0  0.2148275667080028  0.2246126687124885  0.45997352283686865  1.0000
  C   C13       1.0  0.3274659360861136  0.21703255329040166  0.08018689033644218  1.0000
  C   C14       1.0  0.32746282182620945  0.9198161730824029  0.13684569754339987  1.0000
  C   C15       1.0  0.3274658196082925  0.8631544847220173  0.7829706942659199  1.0000
  C   C16       1.0  0.8274628611223847  0.7829681844809856  0.9198160939242396  1.0000
  C   C17       1.0  0.827463097140928  0.0801836498793449  0.8631512836531954  1.0000
  C   C18       1.0  0.8274629775974489  0.13684991223437498  0.21703332735729924  1.0000
  O   O1        1.0  0.23916102153449256  0.3170408806658288  0.11370484888999495  1.0000
  O   O2        1.0  0.23915210562761047  0.8862946184994417  0.20333713902327577  1.0000
  O   O3        1.0  0.23916120806098454  0.7966605238886831  0.68295707099562  1.0000
  O   O4        1.0  0.7391509228429739  0.6829636031742298  0.8862961559187993  1.0000
  O   O5        1.0  0.7391627170113965  0.11370346176186535  0.7966606639819955  1.0000
  O   O6        1.0  0.739166566714431  0.20333847116913978  0.31704356611282236  1.0000
  O   O7        1.0  0.7441877183845876  0.4262978151826929  0.9797938870018041  1.0000
  O   O8        1.0  0.744178810624618  0.02020221524956871  0.44650050029793675  1.0000
  O   O9        1.0  0.7441856539356309  0.5534972650890637  0.5737026613675907  1.0000
  O   O10       1.0  0.2441794058792937  0.57370391931606  0.0202041524688852  1.0000
  O   O11       1.0  0.2441868745107527  0.9797940304795248  0.553498755963403  1.0000
  O   O12       1.0  0.2441958615943136  0.4465044694066904  0.4262969625668233  1.0000
  O   O13       1.0  0.43854337002568405  0.1986150974894798  0.1493944728110178  1.0000
  O   O14       1.0  0.43853339140298425  0.8506116067704211  0.049221163982209985  1.0000
  O   O15       1.0  0.4385361443722502  0.9507809168842558  0.8013904375569537  1.0000
  O   O16       1.0  0.9385420126748939  0.8013891901745541  0.8506109419225608  1.0000
  O   O17       1.0  0.9385419174221356  0.14938993649603563  0.9507781251312434  1.0000
  O   O18       1.0  0.9385362861968647  0.04921696720473531  0.19861019091062096  1.0000
  O   O19       1.0  0.8114210850444082  0.36322511765960297  0.17141746307094505  1.0000
  O   O20       1.0  0.8114195248851387  0.8285789390870308  0.19180426738412135  1.0000
  O   O21       1.0  0.811417173815748  0.8081920364781114  0.6367747225400393  1.0000
  O   O22       1.0  0.3114137424529773  0.6367710619012145  0.8285769239302708  1.0000
  O   O23       1.0  0.31141818086281603  0.17141998486265217  0.8081914918150656  1.0000
  O   O24       1.0  0.3114262884279456  0.19181146146071631  0.36322649260716827  1.0000
  O   O25       1.0  0.5926965006057544  0.47349231367140737  0.3162405639637455  1.0000
  O   O26       1.0  0.5926881571920362  0.6837613280276288  0.1572476100309713  1.0000
  O   O27       1.0  0.5926902487643134  0.8427482631326202  0.5265107963993712  1.0000
  O   O28       1.0  0.09268691309492993  0.5265095698992612  0.6837616976875152  1.0000
  O   O29       1.0  0.09269237826512722  0.31623872594072117  0.8427497756321711  1.0000
  O   O30       1.0  0.09269460407912788  0.1572472168497967  0.4734843022593082  1.0000
  O   O31       1.0  0.5682014571797326  0.4636331277828631  0.8532264531163987  1.0000
  O   O32       1.0  0.5682048888224358  0.14677567067625574  0.6104072305294749  1.0000
  O   O33       1.0  0.5682064389854985  0.3895942455943527  0.5363729020939941  1.0000
  O   O34       1.0  0.06820414961777742  0.5363678650850691  0.14677460108615037  1.0000
  O   O35       1.0  0.0682035962262404  0.8532234926028579  0.38959528558446965  1.0000
  O   O36       1.0  0.0682063634418171  0.6104040028899577  0.4636307410922028  1.0000
