data_image0
_chemical_formula_structural       Zn2H16C44Br10N2O20
_chemical_formula_sum              "Zn2 H16 C44 Br10 N2 O20"
_cell_length_a       14.764285097097325
_cell_length_b       15.060531843771972
_cell_length_c       15.526741147649258
_cell_angle_alpha    83.88830349604962
_cell_angle_beta     62.41293912267018
_cell_angle_gamma    86.73986988509958

_space_group_name_H-M_alt    "P 1"
_space_group_IT_number       1

loop_
  _space_group_symop_operation_xyz
  'x, y, z'

loop_
  _atom_site_type_symbol
  _atom_site_label
  _atom_site_symmetry_multiplicity
  _atom_site_fract_x
  _atom_site_fract_y
  _atom_site_fract_z
  _atom_site_occupancy
  Zn  Zn1       1.0  0.5978919051363081  0.4862856528235824  0.4966729020078658  1.0000
  Zn  Zn2       1.0  0.37640404452589854  0.49755366370182225  0.5199537764374327  1.0000
  H   H1        1.0  0.560660550193724  0.45934215607105955  0.7739973715771739  1.0000
  H   H2        1.0  0.5063113264765208  0.5468417201450108  0.21577714673387763  1.0000
  H   H3        1.0  0.407962305081746  0.7730266847402377  0.4131856223871893  1.0000
  H   H4        1.0  0.31920726276826633  0.2233062394828949  0.6027632668092053  1.0000
  H   H5        1.0  0.7498764227711165  0.30111479757413667  0.8727525944455434  1.0000
  H   H6        1.0  0.3489870327860984  0.7236072188879562  0.1052875111596165  1.0000
  H   H7        1.0  0.0507295261106862  0.6239187697165319  0.38305647924563857  1.0000
  H   H8        1.0  0.9914087198409121  0.34724851393738015  0.5410838270460092  1.0000
  H   H9        1.0  0.8995015358317816  0.44031620814156003  0.6857197948523323  1.0000
  H   H10       1.0  0.8901022729411777  0.7057945945194817  0.46801330235168603  1.0000
  H   H11       1.0  0.2761327320886906  0.5291499749397418  0.7587600594239845  1.0000
  H   H12       1.0  0.773793032699331  0.46531028528393387  0.2599668454824948  1.0000
  H   H13       1.0  0.5136388034378214  0.9995375445114761  0.6190080349901379  1.0000
  H   H14       1.0  0.6204248478570663  0.9800538104399479  0.38097712832411185  1.0000
  H   H15       1.0  0.4173358959932685  0.010624402441024493  0.38525759300518553  1.0000
  H   H16       1.0  0.3069558543866719  0.9858791904064503  0.6294654676201148  1.0000
  C   C1        1.0  0.4551668007512575  0.657842278252559  0.5257673315027631  1.0000
  C   C2        1.0  0.4712871133248271  0.3296717180338291  0.48759731103728393  1.0000
  C   C3        1.0  0.6222394901613628  0.4169446194280297  0.9184389887901502  1.0000
  C   C4        1.0  0.4718540929582176  0.6038084774205287  0.06082781079219771  1.0000
  C   C5        1.0  0.6976432555730124  0.40029089303093457  0.9482412394665829  1.0000
  C   C6        1.0  0.39338779362940113  0.6203814183740164  0.03582309055157396  1.0000
  C   C7        1.0  0.4886636131031636  0.8936207806608607  0.5767101739510706  1.0000
  C   C8        1.0  0.5544065785735555  0.0898676369030085  0.4265058151714811  1.0000
  C   C9        1.0  0.4842762115518937  0.7999762597017365  0.5858643251097247  1.0000
  C   C10       1.0  0.557047973982904  0.1835292322332975  0.4183822910725539  1.0000
  C   C11       1.0  0.4566838339351591  0.7576421306013682  0.5252614413814598  1.0000
  C   C12       1.0  0.4720660300551104  0.23037913865523757  0.48365946277405664  1.0000
  C   C13       1.0  0.4317674629663912  0.8072642518560328  0.4576015017425659  1.0000
  C   C14       1.0  0.384767452381908  0.18529329980725606  0.5543039502733436  1.0000
  C   C15       1.0  0.4362649685271549  0.9001245323652469  0.44836480656363875  1.0000
  C   C16       1.0  0.382451823994721  0.09235715904443248  0.5628412712327915  1.0000
  C   C17       1.0  0.4652405344337609  0.9444181165255614  0.5073991841268749  1.0000
  C   C18       1.0  0.467579539457553  0.04348334821681019  0.4995008112055004  1.0000
  C   C19       1.0  0.1168426062360339  0.5487456258479143  0.4445595318753774  1.0000
  C   C20       1.0  0.8857909527976133  0.4197223993180543  0.528720849131737  1.0000
  C   C21       1.0  0.20973776766287242  0.5458254692599168  0.44945328970455733  1.0000
  C   C22       1.0  0.7939800582783647  0.4201942101230571  0.5212678919651593  1.0000
  C   C23       1.0  0.6049452925804103  0.5084015259452386  0.3176817150925899  1.0000
  C   C24       1.0  0.4429305088990392  0.48096147509614434  0.6918973196114138  1.0000
  C   C25       1.0  0.1404997696132355  0.4622623493027618  0.5985204031660986  1.0000
  C   C26       1.0  0.7983852214125235  0.5725072776095885  0.48674202073450334  1.0000
  C   C27       1.0  0.0429971156665729  0.46406702138484945  0.6028626545446443  1.0000
  C   C28       1.0  0.8867777161791965  0.579509300065304  0.49730024660365046  1.0000
  C   C29       1.0  0.031150795634324907  0.5054443639511205  0.5225166029324271  1.0000
  C   C30       1.0  0.9330065165978  0.5018998802050945  0.5187060176708868  1.0000
  C   C31       1.0  0.6439670045108203  0.4962723284558663  0.21283683502606707  1.0000
  C   C32       1.0  0.4164491895520754  0.5041600901221983  0.7912253371276492  1.0000
  C   C33       1.0  0.766341052184913  0.43266310517039835  0.0643306233116618  1.0000
  C   C34       1.0  0.3081220791753836  0.5764598901818657  0.9377712555265846  1.0000
  C   C35       1.0  0.7423445035459153  0.4585426714531948  0.15668584454688525  1.0000
  C   C36       1.0  0.32096467995467043  0.5438593999826864  0.8513541347945832  1.0000
  C   C37       1.0  0.5807828116359133  0.5189920927875917  0.1702494814751744  1.0000
  C   C38       1.0  0.48920004608422113  0.488668709621308  0.8238807596565891  1.0000
  C   C39       1.0  0.6070639803027547  0.5015253041191058  0.07460255230893151  1.0000
  C   C40       1.0  0.47474514902283715  0.5123571902585907  0.9141450290188331  1.0000
  C   C41       1.0  0.6957448585200156  0.4468538277161257  0.02541430219427796  1.0000
  C   C42       1.0  0.38684115787381057  0.5674980735498636  0.9666938068084008  1.0000
  C   C43       1.0  0.5420513158026026  0.5304290527885342  0.030300111238595707  1.0000
  C   C44       1.0  0.5467680569190281  0.4865868814329914  0.9518373689661244  1.0000
  Br  Br1       1.0  0.3204845046163811  0.6073539575185265  0.3456617276102705  1.0000
  Br  Br2       1.0  0.7315173376577065  0.31059516679964355  0.5359739501917176  1.0000
  Br  Br3       1.0  0.1563620254706066  0.402808305283699  0.7037594814919713  1.0000
  Br  Br4       1.0  0.7498354688293816  0.6803099132297775  0.4466983353814912  1.0000
  Br  Br5       1.0  0.8989943175478459  0.3824798971386443  0.9962869442824669  1.0000
  Br  Br6       1.0  0.17765962669003704  0.6276170316876416  0.013289065443402075  1.0000
  Br  Br7       1.0  0.6201018873888203  0.32709889196950565  0.8390465337008166  1.0000
  Br  Br8       1.0  0.4948222175892242  0.6995982248288894  0.12177302706282937  1.0000
  Br  Br9       1.0  0.5067079657756111  0.7361174693391348  0.6865254365781723  1.0000
  Br  Br10      1.0  0.673646210887462  0.2409865276014855  0.31544610188878147  1.0000
  N   N1        1.0  0.221324287009395  0.5023493534261759  0.5235087920177577  1.0000
  N   N2        1.0  0.7521701432550714  0.4950868253763616  0.5003387052902468  1.0000
  O   O1        1.0  0.5326769131226072  0.6141368357391388  0.520661424964004  1.0000
  O   O2        1.0  0.38760207752027037  0.3704797244242641  0.5015112086806752  1.0000
  O   O3        1.0  0.3753842455540735  0.6267869523349316  0.5277294387211028  1.0000
  O   O4        1.0  0.550041375186737  0.36347244862428607  0.48181330300164393  1.0000
  O   O5        1.0  0.6721332466089651  0.5045277542049504  0.35088247505560577  1.0000
  O   O6        1.0  0.3728590187221244  0.48645644299675445  0.6643083790518175  1.0000
  O   O7        1.0  0.5108726851937178  0.5200059698821562  0.37025975190821464  1.0000
  O   O8        1.0  0.5356103637282318  0.4582863969419294  0.6392400222976419  1.0000
  O   O9        1.0  0.7672686006658438  0.33355285769000176  0.9150056488928865  1.0000
  O   O10       1.0  0.3293536444135868  0.6913485292027772  0.06460685294529608  1.0000
  O   O11       1.0  0.11532259721154503  0.5902817658631391  0.3638361705551247  1.0000
  O   O12       1.0  0.9252494497897957  0.33959902436797046  0.5427368467553393  1.0000
  O   O13       1.0  0.9652827332650417  0.4248366081723702  0.6844465407442185  1.0000
  O   O14       1.0  0.932493399831202  0.6596733637044424  0.48314067171044417  1.0000
  O   O15       1.0  0.24630179146104336  0.5532919189861049  0.8245681938224435  1.0000
  O   O16       1.0  0.8094348383685883  0.4439108421519293  0.19281453170714258  1.0000
  O   O17       1.0  0.5149763006570822  0.9348964034685848  0.6354626725091208  1.0000
  O   O18       1.0  0.6361890332074795  0.04386918982349639  0.3636902452661558  1.0000
  O   O19       1.0  0.4116707350497961  0.9467247740964311  0.3817609547306375  1.0000
  O   O20       1.0  0.29675297577685456  0.050465918803311596  0.6333174844267829  1.0000
