data_image0
_chemical_formula_structural       Ca2P4H24C24O12
_chemical_formula_sum              "Ca2 P4 H24 C24 O12"
_cell_length_a       5.578004516597229
_cell_length_b       7.682608803884789
_cell_length_c       15.797962071552547
_cell_angle_alpha    101.38687453960172
_cell_angle_beta     100.20161890895746
_cell_angle_gamma    90.00616442332996

_space_group_name_H-M_alt    "P 1"
_space_group_IT_number       1

loop_
  _space_group_symop_operation_xyz
  'x, y, z'

loop_
  _atom_site_type_symbol
  _atom_site_label
  _atom_site_symmetry_multiplicity
  _atom_site_fract_x
  _atom_site_fract_y
  _atom_site_fract_z
  _atom_site_occupancy
  Ca  Ca1       1.0  0.8968957475499624  0.2500461523952993  0.9999977521928828  1.0000
  Ca  Ca2       1.0  0.1031011286128631  0.7499538757658614  2.3623683774001125e-06  1.0000
  P   P1        1.0  0.4052547825525822  0.4174183286959162  0.12439846879176741  1.0000
  P   P2        1.0  0.28046927580270165  0.08252186088465409  0.8756370228025503  1.0000
  P   P3        1.0  0.5947437818359943  0.5825790530535855  0.8755995946704047  1.0000
  P   P4        1.0  0.7195240238429221  0.9174794893756154  0.12436426280587644  1.0000
  H   H1        1.0  0.36583237687677433  0.10240759404113221  0.1074160375714399  1.0000
  H   H2        1.0  0.25806723846680063  0.39741048078289515  0.8926008917549453  1.0000
  H   H3        1.0  0.6341644318371281  0.8975910978588572  0.8925852086420177  1.0000
  H   H4        1.0  0.7419296374679193  0.6025895435723287  0.10739985541707141  1.0000
  H   H5        1.0  0.7708356832506453  0.397171826600129  0.2809721289937528  1.0000
  H   H6        1.0  0.48913155420761717  0.10294876835877889  0.7190359012721785  1.0000
  H   H7        1.0  0.22916868091013498  0.6028322006093205  0.7190263113197874  1.0000
  H   H8        1.0  0.5108620136369595  0.897057900304638  0.2809652860027754  1.0000
  H   H9        1.0  0.7818198214804328  0.5151491038648857  0.43921361424007443  1.0000
  H   H10       1.0  0.34141909311626517  0.9847638683020391  0.5608230846965796  1.0000
  H   H11       1.0  0.2181939182854293  0.48486023528759853  0.5607859297099509  1.0000
  H   H12       1.0  0.658577983796583  0.015240142001097499  0.4391780631834052  1.0000
  H   H13       1.0  0.4419872017315214  0.6960955552391895  0.48867323700360293  1.0000
  H   H14       1.0  0.9521919816760587  0.8037009529773586  0.5113325889161756  1.0000
  H   H15       1.0  0.5580228956649621  0.30391379639275573  0.5113241813704619  1.0000
  H   H16       1.0  0.047808604533173614  0.1963004027714277  0.4886678869580834  1.0000
  H   H17       1.0  0.0903837643823664  0.7567553105164321  0.37791959558955307  1.0000
  H   H18       1.0  0.7115772928919812  0.7428287841165541  0.6220985432393675  1.0000
  H   H19       1.0  0.909622220099024  0.2432447264083422  0.6220791904986172  1.0000
  H   H20       1.0  0.28842127104037724  0.2571685900210881  0.377900785444325  1.0000
  H   H21       1.0  0.0772925741670818  0.6345978950940747  0.21992862699546126  1.0000
  H   H22       1.0  0.8570124465462499  0.8651011718538938  0.7800780408919084  1.0000
  H   H23       1.0  0.9227023467115887  0.36539948010523915  0.780070473944555  1.0000
  H   H24       1.0  0.1429861841507147  0.1348975271271229  0.2199220539718638  1.0000
  C   C1        1.0  0.4211771291072496  0.5061956913178562  0.24005008342459896  1.0000
  C   C2        1.0  0.1806124092340511  0.9936719057209017  0.7599685281161471  1.0000
  C   C3        1.0  0.578827167604608  0.49380699963042923  0.7599494885411391  1.0000
  C   C4        1.0  0.819380823875079  0.0063281235019232  0.24003135870142958  1.0000
  C   C5        1.0  0.6205002715852288  0.4742043149903807  0.3022252321290821  1.0000
  C   C6        1.0  0.3175966986376438  0.025723963634071402  0.6978177103472022  1.0000
  C   C7        1.0  0.3795040921193333  0.5257997046072092  0.6977744734059714  1.0000
  C   C8        1.0  0.6824036191445374  0.9742720699056376  0.3021834964712866  1.0000
  C   C9        1.0  0.6271144950640065  0.5421099343407929  0.39135339160112187  1.0000
  C   C10       1.0  0.23476910388419722  0.9577369602869082  0.6086957957585853  1.0000
  C   C11       1.0  0.37289337770883446  0.4578914268965164  0.6086462745389696  1.0000
  C   C12       1.0  0.7652260172882775  0.0422643894425221  0.3913056037216763  1.0000
  C   C13       1.0  0.4364662274751724  0.6431367990612811  0.4190251149789646  1.0000
  C   C14       1.0  0.016420959543573605  0.8566077697857679  0.58100605368071  1.0000
  C   C15       1.0  0.5635470426573974  0.3568632281282902  0.580975391818079  1.0000
  C   C16       1.0  0.9835776704690673  0.14339091777745952  0.41899593901533894  1.0000
  C   C17       1.0  0.23860886189716984  0.6762370005802507  0.3573015461135043  1.0000
  C   C18       1.0  0.8804081412046114  0.8234684186313216  0.642702190789997  1.0000
  C   C19       1.0  0.7614006305119644  0.32376035895458694  0.6427003636334945  1.0000
  C   C20       1.0  0.1195886012009026  0.1765289560371599  0.3572970240218538  1.0000
  C   C21       1.0  0.22996649310852751  0.6072689805025817  0.2681734979963082  1.0000
  C   C22       1.0  0.9612171636189828  0.8925103560268679  0.7318294590366392  1.0000
  C   C23       1.0  0.7700321378165429  0.3927297222843648  0.7318259642567071  1.0000
  C   C24       1.0  0.0387795787865315  0.1074870186416135  0.2681697557752116  1.0000
  O   O1        1.0  0.6642407568779021  0.41469037793073943  0.10438653387740261  1.0000
  O   O2        1.0  0.5595590230455728  0.0854588255369961  0.895660672497236  1.0000
  O   O3        1.0  0.3357596283532018  0.5853069918701406  0.8956135412888885  1.0000
  O   O4        1.0  0.44043589760498497  0.9145385458563879  0.10433906105353688  1.0000
  O   O5        1.0  0.2185669587752415  0.5158328321776934  0.07168951903064172  1.0000
  O   O6        1.0  0.1467466849961596  0.9840518941072105  0.9283409486892253  1.0000
  O   O7        1.0  0.7814334936766799  0.48416587007842077  0.9283100570942082  1.0000
  O   O8        1.0  0.8532481018970869  0.015942823793494695  0.07165788511214541  1.0000
  O   O9        1.0  0.2845434145182608  0.22352286690498596  0.1049505186970947  1.0000
  O   O10       1.0  0.17917523977747857  0.27636254358701257  0.8950991641666307  1.0000
  O   O11       1.0  0.7154497506857354  0.7764758184448154  0.8950517649942  1.0000
  O   O12       1.0  0.820825346203648  0.7236388083558438  0.10490194431838516  1.0000
