data_image0
_chemical_formula_structural       Ag4H36C24Br4N12O4
_chemical_formula_sum              "Ag4 H36 C24 Br4 N12 O4"
_cell_length_a       4.33144592609515
_cell_length_b       11.613075778735071
_cell_length_c       17.49314876209167
_cell_angle_alpha    90.00029649002175
_cell_angle_beta     89.99977954342279
_cell_angle_gamma    90.24185214714974

_space_group_name_H-M_alt    "P 1"
_space_group_IT_number       1

loop_
  _space_group_symop_operation_xyz
  'x, y, z'

loop_
  _atom_site_type_symbol
  _atom_site_label
  _atom_site_symmetry_multiplicity
  _atom_site_fract_x
  _atom_site_fract_y
  _atom_site_fract_z
  _atom_site_occupancy
  Ag  Ag1       1.0  0.283841425671568  0.5045340885743244  0.9107367183638644  1.0000
  Ag  Ag2       1.0  0.7161801723772925  0.9954671710195554  0.4107364702182892  1.0000
  Ag  Ag3       1.0  0.7161801837555614  0.4954641212108441  0.0892634667811905  1.0000
  Ag  Ag4       1.0  0.28384846545161924  0.004534465290930701  0.5892642865817803  1.0000
  H   H1        1.0  0.6993645466080025  0.9481689117384491  0.0370495269602955  1.0000
  H   H2        1.0  0.30062148064318706  0.5518321438701718  0.5370504941268948  1.0000
  H   H3        1.0  0.3006177913528916  0.05182853793947119  0.9629518015064847  1.0000
  H   H4        1.0  0.6993771713800355  0.44817043073666685  0.4629491193839996  1.0000
  H   H5        1.0  0.9142778372638886  0.8188539536636271  0.023048294166741805  1.0000
  H   H6        1.0  0.08572462265782829  0.6811486741032764  0.5230499070793897  1.0000
  H   H7        1.0  0.08573222929362602  0.1811442858153001  0.9769507476789983  1.0000
  H   H8        1.0  0.9142832123152117  0.31885215458065364  0.47695142138134367  1.0000
  H   H9        1.0  0.23562816392932018  0.7536255452751986  0.6578427334686764  1.0000
  H   H10       1.0  0.7643650599867867  0.7463721166805184  0.15784501189485664  1.0000
  H   H11       1.0  0.7643748485521158  0.24636840659513132  0.3421563083729566  1.0000
  H   H12       1.0  0.2356222288371724  0.2536365152274485  0.8421557449365124  1.0000
  H   H13       1.0  0.6452568871820573  0.8700718127060085  0.7515531452906217  1.0000
  H   H14       1.0  0.3547394983250173  0.6299274242443998  0.2515588336759436  1.0000
  H   H15       1.0  0.3547507424779468  0.12992212727176167  0.24844246663460007  1.0000
  H   H16       1.0  0.6452592050196914  0.3700768725422989  0.7484430664473861  1.0000
  H   H17       1.0  0.9368676578777624  0.498228172863044  0.7738885419578948  1.0000
  H   H18       1.0  0.0631234957928726  0.0017736548136469004  0.2738923452053612  1.0000
  H   H19       1.0  0.0631217085210523  0.5017727033224801  0.2261087849449055  1.0000
  H   H20       1.0  0.9368730016416577  0.9982340922613349  0.726111269882061  1.0000
  H   H21       1.0  0.1349553101221233  0.49272581561443457  0.6837307517653811  1.0000
  H   H22       1.0  0.8650395001661052  0.007272724604853  0.1837343990462301  1.0000
  H   H23       1.0  0.8650339535930698  0.5072716162312928  0.3162671467839004  1.0000
  H   H24       1.0  0.1349522774514043  0.9927315900007583  0.816267501080354  1.0000
  H   H25       1.0  0.8208529057318471  0.5912233029278511  0.6972027336853016  1.0000
  H   H26       1.0  0.17914667312020066  0.9087763682180211  0.1972049733468921  1.0000
  H   H27       1.0  0.17914802920636672  0.4087784046494177  0.3027957365182914  1.0000
  H   H28       1.0  0.8208497216532892  0.09122793450610088  0.8027963551251459  1.0000
  H   H29       1.0  0.9707297534116038  0.7800695287563144  0.8722538073253645  1.0000
  H   H30       1.0  0.0292649039946937  0.719936670590819  0.3722561073517311  1.0000
  H   H31       1.0  0.02927577301733209  0.21993130585175177  0.12774351956984017  1.0000
  H   H32       1.0  0.9707337993590458  0.28006762619145315  0.6277446494668553  1.0000
  H   H33       1.0  0.7592331913255563  0.6813859882432566  0.9289159189317715  1.0000
  H   H34       1.0  0.24076962506920546  0.8186145985948771  0.4289200771007202  1.0000
  H   H35       1.0  0.240781389717867  0.3186087950077408  0.071081407948796  1.0000
  H   H36       1.0  0.7592382868905716  0.1813888133566195  0.571084109626291  1.0000
  C   C1        1.0  0.36661624784527186  0.6292471815596484  0.8242910512482451  1.0000
  C   C2        1.0  0.6333790136414663  0.8707534798132668  0.32429445193484696  1.0000
  C   C3        1.0  0.6333891502392959  0.37074934761869127  0.1757057039872265  1.0000
  C   C4        1.0  0.36661976668997903  0.12925340024100507  0.6757103064547607  1.0000
  C   C5        1.0  0.32114696154145156  0.7326623167313999  0.7143390615540922  1.0000
  C   C6        1.0  0.678845446396359  0.7673383660360998  0.2143409201980973  1.0000
  C   C7        1.0  0.6788537937173588  0.2673333632429262  0.28565826533445454  1.0000
  C   C8        1.0  0.32114863981043135  0.2326659426232283  0.7856592649702846  1.0000
  C   C9        1.0  0.521829285229181  0.7903255664849097  0.760621186919856  1.0000
  C   C10       1.0  0.4781624168215047  0.7096763358238859  0.2606247486279116  1.0000
  C   C11       1.0  0.4781714700386743  0.20967011348498946  0.23937499666394046  1.0000
  C   C12       1.0  0.5218432122594265  0.2903279431394806  0.7393760081874206  1.0000
  C   C13       1.0  0.017088388871499695  0.5487922360932842  0.724840711992705  1.0000
  C   C14       1.0  0.9828946187696772  0.9512085517680691  0.22484292125061958  1.0000
  C   C15       1.0  0.9829008748436934  0.45120519575244333  0.2751571865565765  1.0000
  C   C16       1.0  0.017090233129671596  0.0487957806520214  0.7751578355744753  1.0000
  C   C17       1.0  0.7373555207171023  0.7571984964554871  0.8918724143360991  1.0000
  C   C18       1.0  0.2626271810463976  0.7428044401864893  0.39187343261009017  1.0000
  C   C19       1.0  0.2626430286179797  0.24280063381377204  0.1081283424736554  1.0000
  C   C20       1.0  0.7373759854401456  0.2571946782034971  0.6081273241974898  1.0000
  C   C21       1.0  0.6154737963699332  0.8598153369003897  0.9371938196789245  1.0000
  C   C22       1.0  0.384549281386967  0.640172344275875  0.4371892259090301  1.0000
  C   C23       1.0  0.38453131933354  0.140171720344064  0.0628046504974762  1.0000
  C   C24       1.0  0.6154561936843379  0.3598267681700377  0.5628103875927195  1.0000
  Br  Br1       1.0  0.8084544462350606  0.36520817861447336  0.944247067827618  1.0000
  Br  Br2       1.0  0.1915568694678527  0.1347871592917542  0.4442483516779987  1.0000
  Br  Br3       1.0  0.1915762691370801  0.6347857019890597  0.05575426061049169  1.0000
  Br  Br4       1.0  0.8084509654871185  0.8652136694010222  0.5557552633922213  1.0000
  N   N1        1.0  0.2290512859073885  0.6354162037440217  0.7543831855753708  1.0000
  N   N2        1.0  0.7709404120836679  0.86458220590017  0.25438415031745615  1.0000
  N   N3        1.0  0.770949495012168  0.3645803373202339  0.24561528461939017  1.0000
  N   N4        1.0  0.2290512115287413  0.13541694218578468  0.7456160348431807  1.0000
  N   N5        1.0  0.5472090610914933  0.7260513422181348  0.8270682212225182  1.0000
  N   N6        1.0  0.45278382226364755  0.7739484855126759  0.32707031311099394  1.0000
  N   N7        1.0  0.45279397705972  0.27394347073769154  0.17293082062058568  1.0000
  N   N8        1.0  0.5472171383307867  0.2260540831567397  0.6729298720511921  1.0000
  N   N9        1.0  0.7523169753967238  0.8762521217727013  0.0046464069295169  1.0000
  N   N10       1.0  0.24765350664795696  0.6237521688095525  0.5046505295215695  1.0000
  N   N11       1.0  0.2476699027560016  0.123742732745086  0.995348633354574  1.0000
  N   N12       1.0  0.7523451196829001  0.37624954472285316  0.4953519422497195  1.0000
  O   O1        1.0  0.4114406729780455  0.9244184682272377  0.9103217912318442  1.0000
  O   O2        1.0  0.5885187284212776  0.5755872539567194  0.41032307309856714  1.0000
  O   O3        1.0  0.588532353679625  0.0755764219482984  0.08967839393011447  1.0000
  O   O4        1.0  0.4114729978611962  0.42441533847567575  0.5896782553727036  1.0000
