data_image0
_chemical_formula_structural       U4H40C28N2O20
_chemical_formula_sum              "U4 H40 C28 N2 O20"
_cell_length_a       7.215141320108657
_cell_length_b       11.375509161479329
_cell_length_c       12.388316565576439
_cell_angle_alpha    76.37831484957196
_cell_angle_beta     74.31004996813837
_cell_angle_gamma    84.19454515068311

_space_group_name_H-M_alt    "P 1"
_space_group_IT_number       1

loop_
  _space_group_symop_operation_xyz
  'x, y, z'

loop_
  _atom_site_type_symbol
  _atom_site_label
  _atom_site_symmetry_multiplicity
  _atom_site_fract_x
  _atom_site_fract_y
  _atom_site_fract_z
  _atom_site_occupancy
  U   U1        1.0  0.8030424028171906  0.7993080790151554  0.9981990488926793  1.0000
  U   U2        1.0  0.19695955934160028  0.20069328375201687  0.0017988710378417938  1.0000
  U   U3        1.0  0.8914129445470707  0.507121434122233  0.8788738849786665  1.0000
  U   U4        1.0  0.10858474997472461  0.4928790154183886  0.12112650955540259  1.0000
  H   H1        1.0  0.6309495645922069  0.0441487429803971  0.058731814422976925  1.0000
  H   H2        1.0  0.3690510732620352  0.9558508059764254  0.941267507465241  1.0000
  H   H3        1.0  0.831132901922686  0.0701336231487844  0.9609576865138576  1.0000
  H   H4        1.0  0.1688662919556023  0.9298659224911957  0.03904266815786879  1.0000
  H   H5        1.0  0.946209729638788  0.6031364296304318  0.588968736854973  1.0000
  H   H6        1.0  0.053792168229143976  0.39686583641276485  0.41102980682251183  1.0000
  H   H7        1.0  0.8072119949895009  0.5909385750226407  0.43010467182479306  1.0000
  H   H8        1.0  0.19278270527446037  0.4090636842899685  0.569894994099897  1.0000
  H   H9        1.0  0.3141248432758487  0.4259748834760657  0.6901386711223193  1.0000
  H   H10       1.0  0.6858715269413977  0.5740237522541989  0.30986312536944627  1.0000
  H   H11       1.0  0.472955157541783  0.448560950768247  0.835750266426764  1.0000
  H   H12       1.0  0.5270455312378458  0.551437689000366  0.1642508567166771  1.0000
  H   H13       1.0  0.29859137220363857  0.7541241407140973  0.8174820808509294  1.0000
  H   H14       1.0  0.7014078261298097  0.24587540689660162  0.1825174654867324  1.0000
  H   H15       1.0  0.49691965739436456  0.7054368817080033  0.7174849313895988  1.0000
  H   H16       1.0  0.503079545394236  0.29456266787342145  0.2825138066139984  1.0000
  H   H17       1.0  0.5712434407511323  0.9205797979008068  0.6190556984710154  1.0000
  H   H18       1.0  0.4287587053699012  0.0794188510968254  0.3809419668867377  1.0000
  H   H19       1.0  0.3928826747419619  0.9722536438608386  0.7281732705839871  1.0000
  H   H20       1.0  0.6071222861298152  0.0277459111050575  0.27182456962184887  1.0000
  H   H21       1.0  0.13678221743187174  0.8860682293125138  0.6739652193389529  1.0000
  H   H22       1.0  0.8632198599431646  0.11393132099042454  0.32603387809982814  1.0000
  H   H23       1.0  0.263662809511942  0.0008409736108418999  0.5653667672788174  1.0000
  H   H24       1.0  0.7363392124825479  0.9991594839095727  0.43463133723880515  1.0000
  H   H25       1.0  0.4567206853402012  0.8386763824561356  0.46582877593357325  1.0000
  H   H26       1.0  0.5432798926783419  0.16132407174743688  0.5341703613675505  1.0000
  H   H27       1.0  0.30845963550628847  0.7291387945686623  0.5704954053558423  1.0000
  H   H28       1.0  0.6915408871317011  0.2708625668523936  0.42950273902411595  1.0000
  H   H29       1.0  0.15986378541401783  0.9516897479594211  0.41779150172607865  1.0000
  H   H30       1.0  0.8401352887928721  0.0483116081740675  0.5822084837714454  1.0000
  H   H31       1.0  0.015001942239962311  0.8400657398223429  0.518725481726271  1.0000
  H   H32       1.0  0.984998631323421  0.15993471241051077  0.4812744639089104  1.0000
  H   H33       1.0  0.32327688044822617  0.7906314628059902  0.30616384161171334  1.0000
  H   H34       1.0  0.6767221937586639  0.2093698933274979  0.6938361438858107  1.0000
  H   H35       1.0  0.15782504856019128  0.686304930727367  0.4027651171422874  1.0000
  H   H36       1.0  0.8421740301018514  0.3136964273768399  0.5972340600211794  1.0000
  H   H37       1.0  0.05150978460311959  0.9267913806492344  0.2515532819764559  1.0000
  H   H38       1.0  0.9484892851486177  0.07320997351352791  0.7484475118551328  1.0000
  H   H39       1.0  0.8830046053543511  0.8291309889814967  0.35474194687689226  1.0000
  H   H40       1.0  0.11699302933174491  0.1708703658058681  0.6452582630700688  1.0000
  C   C1        1.0  0.805331730299052  0.5654384175601166  0.6066500366652646  1.0000
  C   C2        1.0  0.1946732904084243  0.43456023215902917  0.39334798812767247  1.0000
  C   C3        1.0  0.7253596706730006  0.5584949535586928  0.5184612783473455  1.0000
  C   C4        1.0  0.27464095827093615  0.4415045914566776  0.4815396602089946  1.0000
  C   C5        1.0  0.5449182689043325  0.5063950423232414  0.5452074444486994  1.0000
  C   C6        1.0  0.45508098035450206  0.4936035960992625  0.4547939031441856  1.0000
  C   C7        1.0  0.4538662480778085  0.4664681716275752  0.6616886877138908  1.0000
  C   C8        1.0  0.5461315661153917  0.5335304674195314  0.33831207599437346  1.0000
  C   C9        1.0  0.5425494570489776  0.4780322606113644  0.7449456905280126  1.0000
  C   C10       1.0  0.4574526203260588  0.5219672896915738  0.2550534069107683  1.0000
  C   C11       1.0  0.5652024338329227  0.7817312782879142  0.8419445975253124  1.0000
  C   C12       1.0  0.43479676450051835  0.2182682693227918  0.15805494881234947  1.0000
  C   C13       1.0  0.44322358710971327  0.7788041983692794  0.7624469081546008  1.0000
  C   C14       1.0  0.5567771105802207  0.22119444534078533  0.23755259832071823  1.0000
  C   C15       1.0  0.4287178085075923  0.900541606630561  0.6789954247600105  1.0000
  C   C16       1.0  0.5712828338018026  0.09945794429698648  0.3210030887941499  1.0000
  C   C17       1.0  0.27710768508770656  0.9063488104568763  0.6120801865521341  1.0000
  C   C18       1.0  0.7228929527665359  0.0936507384999388  0.3879191353360837  1.0000
  C   C19       1.0  0.3122023421794892  0.8250365124975546  0.5255768462564985  1.0000
  C   C20       1.0  0.6877982358390539  0.17496394170601798  0.4744222910446253  1.0000
  C   C21       1.0  0.15852671401177787  0.8541205134454797  0.4578057913922746  1.0000
  C   C22       1.0  0.8414738041710662  0.1458808460048431  0.542193161321748  1.0000
  C   C23       1.0  0.17770711848746149  0.7832194619851123  0.36458986589720854  1.0000
  C   C24       1.0  0.8222905161986345  0.2167818928022597  0.6354103440497595  1.0000
  C   C25       1.0  0.02847673480400905  0.8316393320932252  0.2953791927669512  1.0000
  C   C26       1.0  0.9715209043372327  0.16836202466487293  0.704620208845952  1.0000
  C   C27       1.0  0.018207543145628294  0.7602395185796665  0.2092768189335317  1.0000
  C   C28       1.0  0.981791590896961  0.23976093230706402  0.7907233511510938  1.0000
  N   N1        1.0  0.7168535988420716  0.5251423859599456  0.7185119208250653  1.0000
  N   N2        1.0  0.283148538368664  0.4748562590962349  0.28148736120081697  1.0000
  O   O1        1.0  0.9917504143681127  0.8547829415689422  0.8708038624802296  1.0000
  O   O2        1.0  0.00825434026565119  0.14521931731286492  0.12919827396868294  1.0000
  O   O3        1.0  0.609078033247819  0.7659734763107764  0.12814615502099957  1.0000
  O   O4        1.0  0.3909211052499301  0.23402697654667998  0.8718532067295609  1.0000
  O   O5        1.0  0.07902146984024228  0.5966058883400222  0.7718221510431177  1.0000
  O   O6        1.0  0.9209748449964578  0.40339365460772575  0.22817865252748948  1.0000
  O   O7        1.0  0.6921013170865961  0.416077198380286  0.9698620024488207  1.0000
  O   O8        1.0  0.30789649265144436  0.5839214386960948  0.03013956959350137  1.0000
  O   O9        1.0  0.9090587930512014  0.6061903828463855  0.018570084399776497  1.0000
  O   O10       1.0  0.0909373976589478  0.3938109686241447  0.9814311583306857  1.0000
  O   O11       1.0  0.6841489369429397  0.6943899870280887  0.8682573437387829  1.0000
  O   O12       1.0  0.3158502569353487  0.3056095586118913  0.13174301093293647  1.0000
  O   O13       1.0  0.5561412099322566  0.8730341211264943  0.8874371129634039  1.0000
  O   O14       1.0  0.443857992856337  0.12696542845493042  0.11256162504019332  1.0000
  O   O15       1.0  0.02450783659585199  0.8180753083256745  0.10520903658620984  1.0000
  O   O16       1.0  0.9754927369675312  0.18192514390717918  0.8947909090489714  1.0000
  O   O17       1.0  0.9976646143138623  0.6470883121350964  0.23998812262888689  1.0000
  O   O18       1.0  0.0023345108184215915  0.3529121348101896  0.7600136641238604  1.0000
  O   O19       1.0  0.7423597008285369  0.004981736539015501  0.010036597386857676  1.0000
  O   O20       1.0  0.2576409370257053  0.9950178124178066  0.9899627245013601  1.0000
