data_image0
_chemical_formula_structural       Zn4H44C68N12O16
_chemical_formula_sum              "Zn4 H44 C68 N12 O16"
_cell_length_a       10.903993598339511
_cell_length_b       13.06092782100231
_cell_length_c       21.06365309394775
_cell_angle_alpha    89.99993373042855
_cell_angle_beta     96.21171554390777
_cell_angle_gamma    89.99999156431534

_space_group_name_H-M_alt    "P 1"
_space_group_IT_number       1

loop_
  _space_group_symop_operation_xyz
  'x, y, z'

loop_
  _atom_site_type_symbol
  _atom_site_label
  _atom_site_symmetry_multiplicity
  _atom_site_fract_x
  _atom_site_fract_y
  _atom_site_fract_z
  _atom_site_occupancy
  Zn  Zn1       1.0  0.3943299611717137  0.4252827797694466  0.985073765014704  1.0000
  Zn  Zn2       1.0  0.10567086051480601  0.9252791080804956  0.5149260514326173  1.0000
  Zn  Zn3       1.0  0.6056690546034957  0.5747194564415709  0.014927064333811309  1.0000
  Zn  Zn4       1.0  0.8943327765473513  0.07471470606502352  0.485073620030839  1.0000
  H   H1        1.0  0.9124550154939968  0.2535448645874255  0.6651335583813776  1.0000
  H   H2        1.0  0.5875459021702197  0.7535459579223628  0.8348670507809784  1.0000
  H   H3        1.0  0.0875467707191291  0.7464550746965487  0.3348669559036281  1.0000
  H   H4        1.0  0.4124521910984811  0.24645474700398043  0.16513372539431967  1.0000
  H   H5        1.0  0.9735136832580551  0.3289130649375807  0.7740758713373167  1.0000
  H   H6        1.0  0.5264844418401965  0.8289143688594509  0.7259245228373175  1.0000
  H   H7        1.0  0.026485338352280504  0.6710853430623659  0.22592400884124686  1.0000
  H   H8        1.0  0.4735118064149831  0.1710863360670984  0.27407614699043137  1.0000
  H   H9        1.0  0.23498977741591892  0.0842367330069536  0.8148429658305573  1.0000
  H   H10       1.0  0.2650074500724457  0.584238083991224  0.685159736422598  1.0000
  H   H11       1.0  0.7650073845944192  0.915763206275777  0.185159180928288  1.0000
  H   H12       1.0  0.7349897148548833  0.4157633865767352  0.31484193575000313  1.0000
  H   H13       1.0  0.17705729753723176  0.013349838442579203  0.7047600812270787  1.0000
  H   H14       1.0  0.3229417985205103  0.5133548053044809  0.7952427795406435  1.0000
  H   H15       1.0  0.8229417124045072  0.9866462726284272  0.2952416972950473  1.0000
  H   H16       1.0  0.677056291830816  0.4866466652638053  0.2047584712200532  1.0000
  H   H17       1.0  0.6030851237212432  0.17991052002300026  0.9200668820625637  1.0000
  H   H18       1.0  0.8969130538107208  0.6799036291636327  0.5799331471860256  1.0000
  H   H19       1.0  0.39691204995717305  0.8200947787582322  0.0799333663515895  1.0000
  H   H20       1.0  0.10308505112821821  0.32008941934057583  0.4200657306493767  1.0000
  H   H21       1.0  0.7440038285502624  0.05475711801830839  0.8739536776352423  1.0000
  H   H22       1.0  0.7559897692855772  0.5547524551982123  0.6260476016058121  1.0000
  H   H23       1.0  0.25599057177401363  0.9452443525504037  0.1260473604303485  1.0000
  H   H24       1.0  0.2440046281222195  0.4452444215157173  0.3739539110471526  1.0000
  H   H25       1.0  0.9633084643060882  0.10004562260130002  0.8687489743654239  1.0000
  H   H26       1.0  0.5366869634929188  0.6000440392744225  0.6312523778925225  1.0000
  H   H27       1.0  0.03668778394908401  0.8999550823252491  0.1312516954623248  1.0000
  H   H28       1.0  0.46330835933824943  0.3999566656517928  0.3687487133471307  1.0000
  H   H29       1.0  0.9023747121911042  0.3924512644396358  0.9562616427694408  1.0000
  H   H30       1.0  0.597629852257768  0.8924498369208964  0.5437386022767825  1.0000
  H   H31       1.0  0.09762801694897409  0.6075517374168842  0.0437356025884554  1.0000
  H   H32       1.0  0.4023737848034941  0.10754933672135539  0.45626106918469833  1.0000
  H   H33       1.0  0.4036272346683917  0.21424354627887254  0.8363461864260485  1.0000
  H   H34       1.0  0.09636996712078631  0.714244957846148  0.6636535726360718  1.0000
  H   H35       1.0  0.5963699448456553  0.7857548617217348  0.16365311281928288  1.0000
  H   H36       1.0  0.9036281378168881  0.2857557470819573  0.3363453051965166  1.0000
  H   H37       1.0  0.4393024075236768  0.34302533847557737  0.8592683816503096  1.0000
  H   H38       1.0  0.06069659648372999  0.8430252658388115  0.6407313889844986  1.0000
  H   H39       1.0  0.5606975365931676  0.6569746008090506  0.1407315517014638  1.0000
  H   H40       1.0  0.9393015084540649  0.15697467344691068  0.3592674888483599  1.0000
  H   H41       1.0  0.33516600726366624  0.3158320890829741  0.789485585768304  1.0000
  H   H42       1.0  0.16483300578036617  0.8158318736592706  0.7105142048791037  1.0000
  H   H43       1.0  0.6648330143464137  0.684167850201753  0.21051429440969832  1.0000
  H   H44       1.0  0.8351641737334248  0.18416806562611043  0.2894850943656593  1.0000
  C   C1        1.0  0.010939463486742797  0.08673752320376592  0.6126437596697301  1.0000
  C   C2        1.0  0.48906700282449844  0.586738469890804  0.8873570995525101  1.0000
  C   C3        1.0  0.9890706282046228  0.9132616504373061  0.38735675859386015  1.0000
  C   C4        1.0  0.5109329383748432  0.41326300067815686  0.1126433083843779  1.0000
  C   C5        1.0  0.04184490387546451  0.1295184937686855  0.6788914981529786  1.0000
  C   C6        1.0  0.45815507900223906  0.6295233959683844  0.8211108557099536  1.0000
  C   C7        1.0  0.9581559539967943  0.8704791485873359  0.3211099121304528  1.0000
  C   C8        1.0  0.5418430113487106  0.37048037152707286  0.1788903950498977  1.0000
  C   C9        1.0  0.9832839137200579  0.2177809075768522  0.6983826878041128  1.0000
  C   C10       1.0  0.51671424247386  0.717783602804815  0.801618737327736  1.0000
  C   C11       1.0  0.016716024562555304  0.7822175004221068  0.30161819471958745  1.0000
  C   C12       1.0  0.4832820028638167  0.2822186334060746  0.19838240708513413  1.0000
  C   C13       1.0  0.0170055527872321  0.2593820893246034  0.7586653916109967  1.0000
  C   C14       1.0  0.48299346734614096  0.759385605998361  0.7413363389214567  1.0000
  C   C15       1.0  0.9829943854953812  0.7406163186743556  0.2413354909127037  1.0000
  C   C16       1.0  0.5170046171704498  0.24061739585382472  0.2586658610100443  1.0000
  C   C17       1.0  0.10841565525932141  0.2111726066113562  0.7998442403621411  1.0000
  C   C18       1.0  0.39158061045727516  0.7111746798967503  0.7001578407143754  1.0000
  C   C19       1.0  0.8915833575992806  0.7888258013872618  0.20015706357346366  1.0000
  C   C20       1.0  0.6084147094563975  0.28882755631380524  0.2998437251103923  1.0000
  C   C21       1.0  0.16537035529928804  0.12163303946641688  0.7816521565708356  1.0000
  C   C22       1.0  0.33462593433751664  0.6216366170243431  0.7183509395720478  1.0000
  C   C23       1.0  0.8346268125459205  0.8783646028900238  0.2183490410174969  1.0000
  C   C24       1.0  0.665370302248178  0.37836715047000535  0.2816516285972952  1.0000
  C   C25       1.0  0.1325363016049934  0.08175231723098618  0.7209413970884668  1.0000
  C   C26       1.0  0.36746092379099343  0.5817580745062472  0.7790617815771199  1.0000
  C   C27       1.0  0.867460860406112  0.9182430281973953  0.2790607496720696  1.0000
  C   C28       1.0  0.6325362440534478  0.41824416170453554  0.22093941600952152  1.0000
  C   C29       1.0  0.6576789595276367  0.3685348987082195  0.9661641362458369  1.0000
  C   C30       1.0  0.8423228657703277  0.8685273348078012  0.5338326447825138  1.0000
  C   C31       1.0  0.3423191687473377  0.6314696344353833  0.033830944899897  1.0000
  C   C32       1.0  0.15768356798582062  0.13145882291792083  0.4661624403482847  1.0000
  C   C33       1.0  0.7443764529628893  0.2929828574304594  0.9406371549463515  1.0000
  C   C34       1.0  0.7556272161999045  0.7929767877317458  0.5593640593017355  1.0000
  C   C35       1.0  0.25562442532879  0.7070224413525638  0.0593609332345153  1.0000
  C   C36       1.0  0.24437550418997486  0.20701702641476774  0.4406346098165841  1.0000
  C   C37       1.0  0.6999215186582148  0.19793756671535334  0.917401152858467  1.0000
  C   C38       1.0  0.8000775695551994  0.6979322139272668  0.5825998654679054  1.0000
  C   C39       1.0  0.30007566377219064  0.8020662007824274  0.0825976717992134  1.0000
  C   C40       1.0  0.1999214520558965  0.30206160021833744  0.4174000147123493  1.0000
  C   C41       1.0  0.7786340359135336  0.12890420542190384  0.8916745508432129  1.0000
  C   C42       1.0  0.7213632243922561  0.6288995798547461  0.6083273611109661  1.0000
  C   C43       1.0  0.22136129858622414  0.8710987964332518  0.10832464205287812  1.0000
  C   C44       1.0  0.2786339376185865  0.3710972968584231  0.391674785649009  1.0000
  C   C45       1.0  0.9020077851253063  0.15439702978691372  0.8886512995630582  1.0000
  C   C46       1.0  0.5979894725427998  0.6543962417757715  0.6113496444572135  1.0000
  C   C47       1.0  0.09798846896435259  0.8456036751405238  0.1113484210933322  1.0000
  C   C48       1.0  0.4020077040537516  0.34560369750916914  0.38865012937323934  1.0000
  C   C49       1.0  0.9475030620072644  0.24946299269029745  0.9119871468594382  1.0000
  C   C50       1.0  0.5524960090831926  0.7494607224389898  0.5880138335462844  1.0000
  C   C51       1.0  0.05249596251992732  0.7505377122372678  0.0880122587325971  1.0000
  C   C52       1.0  0.44750393211653255  0.25053845120280027  0.41198657439144876  1.0000
  C   C53       1.0  0.8682870570803727  0.3183960543587432  0.938252533197904  1.0000
  C   C54       1.0  0.6317147615400458  0.8183961203991926  0.5617480814121549  1.0000
  C   C55       1.0  0.1317129016223006  0.6816061818552654  0.06174502722463159  1.0000
  C   C56       1.0  0.36828795301433104  0.18160381888555588  0.43825153687526347  1.0000
  C   C57       1.0  0.0769278396153013  0.27784617617571433  0.9103066241974886  1.0000
  C   C58       1.0  0.42307118313457437  0.7778461547188514  0.5896936689908043  1.0000
  C   C59       1.0  0.9230720986670492  0.7221537631080254  0.0896942583256433  1.0000
  C   C60       1.0  0.5769296805715384  0.22215531585000295  0.41030679211986854  1.0000
  C   C61       1.0  0.26221767643298216  0.29537787400496285  0.8785419301972511  1.0000
  C   C62       1.0  0.237781340491189  0.7953762845236201  0.6214583500893694  1.0000
  C   C63       1.0  0.7377831843557558  0.7046243622058482  0.12145900549881358  1.0000
  C   C64       1.0  0.7622176840360027  0.20462442040394538  0.3785410555026658  1.0000
  C   C65       1.0  0.36607298658059045  0.2920504230492256  0.8386703093727874  1.0000
  C   C66       1.0  0.13392603436632564  0.7920503031056969  0.6613294987764107  1.0000
  C   C67       1.0  0.6339260350294893  0.7079495162355087  0.16132957080520777  1.0000
  C   C68       1.0  0.8660729930782409  0.20794963617991877  0.3386694322302262  1.0000
  N   N1        1.0  0.26053014976647404  0.33846740906173517  0.9355352172640677  1.0000
  N   N2        1.0  0.23946793324943627  0.8384636287386087  0.564464503552685  1.0000
  N   N3        1.0  0.7394697885154998  0.6615348271491756  0.0644656652582185  1.0000
  N   N4        1.0  0.7605329392087795  0.1615355449044031  0.4355345338017855  1.0000
  N   N5        1.0  0.14562631564262324  0.3276144162564308  0.9557988373438349  1.0000
  N   N6        1.0  0.3543726905692424  0.8276114254129395  0.5442014192192133  1.0000
  N   N7        1.0  0.8543745422292517  0.6723855230267618  0.04420257293875101  1.0000
  N   N8        1.0  0.6456281789717337  0.17238774822962458  0.45579809272093996  1.0000
  N   N9        1.0  0.14706873433103607  0.2556632611321277  0.8607641253609656  1.0000
  N   N10       1.0  0.3529302928731042  0.7556639214401031  0.6392366587379995  1.0000
  N   N11       1.0  0.8529321264582137  0.7443359125091148  0.1392368103362287  1.0000
  N   N12       1.0  0.6470705649982663  0.24433908041265087  0.3607647515434635  1.0000
  O   O1        1.0  0.07660328280601901  0.011872254419699902  0.5978491924567493  1.0000
  O   O2        1.0  0.423402280041472  0.5118793066274989  0.9021526178570126  1.0000
  O   O3        1.0  0.9234021846833188  0.9881223253657866  0.4021529582823717  1.0000
  O   O4        1.0  0.576600419925164  0.4881298203637316  0.0978493733554231  1.0000
  O   O5        1.0  0.9234523622463583  0.1290821187905991  0.5773213318910634  1.0000
  O   O6        1.0  0.5765652223207383  0.6290822840541067  0.9226770038966876  1.0000
  O   O7        1.0  0.0765660553430578  0.8709216487074019  0.4226758682493851  1.0000
  O   O8        1.0  0.4234430272730734  0.3709245460115228  0.0773229334308496  1.0000
  O   O9        1.0  0.5458407857988733  0.34018010577013774  0.9655591063049087  1.0000
  O   O10       1.0  0.9541638426984349  0.8401648707405015  0.5344335838438496  1.0000
  O   O11       1.0  0.454161044170732  0.6598328494411094  0.0344342891901164  1.0000
  O   O12       1.0  0.04583803395239979  0.15981592749741944  0.4655522182921317  1.0000
  O   O13       1.0  0.7030372794779042  0.4541773390789672  0.9852079140791756  1.0000
  O   O14       1.0  0.7969746415967549  0.9541690505551514  0.5147931855188972  1.0000
  O   O15       1.0  0.29696912218526705  0.5458287253440376  0.0147923914867718  1.0000
  O   O16       1.0  0.2030391430399234  0.045823997946818906  0.48520707085636866  1.0000
