data_image0
_chemical_formula_structural       Mg4H36C16N4O24
_chemical_formula_sum              "Mg4 H36 C16 N4 O24"
_cell_length_a       6.11705063716254
_cell_length_b       8.706342192900347
_cell_length_c       14.882675240806051
_cell_angle_alpha    89.99896916745331
_cell_angle_beta     89.99912221347773
_cell_angle_gamma    89.99912786798237

_space_group_name_H-M_alt    "P 1"
_space_group_IT_number       1

loop_
  _space_group_symop_operation_xyz
  'x, y, z'

loop_
  _atom_site_type_symbol
  _atom_site_label
  _atom_site_symmetry_multiplicity
  _atom_site_fract_x
  _atom_site_fract_y
  _atom_site_fract_z
  _atom_site_occupancy
  Mg  Mg1       1.0  0.382843201223757  0.14106209285380802  0.8845213851791627  1.0000
  Mg  Mg2       1.0  0.8828311304021879  0.35892977675412413  0.1154715129882433  1.0000
  Mg  Mg3       1.0  0.6171344736324613  0.6410495922712585  0.6154750211088853  1.0000
  Mg  Mg4       1.0  0.11713525432445948  0.8589279586407841  0.3845271585218056  1.0000
  H   H1        1.0  0.40859990226881127  0.8584043591509102  0.8029424596984924  1.0000
  H   H2        1.0  0.9085978102433927  0.6415926986741738  0.19705416658506886  1.0000
  H   H3        1.0  0.5914389800566298  0.35840767707343707  0.697053892118241  1.0000
  H   H4        1.0  0.0914005489690837  0.1415876570975527  0.302947245379805  1.0000
  H   H5        1.0  0.18153821842508927  0.8543271779761314  0.8610810075613313  1.0000
  H   H6        1.0  0.6815141608841558  0.6456599446554208  0.13891889800917304  1.0000
  H   H7        1.0  0.81851872503249  0.35432529062445184  0.6389304931860236  1.0000
  H   H8        1.0  0.3184677722212825  0.14565930509298405  0.36107677285347245  1.0000
  H   H9        1.0  0.14706770229042826  0.8925376973540367  0.6921737498439879  1.0000
  H   H10       1.0  0.647064207743675  0.6074555776527789  0.3078246372756296  1.0000
  H   H11       1.0  0.8529672536558053  0.392526883185667  0.8078275971168762  1.0000
  H   H12       1.0  0.35291846061709004  0.10746763997381242  0.1921758114264875  1.0000
  H   H13       1.0  0.8305423564325807  0.0725602179774114  0.7159910475261595  1.0000
  H   H14       1.0  0.3305390858716279  0.42743457046847055  0.2840026056502225  1.0000
  H   H15       1.0  0.16944317597184977  0.572557081524799  0.7840101727560692  1.0000
  H   H16       1.0  0.669440693264221  0.9274359289796765  0.21600267356365063  1.0000
  H   H17       1.0  0.8253851505459975  0.9064337107091732  0.7818570762224013  1.0000
  H   H18       1.0  0.32536960408798876  0.593581564265577  0.21813134401693896  1.0000
  H   H19       1.0  0.17465771158192211  0.40644392742662916  0.7181403327960822  1.0000
  H   H20       1.0  0.6746051576013485  0.09357109203315872  0.2818582584287697  1.0000
  H   H21       1.0  0.3243507355342102  0.3892648218978819  0.9814159436180316  1.0000
  H   H22       1.0  0.8243652704523328  0.11073118856403141  0.0185771268572381  1.0000
  H   H23       1.0  0.6756401443772047  0.88926314424171  0.5185809940263012  1.0000
  H   H24       1.0  0.1756483957231367  0.6107286431348626  0.4814236997225974  1.0000
  H   H25       1.0  0.5688098684595032  0.3899320829634547  0.9495038910700655  1.0000
  H   H26       1.0  0.0688232340131236  0.11006811418237562  0.050496900668726086  1.0000
  H   H27       1.0  0.43117936381735683  0.8899339885195161  0.5504963460493997  1.0000
  H   H28       1.0  0.9311937144684136  0.6100662469691545  0.4495039854672881  1.0000
  H   H29       1.0  0.3536368351509295  0.9758864013430963  0.05620489226948418  1.0000
  H   H30       1.0  0.8536190050169451  0.5241124583215893  0.9437905119252432  1.0000
  H   H31       1.0  0.6463681676610519  0.4758950594938086  0.4437899833163214  1.0000
  H   H32       1.0  0.14635601646703827  0.0241111075778377  0.5562117041935153  1.0000
  H   H33       1.0  0.42932500196673823  0.1545858131708542  0.056174742964692784  1.0000
  H   H34       1.0  0.9293271441576322  0.345416989623054  0.9438168115074532  1.0000
  H   H35       1.0  0.5706747418345159  0.6545893856000332  0.44382415667801195  1.0000
  H   H36       1.0  0.07067275364904899  0.845409392123905  0.5561780209566365  1.0000
  C   C1        1.0  0.26120369085709433  0.12302423422575971  0.7017575457722102  1.0000
  C   C2        1.0  0.7611965386320205  0.37698860724277244  0.298236435921673  1.0000
  C   C3        1.0  0.738787409336062  0.6230148962077634  0.7982351065019626  1.0000
  C   C4        1.0  0.23877767247200407  0.8769830326281041  0.20177337873443685  1.0000
  C   C5        1.0  0.15329563621968126  0.9804168337024989  0.7448719731435813  1.0000
  C   C6        1.0  0.6533177789487253  0.5195924469449694  0.25512229160931094  1.0000
  C   C7        1.0  0.8467114718681328  0.48040353171723627  0.7551288649430672  1.0000
  C   C8        1.0  0.3466796588365  0.019600254950049106  0.24488000877001775  1.0000
  C   C9        1.0  0.915641425119311  0.013800084368661203  0.7714542054127376  1.0000
  C   C10       1.0  0.41564622609829627  0.4862235563969434  0.22854493683333027  1.0000
  C   C11       1.0  0.0843648556848606  0.5137890985035442  0.7285509537621307  1.0000
  C   C12       1.0  0.5843356910828632  0.9862164086448362  0.27145572954182023  1.0000
  C   C13       1.0  0.8895008943776972  0.11124679387471302  0.8548570615093991  1.0000
  C   C14       1.0  0.3894592517164668  0.3887518890385452  0.1451431315750611  1.0000
  C   C15       1.0  0.11048389329044278  0.6112554726752607  0.6451460557029021  1.0000
  C   C16       1.0  0.6104869417641153  0.8887451292429065  0.3548582346736708  1.0000
  N   N1        1.0  0.2787835390252482  0.9256788671290722  0.8236879869156579  1.0000
  N   N2        1.0  0.7787988630093635  0.5743162872473135  0.17630312268086354  1.0000
  N   N3        1.0  0.7212524136438104  0.4256787651174321  0.67630366094437  1.0000
  N   N4        1.0  0.22120406065649684  0.074312728944335  0.323696946187205  1.0000
  O   O1        1.0  0.19820521344790615  0.16182184869566643  0.6241673834657246  1.0000
  O   O2        1.0  0.6981833078452269  0.3381791057857484  0.3758127262537413  1.0000
  O   O3        1.0  0.8018276441814578  0.661806697125691  0.8758264843195105  1.0000
  O   O4        1.0  0.3018210758719135  0.8381996711540297  0.12418243408278327  1.0000
  O   O5        1.0  0.4030510179453231  0.19576703090955766  0.7485922771125145  1.0000
  O   O6        1.0  0.9030431193349668  0.3042636509898031  0.2514057028648722  1.0000
  O   O7        1.0  0.5969713777246071  0.6957511059377525  0.7514113056342495  1.0000
  O   O8        1.0  0.09696028274846212  0.8042508052793877  0.24859317990101457  1.0000
  O   O9        1.0  0.04809310465159199  0.1953839731464768  0.8817315392316798  1.0000
  O   O10       1.0  0.5480624926222076  0.3046187694598217  0.11828702182958037  1.0000
  O   O11       1.0  0.9519309330332745  0.6953898801000165  0.6182861873251468  1.0000
  O   O12       1.0  0.4519245547751822  0.8046181490157738  0.3817145162685519  1.0000
  O   O13       1.0  0.7093898458482143  0.10816127252285673  0.8971916154770198  1.0000
  O   O14       1.0  0.20933296834417794  0.3918475925042629  0.10281991298145239  1.0000
  O   O15       1.0  0.29062115810410916  0.6081179441330492  0.6028111093497869  1.0000
  O   O16       1.0  0.7906327826782231  0.8918586923434475  0.3971818459418656  1.0000
  O   O17       1.0  0.4173807826690634  0.3677206501333928  0.9287576968832808  1.0000
  O   O18       1.0  0.9174199998482351  0.132269660970401  0.07124410918567038  1.0000
  O   O19       1.0  0.5825990685099285  0.8677191866920851  0.5712418495735818  1.0000
  O   O20       1.0  0.08260632991904517  0.632272557633712  0.4287594842056278  1.0000
  O   O21       1.0  0.3489322464383378  0.07571948075787562  0.020281424431715295  1.0000
  O   O22       1.0  0.8488907587212964  0.42426704905852125  0.9797106200045886  1.0000
  O   O23       1.0  0.6511147889566756  0.5757293177139716  0.4797091104577901  1.0000
  O   O24       1.0  0.15111089087085364  0.9242708009170787  0.5202912336853983  1.0000
