data_image0
_chemical_formula_structural       Ni2H24C32S4N12
_chemical_formula_sum              "Ni2 H24 C32 S4 N12"
_cell_length_a       7.507888282599903
_cell_length_b       10.962950290601016
_cell_length_c       11.590106903501837
_cell_angle_alpha    111.97638137063696
_cell_angle_beta     108.90822038227124
_cell_angle_gamma    89.9985634232512

_space_group_name_H-M_alt    "P 1"
_space_group_IT_number       1

loop_
  _space_group_symop_operation_xyz
  'x, y, z'

loop_
  _atom_site_type_symbol
  _atom_site_label
  _atom_site_symmetry_multiplicity
  _atom_site_fract_x
  _atom_site_fract_y
  _atom_site_fract_z
  _atom_site_occupancy
  Ni  Ni1       1.0  0.0  0.0  0.0  1.0000
  Ni  Ni2       1.0  0.9999992553827115  0.49999943576719363  0.9999991895483262  1.0000
  H   H1        1.0  0.815890664234523  0.49782682748092094  0.5411566649466549  1.0000
  H   H2        1.0  0.724979585863352  0.9976560168916889  0.5409809645452694  1.0000
  H   H3        1.0  0.18411498343957794  0.5021749283718222  0.458846618473764  1.0000
  H   H4        1.0  0.2750202324235715  0.0023447522534638995  0.45901988386810894  1.0000
  H   H5        1.0  0.7600078137861959  0.5829767563838644  0.36304351753819464  1.0000
  H   H6        1.0  0.6027237818669066  0.08266210777873789  0.3627823151303886  1.0000
  H   H7        1.0  0.23999161043723663  0.41702202089429363  0.6369582638725788  1.0000
  H   H8        1.0  0.39727724563906  0.9173376700553889  0.6372175702222191  1.0000
  H   H9        1.0  0.8791463993164611  0.8172607511895934  0.4214685387096821  1.0000
  H   H10       1.0  0.5425020104175502  0.31705220831401704  0.4212018157193213  1.0000
  H   H11       1.0  0.12085000875660507  0.18273704585434555  0.5785288105494786  1.0000
  H   H12       1.0  0.45749780566369225  0.6829485691458715  0.5787964467709797  1.0000
  H   H13       1.0  0.06390972177924677  0.964744302927862  0.6572154404022398  1.0000
  H   H14       1.0  0.5936899525108573  0.4646870656858581  0.6569097162249731  1.0000
  H   H15       1.0  0.9360856719008411  0.0352554896753361  0.3427798194959167  1.0000
  H   H16       1.0  0.4063052463431589  0.5353117226690997  0.343088596094958  1.0000
  H   H17       1.0  0.24325776187198764  0.8514243769579154  0.9120492690248058  1.0000
  H   H18       1.0  0.6687640745584388  0.35138613764391374  0.91173328023212  1.0000
  H   H19       1.0  0.756740844990219  0.1485773918129993  0.0879499565262734  1.0000
  H   H20       1.0  0.3312329282859992  0.6486146333426036  0.08826697940275342  1.0000
  H   H21       1.0  0.22458065994312898  0.9816763201369126  0.8684823576897927  1.0000
  H   H22       1.0  0.6440139586653898  0.48162514955623675  0.8681327699431802  1.0000
  H   H23       1.0  0.7754207630967898  0.018325444021051903  0.13151831861414817  1.0000
  H   H24       1.0  0.35598445190029077  0.5183756205095946  0.13186778408095273  1.0000
  C   C1        1.0  0.35892511400141563  0.22262299631280058  0.13350073746721589  1.0000
  C   C2        1.0  0.7742441117339213  0.7225794832046476  0.13343441986896915  1.0000
  C   C3        1.0  0.6410863864122831  0.777372793193436  0.866502507019838  1.0000
  C   C4        1.0  0.22575350702863523  0.27741731698510114  0.8665636902781415  1.0000
  C   C5        1.0  0.0430723236847257  0.816059787259242  0.732045920089277  1.0000
  C   C6        1.0  0.6890846754475887  0.31596364654757286  0.7318241412734707  1.0000
  C   C7        1.0  0.9569258891139826  0.1839399896446778  0.2679542384591898  1.0000
  C   C8        1.0  0.31091091894038675  0.6840371281312159  0.2681749619977936  1.0000
  C   C9        1.0  0.9690350444589768  0.6835435398215282  0.6985333760036097  1.0000
  C   C10       1.0  0.7295962126565241  0.1834568198375734  0.6983572196889227  1.0000
  C   C11       1.0  0.030965981576535687  0.3164562435557698  0.30146478540028443  1.0000
  C   C12       1.0  0.27040360489517207  0.816543952079158  0.301642766750099  1.0000
  C   C13       1.0  0.8676887274759649  0.6001668618639187  0.5651825885121438  1.0000
  C   C14       1.0  0.697353289218519  0.10001484241735879  0.5649889561325664  1.0000
  C   C15       1.0  0.13231249853220814  0.39983390636054833  0.43481855429049426  1.0000
  C   C16       1.0  0.3026451213471688  0.8999859276484728  0.4350115978915595  1.0000
  C   C17       1.0  0.8373421878599744  0.6479690782712736  0.4660512484611699  1.0000
  C   C18       1.0  0.6285591696044578  0.14772604377310466  0.4657999851770568  1.0000
  C   C19       1.0  0.16265239581115756  0.35203367810886727  0.5339500753208881  1.0000
  C   C20       1.0  0.3714434619192772  0.8522747318454121  0.5341988660917493  1.0000
  C   C21       1.0  0.904952101002401  0.7797737065714898  0.49955888825978406  1.0000
  C   C22       1.0  0.5947557833842367  0.27960232232746307  0.4993300401919782  1.0000
  C   C23       1.0  0.09505033348958139  0.2202260731135368  0.5004404295077194  1.0000
  C   C24       1.0  0.4052394154697794  0.7203964660274877  0.5006682721279532  1.0000
  C   C25       1.0  0.005480788234692033  0.8629084404702213  0.6309879415506003  1.0000
  C   C26       1.0  0.625636781596441  0.36278506391412446  0.6307383631529859  1.0000
  C   C27       1.0  0.9945176223309887  0.13709232959561043  0.3690126124735258  1.0000
  C   C28       1.0  0.3743586142893278  0.637214720374331  0.369259482668255  1.0000
  C   C29       1.0  0.9943127562774308  0.6334801632948484  0.7982003140182738  1.0000
  C   C30       1.0  0.8039483064041377  0.13335956664155899  0.7980161772827897  1.0000
  C   C31       1.0  0.005691261085580386  0.3665275589139227  0.20180302952891077  1.0000
  C   C32       1.0  0.19604810608029064  0.8666382137728804  0.2019863438225258  1.0000
  S   S1        1.0  0.5404423757595468  0.3356241882880298  0.1879977094150291  1.0000
  S   S2        1.0  0.6470851647067732  0.8354777922534853  0.18785387117783606  1.0000
  S   S3        1.0  0.45956408559964507  0.6643745899298567  0.8120038199932864  1.0000
  S   S4        1.0  0.3529136632748262  0.1645180166252516  0.8121432759084968  1.0000
  N   N1        1.0  0.22573331245487074  0.1417026272409672  0.09489299510711648  1.0000
  N   N2        1.0  0.8688657298891728  0.6416862364449188  0.09480807096433351  1.0000
  N   N3        1.0  0.7742717411830784  0.858296151897612  0.9051082399119463  1.0000
  N   N4        1.0  0.1311345050784425  0.3583095742847036  0.905188508536888  1.0000
  N   N5        1.0  0.15016163047280168  0.9000666727879008  0.8639643750324167  1.0000
  N   N6        1.0  0.7139274430699416  0.4000208351766687  0.8637097356467791  1.0000
  N   N7        1.0  0.8498383826401864  0.0999351006054923  0.13603342095918683  1.0000
  N   N8        1.0  0.2860695590392693  0.5999799385814343  0.13628966201373766  1.0000
  N   N9        1.0  0.00940725376284482  0.5910152033815022  0.878796403627575  1.0000
  N   N10       1.0  0.8694709099782686  0.09092485501464148  0.8786162866915888  1.0000
  N   N11       1.0  0.9905965877151531  0.4089845781544171  0.121202346554817  1.0000
  N   N12       1.0  0.13052870980645534  0.9090749237401708  0.12138330427176651  1.0000
