data_image0
_chemical_formula_structural       Cd4H24C48N8Cl8O16
_chemical_formula_sum              "Cd4 H24 C48 N8 Cl8 O16"
_cell_length_a       9.878298587000266
_cell_length_b       11.163552866571194
_cell_length_c       13.097187737967898
_cell_angle_alpha    107.8957038927918
_cell_angle_beta     90.0000260080694
_cell_angle_gamma    89.99998965087521

_space_group_name_H-M_alt    "P 1"
_space_group_IT_number       1

loop_
  _space_group_symop_operation_xyz
  'x, y, z'

loop_
  _atom_site_type_symbol
  _atom_site_label
  _atom_site_symmetry_multiplicity
  _atom_site_fract_x
  _atom_site_fract_y
  _atom_site_fract_z
  _atom_site_occupancy
  Cd  Cd1       1.0  0.8768900075179431  0.4106750227320008  0.5945525586362734  1.0000
  Cd  Cd2       1.0  0.3768900603673089  0.0893242078418908  0.905447050921417  1.0000
  Cd  Cd3       1.0  0.123109316960786  0.5893246385410579  0.40544702879113703  1.0000
  Cd  Cd4       1.0  0.6231092641113918  0.9106763947454656  0.09455278423474317  1.0000
  H   H1        1.0  0.7952748456502832  0.5273831005793356  0.9988002978322613  1.0000
  H   H2        1.0  0.2952745820798697  0.9726178097672221  0.501200148692469  1.0000
  H   H3        1.0  0.20472650346835047  0.4726175034641785  0.0011987741838766052  1.0000
  H   H4        1.0  0.7047257547191137  0.027383732678195796  0.4988006973329959  1.0000
  H   H5        1.0  0.4846543105948129  0.3216117478079071  0.10760877907454611  1.0000
  H   H6        1.0  0.9846534683883733  0.17838853618848566  0.39239053953823344  1.0000
  H   H7        1.0  0.5153480508438761  0.678389797549876  0.8923905406705187  1.0000
  H   H8        1.0  0.0153458560903559  0.8216111250845731  0.6076090478891772  1.0000
  H   H9        1.0  0.5920222021819583  0.20535334790932325  0.7849968272758475  1.0000
  H   H10       1.0  0.0920221009424367  0.29464683500170014  0.7150029335124798  1.0000
  H   H11       1.0  0.4079781346168191  0.7946472546780042  0.21500300788049023  1.0000
  H   H12       1.0  0.9079772235362641  0.7053537675856492  0.28499690164368024  1.0000
  H   H13       1.0  0.7892777845923007  0.6513143876645273  0.7808318331005282  1.0000
  H   H14       1.0  0.2892756502089142  0.8486846402855478  0.7191681159348845  1.0000
  H   H15       1.0  0.2107225522064553  0.3486871562370908  0.21916824978455912  1.0000
  H   H16       1.0  0.7107226619497737  0.15131313835895815  0.2808309760348422  1.0000
  H   H17       1.0  0.6810697955381427  0.5377495331282846  0.4587578412778656  1.0000
  H   H18       1.0  0.18106955771128236  0.9622505551449837  0.041242506793537394  1.0000
  H   H19       1.0  0.3189295289405791  0.46225012814477423  0.5412417461495451  1.0000
  H   H20       1.0  0.8189307790875162  0.03774910612805371  0.9587570806340437  1.0000
  H   H21       1.0  0.5127736342363746  0.8838723401102798  0.6694677971636906  1.0000
  H   H22       1.0  0.0127726250997142  0.616126697082777  0.8305328213473616  1.0000
  H   H23       1.0  0.4872267025624311  0.1161273211627574  0.3305317902638905  1.0000
  H   H24       1.0  0.9872266993794839  0.3838720199635832  0.16946804463202622  1.0000
  C   C1        1.0  0.7794988014555885  0.3843658405969422  0.7867357722129  1.0000
  C   C2        1.0  0.2794987355054914  0.1156352763740358  0.7132642998113141  1.0000
  C   C3        1.0  0.220502547663294  0.6156338206760739  0.2132638152148516  1.0000
  C   C4        1.0  0.7205005889731666  0.8843672088418871  0.2867360308023592  1.0000
  C   C5        1.0  0.7027690182172748  0.36847987661732173  0.8809533385701371  1.0000
  C   C6        1.0  0.20276990573985643  0.1315203020083828  0.6190464597335036  1.0000
  C   C7        1.0  0.2972313185812752  0.6315207274262138  0.1190457334458301  1.0000
  C   C8        1.0  0.797230431058928  0.868480300578952  0.3809533754228339  1.0000
  C   C9        1.0  0.7214645675615827  0.4513753534032008  0.9844280644758927  1.0000
  C   C10       1.0  0.22146439849127122  0.0486257643571832  0.515572751029751  1.0000
  C   C11       1.0  0.278536781557257  0.5486261904983962  0.015572018409372364  1.0000
  C   C12       1.0  0.7785349259876355  0.9513757780882488  0.4844280949955362  1.0000
  C   C13       1.0  0.6423808416716099  0.4339426838248458  0.06701341259706342  1.0000
  C   C14       1.0  0.1423809154999631  0.066057611959458  0.4329865532121601  1.0000
  C   C15       1.0  0.35762050744700247  0.5660588615329587  0.932985907147838  1.0000
  C   C16       1.0  0.8576204336189192  0.9339420493135651  0.5670130342155916  1.0000
  C   C17       1.0  0.549035822970346  0.33537736345461167  0.044687396269026194  1.0000
  C   C18       1.0  0.0490358899835641  0.16462293739784434  0.4553117747794886  1.0000
  C   C19       1.0  0.4509645138279837  0.6646232420451316  0.9553109126065777  1.0000
  C   C20       1.0  0.9509644468152133  0.8353776651894834  0.544688060376842  1.0000
  C   C21       1.0  0.6081636627283373  0.27124655965855027  0.8648776165874992  1.0000
  C   C22       1.0  0.10816352769604982  0.2287545639421752  0.6351223973974527  1.0000
  C   C23       1.0  0.3918376863902964  0.7287540443849638  0.13512145542863863  1.0000
  C   C24       1.0  0.8918357967828571  0.771246978503257  0.3648784486278345  1.0000
  C   C25       1.0  0.6388490452890707  0.8636442147263498  0.8527972561248874  1.0000
  C   C26       1.0  0.1388489361343588  0.6363529320472665  0.647204435917196  1.0000
  C   C27       1.0  0.36115230382979047  0.1363563878609639  0.1472025790316209  1.0000
  C   C28       1.0  0.8611503883450882  0.36364484222859533  0.3527969454738055  1.0000
  C   C29       1.0  0.6500351571775694  0.7783774613662546  0.7388826193970389  1.0000
  C   C30       1.0  0.1500350979781189  0.7216215690593017  0.7611188087514549  1.0000
  C   C31       1.0  0.3499651796212149  0.22162314122108037  0.261117215759299  1.0000
  C   C32       1.0  0.8499611895406004  0.2783780907576131  0.23888154181580754  1.0000
  C   C33       1.0  0.732251749018225  0.6716169055281755  0.7169462180312822  1.0000
  C   C34       1.0  0.23225066879075476  0.8283830659427668  0.7830539594156747  1.0000
  C   C35       1.0  0.267747575460703  0.3283836956029732  0.28305438026525553  1.0000
  C   C36       1.0  0.7677466310478138  0.17161659533033466  0.2169456280113877  1.0000
  C   C37       1.0  0.6710093747268502  0.607705093688253  0.5374309002384052  1.0000
  C   C38       1.0  0.1710073751967087  0.8922958214667392  0.9625695041914855  1.0000
  C   C39       1.0  0.32899096207215456  0.3922955074428673  0.46256969805829584  1.0000
  C   C40       1.0  0.8289919492819919  0.10770478112061001  0.037430330964682  1.0000
  C   C41       1.0  0.5864219277692087  0.7122531946529309  0.5535480338257415  1.0000
  C   C42       1.0  0.08641993993332868  0.7877467824608501  0.9464520942216624  1.0000
  C   C43       1.0  0.41357840902959697  0.2877464666201065  0.44645155360183963  1.0000
  C   C44       1.0  0.9135793845456206  0.21225287735600779  0.053548256346111635  1.0000
  C   C45       1.0  0.5764617316137047  0.8004570046639973  0.6553213873433067  1.0000
  C   C46       1.0  0.07646071390625049  0.6995429728351682  0.8446787373302769  1.0000
  C   C47       1.0  0.4235386051850725  0.19954359792333076  0.3446784478130311  1.0000
  C   C48       1.0  0.9235375982526222  0.3004566869817041  0.1553216132373336  1.0000
  N   N1        1.0  0.5336468071595134  0.2551268138349911  0.9453902549442076  1.0000
  N   N2        1.0  0.0336466213235909  0.2448733713348474  0.55460948606963  1.0000
  N   N3        1.0  0.4663545419591131  0.7448737902085301  0.05460881707193718  1.0000
  N   N4        1.0  0.9663527031551098  0.7551272312525017  0.44539034908653713  1.0000
  N   N5        1.0  0.7430481218621664  0.589037447278507  0.6181342794695865  1.0000
  N   N6        1.0  0.2430460708988775  0.9109634650889764  0.881866149363198  1.0000
  N   N7        1.0  0.25695221493661796  0.4109631553088279  0.3818655556867511  1.0000
  N   N8        1.0  0.7569532535798443  0.08903619618408241  0.1181334380642127  1.0000
  Cl  Cl1       1.0  0.6553628628141652  0.5319012235880436  0.1970763008515988  1.0000
  Cl  Cl2       1.0  0.1553627782937355  0.9680988656799417  0.30292403851168354  1.0000
  Cl  Cl3       1.0  0.3446384863046887  0.4680993789992628  0.8029235343049095  1.0000
  Cl  Cl4       1.0  0.844637558505063  0.0319007955931028  0.6970755489158975  1.0000
  Cl  Cl5       1.0  0.4932034127916793  0.7279092468198345  0.44754755330478696  1.0000
  Cl  Cl6       1.0  0.9932013385611355  0.7720927134603742  0.05245263281774019  1.0000
  Cl  Cl7       1.0  0.5067959116870497  0.2720904144532242  0.5524520341226236  1.0000
  Cl  Cl8       1.0  0.0067989982378691  0.227907887670746  0.947547965478968  1.0000
  O   O1        1.0  0.7400213346038883  0.3179507331207959  0.6936056389992444  1.0000
  O   O2        1.0  0.2400213101628808  0.18204944406345902  0.8063941719233512  1.0000
  O   O3        1.0  0.25998001451501557  0.6820479868379365  0.3063937006997505  1.0000
  O   O4        1.0  0.7599770019959706  0.8179511570677039  0.19360642637301598  1.0000
  O   O5        1.0  0.8755983433675495  0.46308856673403653  0.8031831183975058  1.0000
  O   O6        1.0  0.37559828367759  0.0369125465184084  0.6968169861801314  1.0000
  O   O7        1.0  0.12440300575132572  0.5369110945389794  0.19681646903025302  1.0000
  O   O8        1.0  0.6244020531208961  0.9630908814679917  0.3031828290220987  1.0000
  O   O9        1.0  0.700568200394585  0.8254462560028561  0.9228916579168923  1.0000
  O   O10       1.0  0.2005650051473253  0.6745508912950342  0.5771085287510971  1.0000
  O   O11       1.0  0.2994321364041994  0.17455434658447194  0.0771081772394382  1.0000
  O   O12       1.0  0.7994302700516016  0.32544594312282993  0.4228918417700953  1.0000
  O   O13       1.0  0.5707279982749611  0.9637616380730095  0.8726371983143012  1.0000
  O   O14       1.0  0.0707309346788918  0.536235505511634  0.6273675232139767  1.0000
  O   O15       1.0  0.4292723385238163  0.0362389645143182  0.1273626368420366  1.0000
  O   O16       1.0  0.9292714267619786  0.4637594375402758  0.37263693069311904  1.0000
