data_image0
_chemical_formula_structural       Zn2H28C48N10O16
_chemical_formula_sum              "Zn2 H28 C48 N10 O16"
_cell_length_a       17.151136724771646
_cell_length_b       17.810942225605917
_cell_length_c       19.237659355833255
_cell_angle_alpha    85.96743644990768
_cell_angle_beta     89.97956260902511
_cell_angle_gamma    89.945615990965

_space_group_name_H-M_alt    "P 1"
_space_group_IT_number       1

loop_
  _space_group_symop_operation_xyz
  'x, y, z'

loop_
  _atom_site_type_symbol
  _atom_site_label
  _atom_site_symmetry_multiplicity
  _atom_site_fract_x
  _atom_site_fract_y
  _atom_site_fract_z
  _atom_site_occupancy
  Zn  Zn1       1.0  0.5843305836518838  0.5017508781305438  0.49771814055434754  1.0000
  Zn  Zn2       1.0  0.4144793348845326  0.5030536559756982  0.49862207054167845  1.0000
  H   H1        1.0  0.6212463457311799  0.49180269901145823  0.2798711921744825  1.0000
  H   H2        1.0  0.374710720092871  0.8730039473443868  0.5485627401903344  1.0000
  H   H3        1.0  0.6257185454866772  0.8797664618695862  0.5443931557680486  1.0000
  H   H4        1.0  0.37543236752512843  0.12327350387562322  0.5162818935167408  1.0000
  H   H5        1.0  0.8671564153878392  0.5498823719458983  0.3905922280893392  1.0000
  H   H6        1.0  0.13036983475733877  0.45593536474785884  0.6043652773960915  1.0000
  H   H7        1.0  0.8686828214983393  0.4537598577554647  0.6035381288811551  1.0000
  H   H8        1.0  0.13228037183551317  0.5461996688146015  0.3895834549903228  1.0000
  H   H9        1.0  0.6942000929855822  0.23167578600899927  0.5074223336167236  1.0000
  H   H10       1.0  0.6476474511865858  0.3190289200028857  0.49006494059759115  1.0000
  H   H11       1.0  0.3122738877498605  0.7597804252534034  0.5360299808304063  1.0000
  H   H12       1.0  0.369769513559568  0.5012128406245466  0.7236787643402138  1.0000
  H   H13       1.0  0.3621137328571962  0.676701449136111  0.5185702678613637  1.0000
  H   H14       1.0  0.6945228398072416  0.7679989138697964  0.5371781346121409  1.0000
  H   H15       1.0  0.6482609753773403  0.6808145783057001  0.5246102545368956  1.0000
  H   H16       1.0  0.3128978464602099  0.2382452782930073  0.49997133565049984  1.0000
  H   H17       1.0  0.3623225293967067  0.3242083184266136  0.49264475209183445  1.0000
  H   H18       1.0  0.647429172177425  0.6443404860481295  0.35064330352399503  1.0000
  H   H19       1.0  0.3461150413504726  0.3599405881673761  0.6508619458407239  1.0000
  H   H20       1.0  0.6487996400359535  0.3603302323124566  0.6470976937662769  1.0000
  H   H21       1.0  0.3496243970428239  0.6437664653155579  0.3493111256962393  1.0000
  H   H22       1.0  0.620451403532833  0.49289786757514537  0.718431086475718  1.0000
  H   H23       1.0  0.370496098556707  0.4834796256797986  0.2773172657680547  1.0000
  H   H24       1.0  0.6242326994299248  0.4704727849849704  0.153371693843674  1.0000
  H   H25       1.0  0.3729239080278504  0.48437459031408286  0.8531898703191912  1.0000
  H   H26       1.0  0.623862504496138  0.4777039063525237  0.8478712472357373  1.0000
  H   H27       1.0  0.3732835878073502  0.462803492643687  0.15057863515708186  1.0000
  H   H28       1.0  0.6264583285290328  0.1183211543236951  0.5219627361151709  1.0000
  C   C1        1.0  0.5061356497538796  0.6478407930503352  0.5122746872641457  1.0000
  C   C2        1.0  0.1597578437728231  0.47563735398455986  0.556371652657198  1.0000
  C   C3        1.0  0.8393208841193952  0.4745623748813514  0.5558609748909333  1.0000
  C   C4        1.0  0.16078761373058367  0.5265319763836445  0.43801660705943857  1.0000
  C   C5        1.0  0.7573930283869929  0.5300600494358036  0.4420936223654124  1.0000
  C   C6        1.0  0.24086938595055332  0.47416405043207993  0.5539849988411589  1.0000
  C   C7        1.0  0.7582672212474291  0.472940682513972  0.5531164157098232  1.0000
  C   C8        1.0  0.2417959457660429  0.528585751787901  0.4418902845915014  1.0000
  C   C9        1.0  0.8818031658448362  0.5016062365412636  0.4968924582843073  1.0000
  C   C10       1.0  0.11732488640254246  0.5010463136068565  0.4968734716447827  1.0000
  C   C11       1.0  0.9640089238530862  0.5014850041733964  0.49652203505732473  1.0000
  C   C12       1.0  0.5058990070472335  0.3550200819825022  0.4941078670478021  1.0000
  C   C13       1.0  0.03512962941104549  0.5011745889111338  0.4964751715243096  1.0000
  C   C14       1.0  0.4938100856427568  0.5028469697874058  0.3627337509545114  1.0000
  C   C15       1.0  0.4927342362403095  0.4958332758151513  0.6345387037366379  1.0000
  C   C16       1.0  0.5670866051920029  0.485714523461283  0.2514011191682286  1.0000
  C   C17       1.0  0.4252142737905729  0.4952643827021817  0.7509492147074327  1.0000
  C   C18       1.0  0.5663417658664258  0.49067715941257734  0.7479783867022078  1.0000
  C   C19       1.0  0.4258387786868951  0.48094492901790886  0.24993345378434378  1.0000
  C   C20       1.0  0.5688669918019259  0.4739108224369772  0.18074765220259081  1.0000
  C   C21       1.0  0.4269084212519445  0.4863614696512856  0.8232809812137135  1.0000
  C   C22       1.0  0.5684066133674648  0.48250351465885183  0.8203246043698229  1.0000
  C   C23       1.0  0.5043144142959547  0.2720336810206306  0.4974600986648525  1.0000
  C   C24       1.0  0.4272859313262245  0.46946433115336117  0.17925842891210664  1.0000
  C   C25       1.0  0.498878120276224  0.4660089099896679  0.1438940873197083  1.0000
  C   C26       1.0  0.49850186778898825  0.4779583825173361  0.8585988624702096  1.0000
  C   C27       1.0  0.49563665061046447  0.4898095634111854  0.2865342695245446  1.0000
  C   C28       1.0  0.4947751077665359  0.49488518650621677  0.7125726904759162  1.0000
  C   C29       1.0  0.4998138175649203  0.4626572006790611  0.9344577469670696  1.0000
  C   C30       1.0  0.5000584147027567  0.4556238687196982  0.069009839166398  1.0000
  C   C31       1.0  0.5723005318893328  0.1502972114162091  0.516838101597692  1.0000
  C   C32       1.0  0.43037995530224293  0.8440324042413394  0.5445993876341788  1.0000
  C   C33       1.0  0.5717104558178505  0.847779143022443  0.542499593671444  1.0000
  C   C34       1.0  0.5041558322125539  0.7277040962156037  0.5276113277353005  1.0000
  C   C35       1.0  0.4309299706042893  0.153113222019968  0.5136360659681358  1.0000
  C   C36       1.0  0.5751485231380897  0.22872330957690687  0.5021855767508967  1.0000
  C   C37       1.0  0.4314014170057092  0.7662812037513547  0.5360007848337105  1.0000
  C   C38       1.0  0.5748629321466865  0.7700712391660789  0.533770113180374  1.0000
  C   C39       1.0  0.4316847039262726  0.2316255557936273  0.5001096625689883  1.0000
  C   C40       1.0  0.7181139621044822  0.5662520775119333  0.3781749678520541  1.0000
  C   C41       1.0  0.2774145748089509  0.43849417926782763  0.619508533997724  1.0000
  C   C42       1.0  0.7202569885272608  0.437293921585848  0.6178462936596247  1.0000
  C   C43       1.0  0.2800088749782503  0.5650431347304234  0.3775411557628702  1.0000
  C   C44       1.0  0.500701851398709  0.112642891410168  0.5232874957676685  1.0000
  C   C45       1.0  0.4999939896704789  0.8851193586514298  0.5455477276736505  1.0000
  C   C46       1.0  0.4990476156883545  0.033375142130481095  0.5367771122841277  1.0000
  C   C47       1.0  0.4985026528978055  0.9647796598499028  0.544737749076333  1.0000
  C   C48       1.0  0.8384420662261576  0.5287301751695352  0.4384775707602415  1.0000
  N   N1        1.0  0.43154336775787533  0.4441587488161717  0.03634751189041911  1.0000
  N   N2        1.0  0.3619713716641542  0.26766340481628953  0.48761298590014945  1.0000
  N   N3        1.0  0.5694468552369614  0.45509421444744913  0.9674620956650557  1.0000
  N   N4        1.0  0.43139621115701493  0.4475544321451678  0.9678595269210747  1.0000
  N   N5        1.0  0.5696153665541955  0.4513189152422399  0.03603665673296771  1.0000
  N   N6        1.0  0.7157449548444603  0.5014036250978223  0.49782478571158617  1.0000
  N   N7        1.0  0.2834899614680211  0.5016402193357905  0.4983216256373311  1.0000
  N   N8        1.0  0.6464952132142657  0.2617252880932313  0.4919661687462026  1.0000
  N   N9        1.0  0.3617854853302376  0.7289405764453747  0.5369330880351413  1.0000
  N   N10       1.0  0.6463183952018028  0.7373816879565568  0.5290951548664681  1.0000
  O   O1        1.0  0.5721294159815216  0.6128935578706063  0.513402003472514  1.0000
  O   O2        1.0  0.675942229628994  0.6266091675809093  0.39284877523857636  1.0000
  O   O3        1.0  0.2602009390572633  0.4582467703453545  0.6769364051588269  1.0000
  O   O4        1.0  0.3219311455353235  0.3789090581703789  0.6068705602089253  1.0000
  O   O5        1.0  0.7342759760809798  0.4585571412296403  0.6754074002950717  1.0000
  O   O6        1.0  0.6768764667019553  0.3774175055869193  0.6044596709968317  1.0000
  O   O7        1.0  0.265455596462985  0.5458261699079614  0.3193952745775093  1.0000
  O   O8        1.0  0.3232939186736347  0.6247490712888393  0.392249143453924  1.0000
  O   O9        1.0  0.44164012404696246  0.39069902026608366  0.5022810592986033  1.0000
  O   O10       1.0  0.5715832199564731  0.3896807582061328  0.4855012924453632  1.0000
  O   O11       1.0  0.4421489231412891  0.6151813188178039  0.49674279287028617  1.0000
  O   O12       1.0  0.5584506527100501  0.5162852438410611  0.3921780409764891  1.0000
  O   O13       1.0  0.4263452897746447  0.5045537230361107  0.6049994169020039  1.0000
  O   O14       1.0  0.5572033314770977  0.4856037673819813  0.6035447338181754  1.0000
  O   O15       1.0  0.4273047783428651  0.5000032361230141  0.3927095017132132  1.0000
  O   O16       1.0  0.7302832218980909  0.5451049109783382  0.3202476561546277  1.0000
