data_image0
_chemical_formula_structural       Cu2H32C40S4N8O12
_chemical_formula_sum              "Cu2 H32 C40 S4 N8 O12"
_cell_length_a       11.120600429943126
_cell_length_b       11.134970864814912
_cell_length_c       16.917949410788175
_cell_angle_alpha    89.99737974259853
_cell_angle_beta     102.88197304989336
_cell_angle_gamma    90.00421554942503

_space_group_name_H-M_alt    "P 1"
_space_group_IT_number       1

loop_
  _space_group_symop_operation_xyz
  'x, y, z'

loop_
  _atom_site_type_symbol
  _atom_site_label
  _atom_site_symmetry_multiplicity
  _atom_site_fract_x
  _atom_site_fract_y
  _atom_site_fract_z
  _atom_site_occupancy
  Cu  Cu1       1.0  0.4999859068430936  0.552673895454909  0.2500018577717071  1.0000
  Cu  Cu2       1.0  0.500002893641181  0.44228250908773253  0.7499909425287613  1.0000
  H   H1        1.0  0.272887434993386  0.4739205029613843  0.13488258624740013  1.0000
  H   H2        1.0  0.045765265291414906  0.4648868061671224  0.13038877056468584  1.0000
  H   H3        1.0  0.1256368929409959  0.6242917455723858  0.3696684751535386  1.0000
  H   H4        1.0  0.34580180122037524  0.6314141656463479  0.3631724623528925  1.0000
  H   H5        1.0  0.38824961861030266  0.7432298409484873  0.1345661321903222  1.0000
  H   H6        1.0  0.3851463407173767  0.9678500349529886  0.12865741049474622  1.0000
  H   H7        1.0  0.5542560501271226  0.13970001708793234  0.13447658889932512  1.0000
  H   H8        1.0  0.5577416005926067  0.3617752063015871  0.1411604700657492  1.0000
  H   H9        1.0  0.7270792907755493  0.47390734251022343  0.3651156562668732  1.0000
  H   H10       1.0  0.9542010474603017  0.4648673503587447  0.36960685573541957  1.0000
  H   H11       1.0  0.8743455263531175  0.6243020428175045  0.13033101371532044  1.0000
  H   H12       1.0  0.6541823575030749  0.6314149542829953  0.13682337117631965  1.0000
  H   H13       1.0  0.6117109656384585  0.7432496162242119  0.3654191617626026  1.0000
  H   H14       1.0  0.6147877325916936  0.9678726263806965  0.3713139014615336  1.0000
  H   H15       1.0  0.4456357431383253  0.139631239489006  0.3654717446774002  1.0000
  H   H16       1.0  0.44217081669002317  0.3617161712537539  0.3588327409117867  1.0000
  H   H17       1.0  0.7270279413051739  0.5089792250100303  0.868431614241473  1.0000
  H   H18       1.0  0.9536233530257406  0.5237443823067879  0.8730568210335292  1.0000
  H   H19       1.0  0.8739770200500986  0.3923809861610864  0.6260196675678529  1.0000
  H   H20       1.0  0.654476753836846  0.382992787889897  0.6314978870695357  1.0000
  H   H21       1.0  0.5002628747664488  0.25010547404571076  0.873204650528109  1.0000
  H   H22       1.0  0.5020907851079741  0.029247244536897202  0.8783687756991798  1.0000
  H   H23       1.0  0.4197658889254399  0.8533197777187812  0.8559086678943474  1.0000
  H   H24       1.0  0.42248739604180946  0.6329997251945088  0.8513919837650122  1.0000
  H   H25       1.0  0.27299739849733123  0.5090167672433027  0.6315703766668292  1.0000
  H   H26       1.0  0.0464059087242035  0.5237909780251685  0.6269438050959054  1.0000
  H   H27       1.0  0.12600819750741007  0.3923310529166457  0.8739602029611859  1.0000
  H   H28       1.0  0.345511540752497  0.3829414741817274  0.8684898487155763  1.0000
  H   H29       1.0  0.4997427750702101  0.2500939216123612  0.6268032772958279  1.0000
  H   H30       1.0  0.498056881126992  0.029232995884982  0.6216824099319282  1.0000
  H   H31       1.0  0.5804307939717147  0.8533533734568626  0.6441463394013027  1.0000
  H   H32       1.0  0.5775365065711925  0.6330256547833387  0.6485855438191807  1.0000
  C   C1        1.0  0.23481221463960367  0.5057935852315082  0.18512021885940302  1.0000
  C   C2        1.0  0.10935486256346393  0.5024027004328248  0.183104053138365  1.0000
  C   C3        1.0  0.06635337986202931  0.5449047701398727  0.24992529471541763  1.0000
  C   C4        1.0  0.15324197180495247  0.5901415326291328  0.3160395736436216  1.0000
  C   C5        1.0  0.2771042551168605  0.5940353435501963  0.3130158236288381  1.0000
  C   C6        1.0  0.4373177902155376  0.7972254757738639  0.18518805792479046  1.0000
  C   C7        1.0  0.4367146628740102  0.9219406818056444  0.1825238606668478  1.0000
  C   C8        1.0  0.5296758876080362  0.1846219096750873  0.18590090567852266  1.0000
  C   C9        1.0  0.5312288387741475  0.30936137928527785  0.18878224685789038  1.0000
  C   C10       1.0  0.7651561716308278  0.5057820697500263  0.3148774312281404  1.0000
  C   C11       1.0  0.8906115204547402  0.5023862281225747  0.316892326680545  1.0000
  C   C12       1.0  0.9336176170323681  0.544901893549934  0.25006978546651487  1.0000
  C   C13       1.0  0.8467367217650618  0.5901449371688302  0.18395799855612444  1.0000
  C   C14       1.0  0.7228737745639578  0.5940356099476887  0.18698386990665483  1.0000
  C   C15       1.0  0.5626391931344017  0.7972407928754353  0.3147921156636357  1.0000
  C   C16       1.0  0.5632293789896962  0.921956863210532  0.31744941407807664  1.0000
  C   C17       1.0  0.4702375745487403  0.18459463014468017  0.31406635454531084  1.0000
  C   C18       1.0  0.4686928446148713  0.30933403535532733  0.3112054327967756  1.0000
  C   C19       1.0  0.7652299285058817  0.48446048646129475  0.8166475979018984  1.0000
  C   C20       1.0  0.8904676411401623  0.4908500212991669  0.8185824778419716  1.0000
  C   C21       1.0  0.9337129148920483  0.45713024169648264  0.7498870287279686  1.0000
  C   C22       1.0  0.8467376258324465  0.4191562228929017  0.6814221740250022  1.0000
  C   C23       1.0  0.7229916226618868  0.41317889868611263  0.684121048080293  1.0000
  C   C24       1.0  0.4999579205184189  0.19819974990956268  0.8185553925964018  1.0000
  C   C25       1.0  0.5000515746643613  0.0735779245993271  0.8207063501331008  1.0000
  C   C26       1.0  0.45614995770287686  0.8095776327369678  0.8086186805399154  1.0000
  C   C27       1.0  0.45692973939230086  0.6850089102127016  0.8066109986027783  1.0000
  C   C28       1.0  0.2347816736046582  0.4844783493337206  0.6833497099991064  1.0000
  C   C29       1.0  0.10954585709576038  0.49087016823722973  0.6814135913469386  1.0000
  C   C30       1.0  0.0662937573897153  0.45712771445472106  0.7501020103271401  1.0000
  C   C31       1.0  0.1532569009807077  0.4191320681711944  0.81856354094316  1.0000
  C   C32       1.0  0.27700496163661364  0.4131524684202007  0.8158698989695453  1.0000
  C   C33       1.0  0.5000752901263114  0.19819246033596727  0.681459765929489  1.0000
  C   C34       1.0  0.5000646366060407  0.07357160779876182  0.679336886369363  1.0000
  C   C35       1.0  0.5440380533148995  0.8095946154730246  0.6914324732331281  1.0000
  C   C36       1.0  0.543157839302225  0.6850212353114032  0.6933953718234278  1.0000
  C   C37       1.0  0.49997249454537496  0.987068386246385  0.24998203069135633  1.0000
  C   C38       1.0  0.49996076750834817  0.1197612212587416  0.24998106396007813  1.0000
  C   C39       1.0  0.5000843018709275  0.007653625083541702  0.7500287587491741  1.0000
  C   C40       1.0  0.5001081388306119  0.8751242396991898  0.7500329085028383  1.0000
  S   S1        1.0  0.45027806036328855  0.582290290144151  0.018660272669997438  1.0000
  S   S2        1.0  0.549710021275132  0.5822898075671503  0.48134346698338976  1.0000
  S   S3        1.0  0.5520813448494833  0.4281758890726907  0.9841050068768098  1.0000
  S   S4        1.0  0.4478995265278485  0.42816363798425555  0.5159035794079116  1.0000
  N   N1        1.0  0.3169883889247203  0.5520126208039571  0.24882485205706936  1.0000
  N   N2        1.0  0.6829839866023164  0.5520105147595373  0.2511742237080484  1.0000
  N   N3        1.0  0.6830729608706106  0.4449195561846508  0.7505787077189582  1.0000
  N   N4        1.0  0.3169302335970769  0.44491534515872627  0.7494169629266381  1.0000
  N   N5        1.0  0.4999819041760531  0.7359271815059429  0.2499909218126461  1.0000
  N   N6        1.0  0.4999688708827605  0.37029982047917553  0.24999967154585084  1.0000
  N   N7        1.0  0.5000015059908876  0.25984377356717664  0.7500030078782274  1.0000
  N   N8        1.0  0.5000188716766516  0.6240099725587954  0.7499912442261661  1.0000
  O   O1        1.0  0.43660130925601937  0.5483938606178852  0.1009935191409426  1.0000
  O   O2        1.0  0.33309084984280446  0.5857613525288914  0.958400117492751  1.0000
  O   O3        1.0  0.530075176066461  0.6872092447155965  0.018659403496840813  1.0000
  O   O4        1.0  0.5633784453046856  0.5484141688704868  0.3990077560122601  1.0000
  O   O5        1.0  0.6668980694089938  0.5857518782565306  0.541602595356018  1.0000
  O   O6        1.0  0.46992448150010085  0.6872043617485063  0.4813547603764833  1.0000
  O   O7        1.0  0.5603322449605271  0.4565875287550584  0.8999087143364266  1.0000
  O   O8        1.0  0.6710844095194871  0.42640860915704343  0.0422595164303132  1.0000
  O   O9        1.0  0.4725908974183213  0.3236134082036344  0.9882340530713093  1.0000
  O   O10       1.0  0.43968079133814086  0.45657028968962976  0.6001053513509333  1.0000
  O   O11       1.0  0.3288768995557376  0.4263871052824158  0.4577685518967769  1.0000
  O   O12       1.0  0.5273757277913731  0.3236065767794686  0.5117649658326826  1.0000
