data_image0
_chemical_formula_structural       Ag4H20C24S4N4O16F12
_chemical_formula_sum              "Ag4 H20 C24 S4 N4 O16 F12"
_cell_length_a       8.231862877454928
_cell_length_b       10.283964829784855
_cell_length_c       11.76579539936293
_cell_angle_alpha    86.53823264322152
_cell_angle_beta     81.46145013629052
_cell_angle_gamma    88.60831009291144

_space_group_name_H-M_alt    "P 1"
_space_group_IT_number       1

loop_
  _space_group_symop_operation_xyz
  'x, y, z'

loop_
  _atom_site_type_symbol
  _atom_site_label
  _atom_site_symmetry_multiplicity
  _atom_site_fract_x
  _atom_site_fract_y
  _atom_site_fract_z
  _atom_site_occupancy
  Ag  Ag1       1.0  0.1162177097932187  0.8886116843071362  0.0877920177821494  1.0000
  Ag  Ag2       1.0  0.8837823596841332  0.11138825578343864  0.9122081748885477  1.0000
  Ag  Ag3       1.0  0.3872674502659379  0.0656910579883672  0.9194625926519322  1.0000
  Ag  Ag4       1.0  0.6127326158571761  0.9343088818636714  0.08053675046169671  1.0000
  H   H1        1.0  0.03689528125096331  0.0706020321087877  0.23174846480895175  1.0000
  H   H2        1.0  0.9631047848721508  0.9293979077432579  0.7682508783046771  1.0000
  H   H3        1.0  0.014906449826540305  0.23873802249812562  0.3784506707423247  1.0000
  H   H4        1.0  0.9850924104346391  0.7612609403684587  0.6215488517247819  1.0000
  H   H5        1.0  0.05888337768523401  0.4753491615198159  0.3108719658596613  1.0000
  H   H6        1.0  0.9411155017047436  0.524648826829491  0.6891267563366483  1.0000
  H   H7        1.0  0.1254744159612073  0.5303403236029138  0.09839244875555408  1.0000
  H   H8        1.0  0.8745256759991803  0.4696586422089197  0.9016077932014142  1.0000
  H   H9        1.0  0.14606733379871878  0.3475441882232885  0.9620196170417116  1.0000
  H   H10       1.0  0.8539339831524088  0.6524547800567289  0.037979645290988615  1.0000
  H   H11       1.0  0.671237426704387  0.945820344431837  0.6414257027676271  1.0000
  H   H12       1.0  0.3287650769798772  0.054180575350919497  0.3585741804823924  1.0000
  H   H13       1.0  0.6917901668801535  0.04575038288241729  0.43765902876985746  1.0000
  H   H14       1.0  0.3082086484149542  0.9542505285416494  0.562340395124707  1.0000
  H   H15       1.0  0.6942973435170502  0.2904939840109151  0.408162401834744  1.0000
  H   H16       1.0  0.3056977900973551  0.7095069195315202  0.591838261818495  1.0000
  H   H17       1.0  0.6839666199322567  0.4235266187386061  0.5819009889763931  1.0000
  H   H18       1.0  0.3160309895009092  0.5764733156999924  0.418098614271642  1.0000
  H   H19       1.0  0.668896194693275  0.3062677303756374  0.778321489494985  1.0000
  H   H20       1.0  0.331103852301041  0.6937331839936789  0.22167865388944108  1.0000
  C   C1        1.0  0.0570284367696132  0.17365591718188964  0.20848837532195563  1.0000
  C   C2        1.0  0.9429704459745951  0.8263420714059464  0.7915111964314221  1.0000
  C   C3        1.0  0.0448038735517429  0.2688083384436624  0.2876941937127242  1.0000
  C   C4        1.0  0.9551950091924655  0.7311896501441666  0.7123053780406536  1.0000
  C   C5        1.0  0.06934828992439888  0.3989451308737841  0.2500434186393719  1.0000
  C   C6        1.0  0.9306518245190247  0.6010528606593012  0.7499568726038675  1.0000
  C   C7        1.0  0.10513265238441251  0.43036090393199794  0.1320574324666595  1.0000
  C   C8        1.0  0.8948674395759754  0.5696380618798287  0.8679428094903014  1.0000
  C   C9        1.0  0.11790260643502389  0.3328212345544799  0.0551379720424876  1.0000
  C   C10       1.0  0.8820950029981348  0.6671786998841184  0.9448616312055477  1.0000
  C   C11       1.0  0.6754413149117012  0.0500817985150235  0.6201381026076973  1.0000
  C   C12       1.0  0.3245599637818231  0.9499191187995422  0.37986276026658317  1.0000
  C   C13       1.0  0.6850111263475682  0.10790822390275422  0.5100101262942615  1.0000
  C   C14       1.0  0.3149901714747543  0.8920917188945411  0.4899899363092287  1.0000
  C   C15       1.0  0.6880635814846415  0.24346702039490964  0.4939426236969948  1.0000
  C   C16       1.0  0.3119352304562284  0.756533890790628  0.5060559506405085  1.0000
  C   C17       1.0  0.6826245822556345  0.3176070342012878  0.5900573090039742  1.0000
  C   C18       1.0  0.31737546473867445  0.6823938801680285  0.40994283438044465  1.0000
  C   C19       1.0  0.6738675097908668  0.2567196733347074  0.6987445217842347  1.0000
  C   C20       1.0  0.3261337846772249  0.7432802692240584  0.3012546912621942  1.0000
  C   C21       1.0  0.78838006126432  0.6815353674964157  0.426946449524543  1.0000
  C   C22       1.0  0.2116199632469531  0.318466521151649  0.573053644573612  1.0000
  C   C23       1.0  0.4329097402330148  0.6075819611536772  0.8195551460776116  1.0000
  C   C24       1.0  0.5670879175204535  0.3924160249659677  0.18044540530002706  1.0000
  S   S1        1.0  0.8491571721494822  0.7973758537116779  0.30048357010604576  1.0000
  S   S2        1.0  0.15084287484482675  0.20262506065763825  0.6995165732783803  1.0000
  S   S3        1.0  0.39138234374373587  0.7449924204046994  0.9165627372859504  1.0000
  S   S4        1.0  0.608617748216652  0.25500654540712725  0.08343750467101778  1.0000
  N   N1        1.0  0.09469184250623638  0.20697211281125044  0.0946649676971987  1.0000
  N   N2        1.0  0.9053069952719  0.7930278243340679  0.9053345054836369  1.0000
  N   N3        1.0  0.6702010641330675  0.1246731785030875  0.7119420598263985  1.0000
  N   N4        1.0  0.3298002112062265  0.8753277385729491  0.28805795349082786  1.0000
  O   O1        1.0  0.1096655712496215  0.11396518570853689  0.0179434879140317  1.0000
  O   O2        1.0  0.8903344915192619  0.8860347539049725  0.982055005642543  1.0000
  O   O3        1.0  0.6610905453142736  0.06604452581267849  0.817036693518716  1.0000
  O   O4        1.0  0.33891077163686134  0.9339544424673389  0.18296256881398415  1.0000
  O   O5        1.0  0.6907329046252286  0.8371783532140923  0.2668139980607833  1.0000
  O   O6        1.0  0.3092671423690875  0.162822561155231  0.7331861453236427  1.0000
  O   O7        1.0  0.9360511439614215  0.8981251456723025  0.34802265329002324  1.0000
  O   O8        1.0  0.06395012802363452  0.10187577116520426  0.6519765104701349  1.0000
  O   O9        1.0  0.9529999653117046  0.7165456153270923  0.21921389477947878  1.0000
  O   O10       1.0  0.0470001041656403  0.2834543247634826  0.7807862978912182  1.0000
  O   O11       1.0  0.5496937179175276  0.7648497245131478  0.954182562187725  1.0000
  O   O12       1.0  0.4503063706886294  0.23514924106014934  0.04581683021218199  1.0000
  O   O13       1.0  0.3355486495529831  0.8511423920886254  0.8419516928832564  1.0000
  O   O14       1.0  0.6644501915793909  0.14885754529522896  0.15804862985464044  1.0000
  O   O15       1.0  0.2631857075762341  0.6932824335301004  0.006678689212151319  1.0000
  O   O16       1.0  0.7368143619011178  0.3067175065604745  0.9933215034585459  1.0000
  F   F1        1.0  0.704316214270534  0.745166936730655  0.5157996669842291  1.0000
  F   F2        1.0  0.2956850194569114  0.2548359291414002  0.4842010973175092  1.0000
  F   F3        1.0  0.6914641105445014  0.5857057620620552  0.4016195194005405  1.0000
  F   F4        1.0  0.3085347114590675  0.41429514983907006  0.5983816036081535  1.0000
  F   F5        1.0  0.9229992439689668  0.6230717686002691  0.464315565846853  1.0000
  F   F6        1.0  0.07700200888728398  0.37693012275450843  0.5356843981841024  1.0000
  F   F7        1.0  0.2917153303652498  0.5731179967122486  0.7836574083973177  1.0000
  F   F8        1.0  0.708281105751702  0.4268799871777419  0.21634497216165016  1.0000
  F   F9        1.0  0.4942102793465609  0.5021334525184641  0.8741376323620214  1.0000
  F   F10       1.0  0.5057910376045741  0.49786551576155347  0.12586162997067865  1.0000
  F   F11       1.0  0.5425003521836799  0.6426181025551968  0.7252319807509339  1.0000
  F   F12       1.0  0.4574960289045009  0.3573818291766884  0.27476775256430835  1.0000
