data_image0
_chemical_formula_structural       U4P4H12C8O28
_chemical_formula_sum              "U4 P4 H12 C8 O28"
_cell_length_a       6.701483844707997
_cell_length_b       7.136754823008845
_cell_length_c       14.288783890169839
_cell_angle_alpha    90.00004608872665
_cell_angle_beta     104.01175994837696
_cell_angle_gamma    89.99982557810631

_space_group_name_H-M_alt    "P 1"
_space_group_IT_number       1

loop_
  _space_group_symop_operation_xyz
  'x, y, z'

loop_
  _atom_site_type_symbol
  _atom_site_label
  _atom_site_symmetry_multiplicity
  _atom_site_fract_x
  _atom_site_fract_y
  _atom_site_fract_z
  _atom_site_occupancy
  U   U1        1.0  0.9062451057186253  0.32889060509668155  0.2622725637917469  1.0000
  U   U2        1.0  0.5937535465464805  0.8288843906025961  0.23772437351568237  1.0000
  U   U3        1.0  0.09375848800635819  0.6711076759100648  0.7377284357617883  1.0000
  U   U4        1.0  0.40623930368437305  0.17110968682602135  0.762271195160956  1.0000
  P   P1        1.0  0.08439248741843387  0.830612798465687  0.2899645367179673  1.0000
  P   P2        1.0  0.41560902452567206  0.3306077398637513  0.2100371880864174  1.0000
  P   P3        1.0  0.9156049470413166  0.16938548254993438  0.7100371563653312  1.0000
  P   P4        1.0  0.5843961034600511  0.6693877387470054  0.7899646872243196  1.0000
  H   H1        1.0  0.5651777870493077  0.6258987280334056  0.5548758146762083  1.0000
  H   H2        1.0  0.9348172309889975  0.12588257392062016  0.9451288091822934  1.0000
  H   H3        1.0  0.4348165492355917  0.374105157776242  0.445129722306099  1.0000
  H   H4        1.0  0.0651956090405008  0.8741199106635449  0.0548697512237979  1.0000
  H   H5        1.0  0.27843580253136213  0.0018759661408652  0.42889034442010404  1.0000
  H   H6        1.0  0.221574463872642  0.5018664723421011  0.0711079782531598  1.0000
  H   H7        1.0  0.7215647152721163  0.9981195124759096  0.5711103024712614  1.0000
  H   H8        1.0  0.7784321983516165  0.4981402158434419  0.9288947728166335  1.0000
  H   H9        1.0  0.06612123917188478  0.8774745174630001  0.45341962077245773  1.0000
  H   H10       1.0  0.43389088252744307  0.3774552789938781  0.046584749633673504  1.0000
  H   H11       1.0  0.9338808239901297  0.12253217072779418  0.5465798035979432  1.0000
  H   H12       1.0  0.5661219204286994  0.6225514091840694  0.9534208050397339  1.0000
  C   C1        1.0  0.19344723716366016  0.8688667726309375  0.41728278286240794  1.0000
  C   C2        1.0  0.3065633738510058  0.3688577249147755  0.0827214089302544  1.0000
  C   C3        1.0  0.8065502047049904  0.13113431077832868  0.5827175113679175  1.0000
  C   C4        1.0  0.6934402198628647  0.6311475620773594  0.9172795906242045  1.0000
  C   C5        1.0  0.3296680515656192  0.7072062865903065  0.4595965946122433  1.0000
  C   C6        1.0  0.17034461374160512  0.2071905841486981  0.0404070311897797  1.0000
  C   C7        1.0  0.670337043053415  0.2927933956139838  0.5404115755391317  1.0000
  C   C8        1.0  0.8296528689115164  0.7928034932723806  0.9595855693461744  1.0000
  O   O1        1.0  0.8535885107614832  0.35668898162114704  0.1333617212821423  1.0000
  O   O2        1.0  0.6464116358003054  0.8566827117095885  0.3666270066119068  1.0000
  O   O3        1.0  0.14641821077615447  0.6433135029690861  0.8666298389602715  1.0000
  O   O4        1.0  0.3535766190683134  0.14331556931526276  0.6333645359392222  1.0000
  O   O5        1.0  0.9430666085168867  0.29324274429245634  0.38999354245748213  1.0000
  O   O6        1.0  0.5569336651143003  0.7932239309414227  0.1100091571340087  1.0000
  O   O7        1.0  0.05693387221989352  0.7067527343268695  0.6100140987006525  1.0000
  O   O8        1.0  0.4430545601231798  0.20676033811469097  0.8899879808286711  1.0000
  O   O9        1.0  0.25507924712015034  0.8053559633887488  0.2374228330146479  1.0000
  O   O10       1.0  0.2449254356675965  0.3053486179014939  0.2625764400430413  1.0000
  O   O11       1.0  0.7449105160669731  0.19463671284773906  0.7625744812800478  1.0000
  O   O12       1.0  0.7550796960425713  0.6946356511323869  0.7374247358395322  1.0000
  O   O13       1.0  0.9375112364071754  0.9965259344187629  0.25010104543696343  1.0000
  O   O14       1.0  0.5624822518674506  0.4965260967684061  0.2498989044913031  1.0000
  O   O15       1.0  0.0624862128814812  0.0034709453987602995  0.749897849939444  1.0000
  O   O16       1.0  0.4375136372159929  0.5034721842498228  0.7501040111144519  1.0000
  O   O17       1.0  0.9331101582918039  0.6615347579347172  0.2742710164209186  1.0000
  O   O18       1.0  0.5668936199951488  0.1615320882926525  0.22572990260790246  1.0000
  O   O19       1.0  0.0668857307849677  0.338467726674736  0.7257318991853908  1.0000
  O   O20       1.0  0.43311153392838264  0.838468995104634  0.7742670767168393  1.0000
  O   O21       1.0  0.2997520377981219  0.5497117633027956  0.4212846010064625  1.0000
  O   O22       1.0  0.20026115285164542  0.04970020802882401  0.0787140870207779  1.0000
  O   O23       1.0  0.700237688295644  0.4502977273011767  0.5787197075572266  1.0000
  O   O24       1.0  0.799753228843052  0.950305078947153  0.9212839502899116  1.0000
  O   O25       1.0  0.47598387075470333  0.7447904183570914  0.536436810780792  1.0000
  O   O26       1.0  0.024019816928372996  0.24477823022736797  0.9635677415742309  1.0000
  O   O27       1.0  0.5239997405605337  0.2552148686614544  0.4635597981919872  1.0000
  O   O28       1.0  0.9759930008544443  0.7552284579495562  0.03643501539247746  1.0000
