data_image0
_chemical_formula_structural       Zn2H28C34S4N16
_chemical_formula_sum              "Zn2 H28 C34 S4 N16"
_cell_length_a       8.654318913939008
_cell_length_b       9.466162309776479
_cell_length_c       11.695549775561982
_cell_angle_alpha    84.77583301736408
_cell_angle_beta     88.5122831372807
_cell_angle_gamma    81.78139233168382

_space_group_name_H-M_alt    "P 1"
_space_group_IT_number       1

loop_
  _space_group_symop_operation_xyz
  'x, y, z'

loop_
  _atom_site_type_symbol
  _atom_site_label
  _atom_site_symmetry_multiplicity
  _atom_site_fract_x
  _atom_site_fract_y
  _atom_site_fract_z
  _atom_site_occupancy
  Zn  Zn1       1.0  0.6430072802549988  0.8481220448156248  0.7726822393100363  1.0000
  Zn  Zn2       1.0  0.3569895487748482  0.15187636976841645  0.22731948336569022  1.0000
  H   H1        1.0  0.5031424041512764  0.800750872798609  0.05364646108348132  1.0000
  H   H2        1.0  0.4968619745870485  0.19925079557275177  0.9463531095191015  1.0000
  H   H3        1.0  0.45662645103993077  0.6569776617835429  0.23639928444182354  1.0000
  H   H4        1.0  0.5433753969623895  0.3430251035479443  0.763597720913026  1.0000
  H   H5        1.0  0.584403204198054  0.40702615229136524  0.27489166633172596  1.0000
  H   H6        1.0  0.4155939246291139  0.5929776326872016  0.7251088293206323  1.0000
  H   H7        1.0  0.7733540742763269  0.2911078214902218  0.1347354356765393  1.0000
  H   H8        1.0  0.22664225240212232  0.7088863147434522  0.865265735852681  1.0000
  H   H9        1.0  0.8811480184603795  0.2378983012428363  0.9146041642933938  1.0000
  H   H10       1.0  0.11884844039701659  0.7621022768722837  0.0853957126983715  1.0000
  H   H11       1.0  0.03129340280947451  0.3139728361780951  0.9740157693440707  1.0000
  H   H12       1.0  0.9687021032449579  0.686026647211527  0.025985919942577616  1.0000
  H   H13       1.0  0.07084517121141691  0.44368776874199506  0.7705228065806224  1.0000
  H   H14       1.0  0.9291536332957689  0.5563127941785453  0.229478712816892  1.0000
  H   H15       1.0  0.1378454729454504  0.25928394022530193  0.7952755578015669  1.0000
  H   H16       1.0  0.8621543542361039  0.7407176763062322  0.20472757061261854  1.0000
  H   H17       1.0  0.8181163005396287  0.36963090604226057  0.685876564616997  1.0000
  H   H18       1.0  0.18188176412638773  0.6303664911293153  0.31412091480837034  1.0000
  H   H19       1.0  0.9952612317748475  0.33943155504606887  0.6060430975954744  1.0000
  H   H20       1.0  0.004739601116952532  0.6605636325639778  0.3939604359032671  1.0000
  H   H21       1.0  0.23125507084274238  0.1444202860141814  0.5848562744633767  1.0000
  H   H22       1.0  0.7687540445385749  0.8555803524314741  0.41514066116958753  1.0000
  H   H23       1.0  0.36452050774231265  0.9058288491677685  0.5325867330947176  1.0000
  H   H24       1.0  0.6354800177883108  0.0941674921581779  0.4674098902668291  1.0000
  H   H25       1.0  0.23955042644851698  0.6885979546139678  0.5692102537425257  1.0000
  H   H26       1.0  0.7604413585771611  0.3114026436116788  0.4307871937656245  1.0000
  H   H27       1.0  0.9774000040394171  0.6947890473113671  0.6665515085535318  1.0000
  H   H28       1.0  0.02259670271547522  0.3052094392230344  0.3334442268269768  1.0000
  C   C1        1.0  0.6667138214910864  0.6258729073774774  0.9913362736459631  1.0000
  C   C2        1.0  0.3332891539926948  0.37413084989326956  0.008667472692884802  1.0000
  C   C3        1.0  0.5609329117080436  0.6912742398125998  0.07042399643838589  1.0000
  C   C4        1.0  0.43906987919324086  0.30872310641257156  0.9295784784542604  1.0000
  C   C5        1.0  0.5355469078062925  0.6094416879194  0.1717644963129246  1.0000
  C   C6        1.0  0.4644561479566178  0.390561049257549  0.8282350409005729  1.0000
  C   C7        1.0  0.61092341221039  0.46679700713409716  0.19453147308338  1.0000
  C   C8        1.0  0.38908053404794174  0.5332003417723996  0.8054709676842505  1.0000
  C   C9        1.0  0.7163869934945879  0.4010528611526637  0.1177053579202365  1.0000
  C   C10       1.0  0.2836154621699478  0.5989466280463346  0.8822969819442221  1.0000
  C   C11       1.0  0.7428218286153337  0.48433902158457426  0.01562605251430681  1.0000
  C   C12       1.0  0.2571816851629977  0.5156540078570586  0.9843792584183647  1.0000
  C   C13       1.0  0.947082883969806  0.32961049816039173  0.9037516783386081  1.0000
  C   C14       1.0  0.05291459756195856  0.6703911335657293  0.0962498076698211  1.0000
  C   C15       1.0  0.03194636281277501  0.33849852495805516  0.7884085360128168  1.0000
  C   C16       1.0  0.9680511187189895  0.6615031067680657  0.2115929499956124  1.0000
  C   C17       1.0  0.9362671336432269  0.3095982165999941  0.6870804722629273  1.0000
  C   C18       1.0  0.06373396411019887  0.6904023619618297  0.3129201235566724  1.0000
  C   C19       1.0  0.02907954894555331  0.04972692300542999  0.6534109236312915  1.0000
  C   C20       1.0  0.9709235696286312  0.9502748043563399  0.34658354912897954  1.0000
  C   C21       1.0  0.17698309593002653  0.0474933186651754  0.6015225366696413  1.0000
  C   C22       1.0  0.823011830337748  0.9525084515990013  0.39846704299839797  1.0000
  C   C23       1.0  0.24920174634513612  0.9148027362669704  0.5730466436757666  1.0000
  C   C24       1.0  0.7507937172097385  0.08520329179032868  0.42694519779454504  1.0000
  C   C25       1.0  0.17791594713325762  0.7893160246252859  0.5956787384080258  1.0000
  C   C26       1.0  0.8220841628814951  0.21068347976829213  0.4043219590506837  1.0000
  C   C27       1.0  0.03247553900768457  0.7911474568550643  0.6488132196112845  1.0000
  C   C28       1.0  0.9675315555528742  0.20885203279064507  0.351189839081009  1.0000
  C   C29       1.0  0.9579439405045702  0.9251028413679377  0.6779381263776472  1.0000
  C   C30       1.0  0.0420602885869599  0.0748923954006031  0.3220618834345004  1.0000
  C   C31       1.0  0.6525408346102282  0.6809786493733866  0.5580870662204589  1.0000
  C   C32       1.0  0.3474688459337614  0.319025257607464  0.44190535610577086  1.0000
  C   C33       1.0  0.34244691972399727  0.9762056101248856  0.8889907579309978  1.0000
  C   C34       1.0  0.6575547955956439  0.023798206136269998  0.1110078905655385  1.0000
  S   S1        1.0  0.6997841061943291  0.5851500120526365  0.4527688682705886  1.0000
  S   S2        1.0  0.30021247493802156  0.414850494112116  0.5472369960163874  1.0000
  S   S3        1.0  0.18269659525183363  0.007303211855983695  0.9611953438948504  1.0000
  S   S4        1.0  0.8172992285714927  0.9926941388384303  0.03880562509209542  1.0000
  N   N1        1.0  0.8144770097726238  0.9675373539993896  0.7272819342681914  1.0000
  N   N2        1.0  0.1855252258699949  0.0324632375223928  0.2727177720985097  1.0000
  N   N3        1.0  0.7933935721257583  0.10734342900064314  0.7332877183611473  1.0000
  N   N4        1.0  0.20660635280277267  0.8926571571584743  0.266712056255578  1.0000
  N   N5        1.0  0.9209054761581258  0.1579809118128708  0.6888251824549272  1.0000
  N   N6        1.0  0.07909690963500543  0.8420186185006242  0.3111737360979774  1.0000
  N   N7        1.0  0.7193871916510731  0.6736924299249976  0.8845053064277053  1.0000
  N   N8        1.0  0.28061159538825825  0.3263081432741614  0.115495357641926  1.0000
  N   N9        1.0  0.8211969335300325  0.5727867859910913  0.8437213035738722  1.0000
  N   N10       1.0  0.17880183604145114  0.4272137974866936  0.1562785051678617  1.0000
  N   N11       1.0  0.8370167612782425  0.45889949619769493  0.9213678383618956  1.0000
  N   N12       1.0  0.162985659450591  0.5411000135585481  0.0786327908467896  1.0000
  N   N13       1.0  0.6155638687751978  0.7548849770334412  0.6340749581602481  1.0000
  N   N14       1.0  0.3844299162557974  0.24511872795076775  0.3659316271623609  1.0000
  N   N15       1.0  0.46183474285625437  0.9539505524345699  0.8369087085940804  1.0000
  N   N16       1.0  0.538161300485271  0.04605318874817498  0.1630952424948404  1.0000
