data_image0
_chemical_formula_structural       Dy2H26C28N4O22
_chemical_formula_sum              "Dy2 H26 C28 N4 O22"
_cell_length_a       7.4281215976401285
_cell_length_b       10.00375179986981
_cell_length_c       11.730415523105588
_cell_angle_alpha    107.36394419870064
_cell_angle_beta     99.80400177246271
_cell_angle_gamma    101.28034687783692

_space_group_name_H-M_alt    "P 1"
_space_group_IT_number       1

loop_
  _space_group_symop_operation_xyz
  'x, y, z'

loop_
  _atom_site_type_symbol
  _atom_site_label
  _atom_site_symmetry_multiplicity
  _atom_site_fract_x
  _atom_site_fract_y
  _atom_site_fract_z
  _atom_site_occupancy
  Dy  Dy1       1.0  0.32120812554020967  0.8821416671661455  0.7661361512176653  1.0000
  Dy  Dy2       1.0  0.6787923517426435  0.11785699900822519  0.2338655343653571  1.0000
  H   H1        1.0  0.7071950422376999  0.8677402293066266  0.7852601850116371  1.0000
  H   H2        1.0  0.2928058360192338  0.13225951197931346  0.21474010862637263  1.0000
  H   H3        1.0  0.7653043410152733  0.0393638873731774  0.8400743824753575  1.0000
  H   H4        1.0  0.2346966352683849  0.960635828604488  0.15992165343384096  1.0000
  H   H5        1.0  0.05013493716439392  0.9926934843040413  0.8893991446326766  1.0000
  H   H6        1.0  0.949865579329149  0.0073051717470278  0.11060083785881858  1.0000
  H   H7        1.0  0.06325434436110561  0.8654366636173806  0.9424942203752238  1.0000
  H   H8        1.0  0.9367451653936598  0.13456307031806605  0.057505910545472695  1.0000
  H   H9        1.0  0.2932523786830997  0.9255003201165197  0.5171624579295795  1.0000
  H   H10       1.0  0.706749105338531  0.07449726817346658  0.48283907922424135  1.0000
  H   H11       1.0  0.47143164338329047  0.8598306084335973  0.5406312969016581  1.0000
  H   H12       1.0  0.5285706033758046  0.14016914020282917  0.45936915945367224  1.0000
  H   H13       1.0  0.017598881735523333  0.6651690338309992  0.49105453949646727  1.0000
  H   H14       1.0  0.9823984575689195  0.3348285425308364  0.5089482125969482  1.0000
  H   H15       1.0  0.3201681797555764  0.4543704667675712  0.3550518806103752  1.0000
  H   H16       1.0  0.6798292771809427  0.5456270792243387  0.6449457622084651  1.0000
  H   H17       1.0  0.28433374955763907  0.6319265868906143  0.39173359850107653  1.0000
  H   H18       1.0  0.7156643328789226  0.368073154879312  0.6082689243395974  1.0000
  H   H19       1.0  0.1503974089328466  0.3278135824775887  0.14352087950770448  1.0000
  H   H20       1.0  0.8496028047433412  0.6721883269892645  0.8564807252517851  1.0000
  H   H21       1.0  0.5070789683776553  0.7607571625787416  0.24776039571055009  1.0000
  H   H22       1.0  0.4929141195757011  0.2392479584898126  0.7522411661846107  1.0000
  H   H23       1.0  0.2259476696595683  0.5244882772864229  0.8676993184380563  1.0000
  H   H24       1.0  0.774054215336143  0.47551038611513263  0.13230082677075924  1.0000
  H   H25       1.0  0.9540112886201584  0.17776316391745442  0.7124779093133995  1.0000
  H   H26       1.0  0.04598970739883873  0.8222409008341743  0.28752176310182886  1.0000
  C   C1        1.0  0.9212660625839604  0.9461297275274064  0.6026185789404863  1.0000
  C   C2        1.0  0.07872565673723392  0.0538710323550404  0.39737833218556756  1.0000
  C   C3        1.0  0.8102104380009718  0.8003764112655462  0.5164747885172147  1.0000
  C   C4        1.0  0.18978496624729496  0.1996233006184553  0.48352485425154856  1.0000
  C   C5        1.0  0.8748032620468392  0.6762414705403901  0.47265115991433493  1.0000
  C   C6        1.0  0.12519622810258108  0.32375826845671446  0.5273498225521251  1.0000
  C   C7        1.0  0.7137293873942953  0.5659125143098224  0.4038138468689141  1.0000
  C   C8        1.0  0.28626869504226693  0.43408722746010403  0.5961886759717672  1.0000
  C   C9        1.0  0.6979814047240466  0.41028174214115154  0.3442065803147045  1.0000
  C   C10       1.0  0.3020235398286815  0.5897180313195493  0.6557959045667658  1.0000
  C   C11       1.0  0.3636696256563355  0.5601929227923536  0.3447677787344787  1.0000
  C   C12       1.0  0.6363311741792115  0.4398068387401962  0.6552359210865857  1.0000
  C   C13       1.0  0.33029672791427345  0.5455393383716542  0.21022428946776733  1.0000
  C   C14       1.0  0.6697010909156235  0.4544636466907548  0.789778152549374  1.0000
  C   C15       1.0  0.21422775887610607  0.41909858148802936  0.11835381942639599  1.0000
  C   C16       1.0  0.7857715068773458  0.5809043906782492  0.8816453791250041  1.0000
  C   C17       1.0  0.41359118505745573  0.6618929310390841  0.17757371777087627  1.0000
  C   C18       1.0  0.5864103775155554  0.33810899083990614  0.8224289012516904  1.0000
  C   C19       1.0  0.17854978671824986  0.41005937693744  0.994374267043355  1.0000
  C   C20       1.0  0.821453163832274  0.5899381933947582  0.005623175098968101  1.0000
  C   C21       1.0  0.3763371387862548  0.6549757813875203  0.054828261059562025  1.0000
  C   C22       1.0  0.6236596143588359  0.3450239429086183  0.9451723959722782  1.0000
  C   C23       1.0  0.05487473803633947  0.27561995404843737  0.8962415093664261  1.0000
  C   C24       1.0  0.9451254362991646  0.7243776117061034  0.10375731043279762  1.0000
  C   C25       1.0  0.25771685511188736  0.5292737348201371  0.963067680680993  1.0000
  C   C26       1.0  0.7422840427503842  0.4707260014041523  0.0369317614112532  1.0000
  C   C27       1.0  0.45803562104254775  0.7864488523888441  0.025176468145595335  1.0000
  C   C28       1.0  0.5419676520606699  0.2135498133015403  0.9748229882347629  1.0000
  N   N1        1.0  0.62022963696635  0.7688250720907065  0.47498417405969207  1.0000
  N   N2        1.0  0.3797664514680007  0.23117246655072418  0.5250133060418278  1.0000
  N   N3        1.0  0.5630152816882585  0.6266859248525023  0.40953027044469076  1.0000
  N   N4        1.0  0.4369838466977711  0.37331272890973116  0.5904704008752617  1.0000
  O   O1        1.0  0.3836134356044028  0.7942275325735723  0.9231304979667456  1.0000
  O   O2        1.0  0.6163921733990775  0.20576571887059467  0.07686618774145866  1.0000
  O   O3        1.0  0.6567094801686083  0.9519881442888266  0.8088660269490687  1.0000
  O   O4        1.0  0.34329195590516537  0.04801263161544259  0.191126062377826  1.0000
  O   O5        1.0  0.06000892532588859  0.8918402300716438  0.8674132764070208  1.0000
  O   O6        1.0  0.939991952931045  0.1081595112142963  0.13258701723099617  1.0000
  O   O7        1.0  0.37138708351337624  0.896733544915826  0.5785081249174411  1.0000
  O   O8        1.0  0.6286099528437247  0.10326293102617262  0.4214917613921683  1.0000
  O   O9        1.0  0.40498545683637127  0.11608132877231012  0.8930907409110417  1.0000
  O   O10       1.0  0.5950143754710807  0.883919500521323  0.10691140424769689  1.0000
  O   O11       1.0  0.08211729670668438  0.9580240703352491  0.6667956350348447  1.0000
  O   O12       1.0  0.917881587678032  0.0419778216578095  0.3332041039158042  1.0000
  O   O13       1.0  0.15064115105190723  0.6288739440862798  0.6682266295521585  1.0000
  O   O14       1.0  0.8493614574705716  0.3711268897850104  0.3317741379496794  1.0000
  O   O15       1.0  0.4634040201151136  0.6815539511399962  0.6899415188041829  1.0000
  O   O16       1.0  0.5366012469903083  0.3184469176788839  0.3100629803153296  1.0000
  O   O17       1.0  0.8482973724965175  0.053860644932782996  0.6097144953095109  1.0000
  O   O18       1.0  0.15170197167830685  0.946142306986879  0.39028129705884146  1.0000
  O   O19       1.0  0.03443983761105331  0.27843927959416  0.7847596558086208  1.0000
  O   O20       1.0  0.9655618033833377  0.7215626220382138  0.21523955703089115  1.0000
  O   O21       1.0  0.9749913325417338  0.167599663137139  0.9211994994722444  1.0000
  O   O22       1.0  0.025012263114177806  0.8324000979114247  0.07880197114614874  1.0000
