data_image0
_chemical_formula_structural       Zn4H52C58Br2N6O16
_chemical_formula_sum              "Zn4 H52 C58 Br2 N6 O16"
_cell_length_a       7.962069626867955
_cell_length_b       15.015265349042165
_cell_length_c       15.0436
_cell_angle_alpha    60.086532849768304
_cell_angle_beta     75.05757478025552
_cell_angle_gamma    75.11803109318623

_space_group_name_H-M_alt    "P 1"
_space_group_IT_number       1

loop_
  _space_group_symop_operation_xyz
  'x, y, z'

loop_
  _atom_site_type_symbol
  _atom_site_label
  _atom_site_symmetry_multiplicity
  _atom_site_fract_x
  _atom_site_fract_y
  _atom_site_fract_z
  _atom_site_occupancy
  Zn  Zn1       1.0  0.1120280531218043  0.4043128243445794  0.01955897330245186  1.0000
  Zn  Zn2       1.0  0.3876565188968257  0.9804533896604468  0.5956891013978804  1.0000
  Zn  Zn3       1.0  0.8879740142373008  0.5956873849634476  0.9804425681107743  1.0000
  Zn  Zn4       1.0  0.6123395430939809  0.0195499297223094  0.4043097173202597  1.0000
  H   H1        1.0  0.6489153048054134  0.6183466118922283  0.5549650902106433  1.0000
  H   H2        1.0  0.851110879659636  0.44437214184191026  0.3820948659139702  1.0000
  H   H3        1.0  0.35109439815727234  0.3816341594487653  0.44503976658358374  1.0000
  H   H4        1.0  0.14889927991863774  0.5556319550595248  0.6178890119336415  1.0000
  H   H5        1.0  0.6489569893754918  0.7823470722989825  0.3915694557753113  1.0000
  H   H6        1.0  0.8514516286906897  0.6077350369300092  0.21802320302865746  1.0000
  H   H7        1.0  0.3510431012409114  0.2176406967101414  0.6084425359979448  1.0000
  H   H8        1.0  0.148547325876109  0.39227217004615506  0.7819673032697878  1.0000
  H   H9        1.0  0.5353512632729434  0.8935174708682468  0.2535354054410989  1.0000
  H   H10       1.0  0.965153698328443  0.7462406597773211  0.10646153843540418  1.0000
  H   H11       1.0  0.46465019979232386  0.1064850709958236  0.7464650574054447  1.0000
  H   H12       1.0  0.0348433708187699  0.2537587720120271  0.8935390778938839  1.0000
  H   H13       1.0  0.3769499859016393  0.0286484533307458  0.23742190888020076  1.0000
  H   H14       1.0  0.1236513103752301  0.7623469592602063  0.9714031563027276  1.0000
  H   H15       1.0  0.6230549740334581  0.9713556435706893  0.7625779674583768  1.0000
  H   H16       1.0  0.876347461545329  0.2376509174917771  0.028598001671674873  1.0000
  H   H17       1.0  0.17244633723220912  0.1944620873022629  0.20030161943924438  1.0000
  H   H18       1.0  0.3276235388006016  0.7995652234961099  0.8055614686006435  1.0000
  H   H19       1.0  0.8275573227920959  0.8055420095991722  0.7996977695641618  1.0000
  H   H20       1.0  0.6723787299897808  0.2004342082932382  0.19444043233480807  1.0000
  H   H21       1.0  0.3996658200395657  0.3319437180463183  0.8918227081209763  1.0000
  H   H22       1.0  0.09948620736214761  0.1082344880287209  0.668195511481727  1.0000
  H   H23       1.0  0.6003347459774631  0.6680572687803875  0.10817466276232318  1.0000
  H   H24       1.0  0.9005110632163422  0.8917641662419413  0.3318054643697863  1.0000
  H   H25       1.0  0.6125876730511877  0.16845330989448834  0.9146891684177733  1.0000
  H   H26       1.0  0.8871610433689484  0.08521215987578049  0.8317706985050037  1.0000
  H   H27       1.0  0.38741089743809454  0.831545344376174  0.08531030056539633  1.0000
  H   H28       1.0  0.11283792998289499  0.9147849393575243  0.1682301542571238  1.0000
  H   H29       1.0  0.6243653419240758  0.3999291740194765  0.3151460123054052  1.0000
  H   H30       1.0  0.8760949435263397  0.6844559152874368  0.6003633570114318  1.0000
  H   H31       1.0  0.3756371282975907  0.6000694802511859  0.6848549186832642  1.0000
  H   H32       1.0  0.12390022141623548  0.3155458490579548  0.3996396818230323  1.0000
  H   H33       1.0  0.5610784026364115  0.3392290680899919  0.2562219481703282  1.0000
  H   H34       1.0  0.9390480216428404  0.7440713826565286  0.660473119799633  1.0000
  H   H35       1.0  0.4389240675852549  0.6607695861806775  0.7437789828183412  1.0000
  H   H36       1.0  0.0609452390950977  0.2559327142449064  0.33952835313296964  1.0000
  H   H37       1.0  0.7377536783332275  0.2738576299233273  0.3281698161914973  1.0000
  H   H38       1.0  0.7625335434808918  0.671700721320903  0.7261392973950648  1.0000
  H   H39       1.0  0.2622476934089235  0.7261402468286633  0.6718316517187404  1.0000
  H   H40       1.0  0.2374569160041844  0.3283041530992108  0.2738621708139917  1.0000
  H   H41       1.0  0.565394403916251  0.46459307018617585  0.8665689034363808  1.0000
  H   H42       1.0  0.9346358301413318  0.133503845170587  0.5352928981643501  1.0000
  H   H43       1.0  0.43460596066950785  0.5354086941592158  0.1334314315972165  1.0000
  H   H44       1.0  0.0653572291653362  0.8665010292495268  0.4647075505115268  1.0000
  H   H45       1.0  0.7418636941672929  0.4927322487806762  0.7614153325538027  1.0000
  H   H46       1.0  0.7585764558774244  0.23888172956425544  0.5072446207605665  1.0000
  H   H47       1.0  0.25813626755589775  0.50727107060208  0.23858428343533686  1.0000
  H   H48       1.0  0.24141570638100526  0.7611215898185009  0.4927553948900892  1.0000
  H   H49       1.0  0.7367281263992638  0.362322927961614  0.859894844744673  1.0000
  H   H50       1.0  0.7632862323580838  0.1402597049923031  0.6374336075251037  1.0000
  H   H51       1.0  0.2632731352347264  0.6376803914211422  0.1401059233141453  1.0000
  H   H52       1.0  0.23671052524968428  0.8597459469464965  0.3625686083685478  1.0000
  C   C1        1.0  0.7500310296314227  0.5219498457861178  0.4779274362507451  1.0000
  C   C2        1.0  0.24998085150524932  0.4780425883350929  0.5220646707676551  1.0000
  C   C3        1.0  0.6927515142522864  0.6165077802109806  0.4809810134627241  1.0000
  C   C4        1.0  0.807378235628498  0.518591742601636  0.3836568672565335  1.0000
  C   C5        1.0  0.3072580786022385  0.3834784337607857  0.5190218140110687  1.0000
  C   C6        1.0  0.19263642797599803  0.4814100217437556  0.616330880632283  1.0000
  C   C7        1.0  0.6926797294466951  0.7088832196974693  0.38811238290842454  1.0000
  C   C8        1.0  0.8076571669193768  0.6114298057034873  0.29125460506200807  1.0000
  C   C9        1.0  0.3073225581287389  0.2911061043490193  0.6118945466146711  1.0000
  C   C10       1.0  0.1923479944469975  0.3885735136792619  0.7087389834537419  1.0000
  C   C11       1.0  0.7502209480926467  0.7079323143502521  0.29190521825694304  1.0000
  C   C12       1.0  0.24977811658231272  0.2920694499951395  0.7080952941759904  1.0000
  C   C13       1.0  0.7502129296013321  0.8061881276233223  0.1936885949792213  1.0000
  C   C14       1.0  0.24978373668331946  0.1938128592033905  0.8063126317746168  1.0000
  C   C15       1.0  0.6298139707008161  0.8954060637450993  0.1860000907385881  1.0000
  C   C16       1.0  0.8706146646737524  0.8138295812230255  0.10456733580941353  1.0000
  C   C17       1.0  0.3701861924536587  0.104596478118971  0.8139998847727768  1.0000
  C   C18       1.0  0.12938240447345353  0.1861698505663227  0.8954339452543748  1.0000
  C   C19       1.0  0.6338939735419301  0.9869892116953523  0.0913592129954211  1.0000
  C   C20       1.0  0.8664447373529782  0.9085313566039233  0.013029101097217236  1.0000
  C   C21       1.0  0.3661063910438216  0.0130125526500393  0.9086404573036687  1.0000
  C   C22       1.0  0.13355473018454234  0.0914688527041037  0.9869714656456736  1.0000
  C   C23       1.0  0.5101851462652007  0.0838491696274772  0.0772937002561633  1.0000
  C   C24       1.0  0.9900322895104666  0.9225562385770019  0.9162235431226762  1.0000
  C   C25       1.0  0.4898180195734201  0.9161518171992284  0.9227053100319792  1.0000
  C   C26       1.0  0.009972981964068603  0.0774416381749816  0.08377739258955332  1.0000
  C   C27       1.0  0.3850852569754934  0.09217483966671132  0.15854009945199013  1.0000
  C   C28       1.0  0.11524954256570645  0.8413008712702991  0.9078687078263455  1.0000
  C   C29       1.0  0.6149190073426495  0.9078269246786803  0.8414610328526066  1.0000
  C   C30       1.0  0.8847527262246829  0.15869856051904924  0.09213319310910603  1.0000
  C   C31       1.0  0.272326830320992  0.1851824018410895  0.13931827063601795  1.0000
  C   C32       1.0  0.22767742489028825  0.86056389659921  0.814844008838257  1.0000
  C   C33       1.0  0.7276768297033129  0.8148216950603456  0.860680453632888  1.0000
  C   C34       1.0  0.7723289450637624  0.1394347576714523  0.18515638995240377  1.0000
  C   C35       1.0  0.3996534318458629  0.2618853972688484  0.9663508189550144  1.0000
  C   C36       1.0  0.0998759815472994  0.0336082449986819  0.7381947124492142  1.0000
  C   C37       1.0  0.6003495325614807  0.7381163670765432  0.03364716707639566  1.0000
  C   C38       1.0  0.900126488674367  0.9663904092719876  0.26180555380494763  1.0000
  C   C39       1.0  0.5167490047366242  0.1719210432130396  0.9795128160824618  1.0000
  C   C40       1.0  0.9831061012893089  0.020409865383811596  0.8281813202671201  1.0000
  C   C41       1.0  0.4832534654850491  0.8280776110576299  0.020488114906207524  1.0000
  C   C42       1.0  0.01689486759028111  0.9795895664055294  0.17182075806766756  1.0000
  C   C43       1.0  0.7971925822935049  0.4046098364808302  0.17722529573872237  1.0000
  C   C44       1.0  0.7028897825578255  0.8225953268358666  0.5953429757938907  1.0000
  C   C45       1.0  0.2028098879281615  0.5953888177898321  0.8227769647189616  1.0000
  C   C46       1.0  0.29709868139949686  0.1774072150282038  0.404661255249529  1.0000
  C   C47       1.0  0.6745201256607842  0.3506850283400881  0.2764000573640928  1.0000
  C   C48       1.0  0.8257150234227238  0.7235052360177718  0.649305734525008  1.0000
  C   C49       1.0  0.32548234456088215  0.6493136259305743  0.7236015383590838  1.0000
  C   C50       1.0  0.17427843874649804  0.2764980833649773  0.3506960979298198  1.0000
  C   C51       1.0  0.812205710967433  0.4628475407466794  0.9027301549995741  1.0000
  C   C52       1.0  0.6875542614789438  0.0973608892709095  0.5372105145982999  1.0000
  C   C53       1.0  0.1877905524546577  0.5371550011173909  0.09727101744431371  1.0000
  C   C54       1.0  0.3124320055193479  0.9026400975558033  0.4627994434297875  1.0000
  C   C55       1.0  0.7068376305885024  0.4434842155078798  0.8452461478579778  1.0000
  C   C56       1.0  0.7932392395689617  0.1549143770972208  0.5564139268354112  1.0000
  C   C57       1.0  0.2931623311346954  0.5565191038748765  0.15475413286566914  1.0000
  C   C58       1.0  0.206754021168976  0.8450897198042142  0.44358754609719847  1.0000
  Br  Br1       1.0  0.7500285762944117  0.3953247083888911  0.6045708039399286  1.0000
  Br  Br2       1.0  0.24996794491408278  0.6046467327279288  0.3954039355152971  1.0000
  N   N1        1.0  0.2783377846316597  0.2686498097960595  0.04485263581315729  1.0000
  N   N2        1.0  0.22126098555304446  0.9550860651647356  0.7313515208747318  1.0000
  N   N3        1.0  0.7216638798648846  0.7313519545493392  0.9551468570866035  1.0000
  N   N4        1.0  0.7787384819844689  0.0449141441432914  0.2686510400716671  1.0000
  N   N5        1.0  0.7501536128381333  0.9929520024621539  0.007018960339614633  1.0000
  N   N6        1.0  0.24984565326810332  0.0070489843645589  0.9929805821465364  1.0000
  O   O1        1.0  0.9300764314480219  0.3484558822808381  0.15238407602554824  1.0000
  O   O2        1.0  0.5698809495496846  0.8474852548612616  0.6513722855677173  1.0000
  O   O3        1.0  0.0699258373423675  0.65154354950851  0.847618489644411  1.0000
  O   O4        1.0  0.4301131169133683  0.152515731965444  0.34862397810875473  1.0000
  O   O5        1.0  0.7569109180104759  0.5027093684989623  0.12416756183222331  1.0000
  O   O6        1.0  0.7431379452146772  0.8755249110645594  0.4973348093853075  1.0000
  O   O7        1.0  0.24309155221119033  0.49728928577170006  0.875833369156446  1.0000
  O   O8        1.0  0.25686161364595966  0.1244799633555544  0.502662093355859  1.0000
  O   O9        1.0  0.9443702236060574  0.3944725479141979  0.9382719390984915  1.0000
  O   O10       1.0  0.5552683558074065  0.0617878545646064  0.6055780668028419  1.0000
  O   O11       1.0  0.05562113292725002  0.6055338815432805  0.06173195633928689  1.0000
  O   O12       1.0  0.44473001325059175  0.9382115772247417  0.3944283547376486  1.0000
  O   O13       1.0  0.7639655520789077  0.5466034081324054  0.9102452881454114  1.0000
  O   O14       1.0  0.7356796388393292  0.0898391735481212  0.45357500222315383  1.0000
  O   O15       1.0  0.23602950275550677  0.4534037988437518  0.08975372716509607  1.0000
  O   O16       1.0  0.2643067194820787  0.9101664783906713  0.5464246444581633  1.0000
