data_image0
_chemical_formula_structural       Cu2H44C48N8Cl4
_chemical_formula_sum              "Cu2 H44 C48 N8 Cl4"
_cell_length_a       5.402239806021472
_cell_length_b       11.287578460082495
_cell_length_c       17.081055248504768
_cell_angle_alpha    89.99930891929432
_cell_angle_beta     90.00040029138559
_cell_angle_gamma    101.52720204699901

_space_group_name_H-M_alt    "P 1"
_space_group_IT_number       1

loop_
  _space_group_symop_operation_xyz
  'x, y, z'

loop_
  _atom_site_type_symbol
  _atom_site_label
  _atom_site_symmetry_multiplicity
  _atom_site_fract_x
  _atom_site_fract_y
  _atom_site_fract_z
  _atom_site_occupancy
  Cu  Cu1       1.0  0.9999962404360544  0.9999996342193853  0.5000012668411601  1.0000
  Cu  Cu2       1.0  0.500005473435472  0.5000005898625446  8.565934522000003e-07  1.0000
  H   H1        1.0  0.4287404489241666  0.026369479512197792  0.3633067563943941  1.0000
  H   H2        1.0  0.07127182004717975  0.4736220877520195  0.8633033287520039  1.0000
  H   H3        1.0  0.5712640355473224  0.9736220599279618  0.6366981622456083  1.0000
  H   H4        1.0  0.9287306148656924  0.5263812671900753  0.13670451706422435  1.0000
  H   H5        1.0  0.5686852342594761  0.01814466148919539  0.22541960405664707  1.0000
  H   H6        1.0  0.9313178982263749  0.4818474201965087  0.7254147926013987  1.0000
  H   H7        1.0  0.43131904514702774  0.9818505098598039  0.7745847291263532  1.0000
  H   H8        1.0  0.06867593048383462  0.5181532858119196  0.2745930532191211  1.0000
  H   H9        1.0  0.30216452110185776  0.8904403044789785  0.12684513765687913  1.0000
  H   H10       1.0  0.1978292529263328  0.6095552078344255  0.6268403623778627  1.0000
  H   H11       1.0  0.6978397582973911  0.10955486687522858  0.8731586100821933  1.0000
  H   H12       1.0  0.8021619119764762  0.3904437059201413  0.37316572711569057  1.0000
  H   H13       1.0  0.890942344066161  0.7601439299402908  0.16403686598007286  1.0000
  H   H14       1.0  0.6090396643631734  0.7398581174677972  0.6640310542292058  1.0000
  H   H15       1.0  0.10906275489455909  0.23985304948203634  0.835965710865189  1.0000
  H   H16       1.0  0.39094801681427066  0.26014536382173503  0.335972108026347  1.0000
  H   H17       1.0  0.5239033679959562  0.6771367213545006  0.22745749722606234  1.0000
  H   H18       1.0  0.9760998834213765  0.8228667520931409  0.7274544597639052  1.0000
  H   H19       1.0  0.4760974276416689  0.3228630175607066  0.7725403960553836  1.0000
  H   H20       1.0  0.023901527054711394  0.177130258952495  0.2725428480837239  1.0000
  H   H21       1.0  0.329625903456609  0.7037292694009878  0.3068464091993662  1.0000
  H   H22       1.0  0.17036823232429293  0.7962703363540627  0.8068461226300985  1.0000
  H   H23       1.0  0.6703652613228925  0.29626964444209847  0.6931497277474962  1.0000
  H   H24       1.0  0.8296376861616253  0.20372845116241933  0.19315235610173437  1.0000
  H   H25       1.0  0.5054373560729742  0.584639972047519  0.3128260783293158  1.0000
  H   H26       1.0  0.9945692400536927  0.9153646949268721  0.812823573587494  1.0000
  H   H27       1.0  0.49455913629957826  0.4153625263189084  0.6871718149397099  1.0000
  H   H28       1.0  0.005439751998601077  0.08463678889314959  0.18717431969263745  1.0000
  H   H29       1.0  0.1496176392350748  0.5663543563971771  0.4296647306341584  1.0000
  H   H30       1.0  0.3503733923489207  0.9336458398952632  0.9296625081273294  1.0000
  H   H31       1.0  0.8503725008962134  0.4336463813022462  0.5703302354177283  1.0000
  H   H32       1.0  0.6496378536720256  0.0663565321862194  0.0703330433752853  1.0000
  H   H33       1.0  0.8821971117303563  0.6506894030401965  0.5381253804644361  1.0000
  H   H34       1.0  0.6178034975323853  0.8493137905839986  0.03812378865314511  1.0000
  H   H35       1.0  0.11779261864196393  0.34931043060954886  0.4618719273661257  1.0000
  H   H36       1.0  0.38221778913466403  0.15069031059846344  0.9618735191810831  1.0000
  H   H37       1.0  0.3561646379717799  0.7722204970840136  0.4418993120988263  1.0000
  H   H38       1.0  0.14382423770955885  0.727782225244766  0.9418965554303687  1.0000
  H   H39       1.0  0.6438205844124667  0.22777756007926797  0.5580985811793013  1.0000
  H   H40       1.0  0.8561816807763519  0.2722165622717156  0.058101923301471514  1.0000
  H   H41       1.0  0.5904217431024036  0.8114556009934759  0.5140119530524816  1.0000
  H   H42       1.0  0.9095727360095933  0.6885480689430422  0.014008931094927804  1.0000
  H   H43       1.0  0.4095593810890179  0.1885415837069786  0.48598711111414894  1.0000
  H   H44       1.0  0.09043687057544497  0.3114588548279045  0.9859901330539959  1.0000
  C   C1        1.0  0.7355647360752825  0.8006885230222949  0.40074155899218783  1.0000
  C   C2        1.0  0.7644327681849106  0.6993183067243435  0.9007391499740298  1.0000
  C   C3        1.0  0.2644247892683182  0.1993149425102558  0.5992580906009836  1.0000
  C   C4        1.0  0.2355780681133197  0.3006831612814267  0.09926167052687873  1.0000
  C   C5        1.0  0.9300527420232426  0.8217882856116745  0.28502158336704053  1.0000
  C   C6        1.0  0.5699384114761371  0.6782170022504203  0.7850202629191972  1.0000
  C   C7        1.0  0.0699353489204242  0.1782160997223272  0.7149798225537582  1.0000
  C   C8        1.0  0.4300693512267059  0.32178176947262926  0.21497880125772897  1.0000
  C   C9        1.0  0.07641273961333178  0.8979070512699325  0.3411303315412512  1.0000
  C   C10       1.0  0.42358142572284396  0.6020983044558432  0.8411252944674745  1.0000
  C   C11       1.0  0.9235694089133231  0.1020964773998827  0.6588710743790502  1.0000
  C   C12       1.0  0.576429615633124  0.39789953164629566  0.15887552604652205  1.0000
  C   C13       1.0  0.30947931263085593  0.9696765657840418  0.3206426048533332  1.0000
  C   C14       1.0  0.19052397625241466  0.5303218116002243  0.8206413136513576  1.0000
  C   C15       1.0  0.6905251714623828  0.030323141528683106  0.679358215650055  1.0000
  C   C16       1.0  0.8094882945182817  0.46967873655201947  0.1793636049611537  1.0000
  C   C17       1.0  0.38673145028202044  0.9645172335109107  0.24304032115372118  1.0000
  C   C18       1.0  0.1132654076332641  0.5354807478517783  0.7430330461555458  1.0000
  C   C19       1.0  0.6132644276158175  0.0354798248629464  0.7569610847978938  1.0000
  C   C20       1.0  0.8867349782889065  0.46451808698250824  0.2569707015681218  1.0000
  C   C21       1.0  0.2364962264320097  0.891327765131244  0.18708434766087126  1.0000
  C   C22       1.0  0.2634967859691882  0.6086739552025618  0.6870825845649338  1.0000
  C   C23       1.0  0.763511331242114  0.10867463847461069  0.8129170582786573  1.0000
  C   C24       1.0  0.7365040097409618  0.39132578366057647  0.3129211631557497  1.0000
  C   C25       1.0  0.00554009862916155  0.8180100804995689  0.20702820373355735  1.0000
  C   C26       1.0  0.4944413180058333  0.6819932036876537  0.7070215103166223  1.0000
  C   C27       1.0  0.9944570086108654  0.18198968997646153  0.7929714458773421  1.0000
  C   C28       1.0  0.5055471830460476  0.31800391784429377  0.292979310186425  1.0000
  C   C29       1.0  0.5069874679025616  0.6763053743078657  0.29132064044603123  1.0000
  C   C30       1.0  0.9930095793606455  0.8236961222416497  0.7913187882007409  1.0000
  C   C31       1.0  0.4930077951060382  0.3236944119720064  0.7086772528319403  1.0000
  C   C32       1.0  0.006992240917938382  0.17630179282242148  0.20867969053175983  1.0000
  C   C33       1.0  0.5194510086557144  0.6233338823089553  0.481040380233708  1.0000
  C   C34       1.0  0.9805409037387985  0.8766670462939742  0.9810369640383815  1.0000
  C   C35       1.0  0.48054056592627586  0.37666593555256606  0.5189569275980122  1.0000
  C   C36       1.0  0.01947157163884579  0.1233380378792717  0.018958002011366708  1.0000
  C   C37       1.0  0.3046382637536879  0.5375757788525135  0.46044932400887734  1.0000
  C   C38       1.0  0.19535680927941704  0.962422934224591  0.960447881295217  1.0000
  C   C39       1.0  0.6953524912305723  0.4624222309669292  0.5395462274970415  1.0000
  C   C40       1.0  0.8046540269390335  0.0375785338384489  0.039546499322533214  1.0000
  C   C41       1.0  0.7152597099425078  0.5842476361421162  0.5208455547962674  1.0000
  C   C42       1.0  0.7847384221874804  0.9157513447279938  0.020842517761572307  1.0000
  C   C43       1.0  0.28472920085383885  0.4157503894499257  0.4791517530402632  1.0000
  C   C44       1.0  0.21527241403822467  0.08425012332983779  0.9791524483000988  1.0000
  C   C45       1.0  0.5407669554923231  0.756121174447138  0.4612911391844038  1.0000
  C   C46       1.0  0.9592261066940181  0.7438837215720397  0.9612880598949832  1.0000
  C   C47       1.0  0.45922256981501147  0.24388229111144707  0.538705583189149  1.0000
  C   C48       1.0  0.040789647373017594  0.2561204269542543  0.03871158971146121  1.0000
  N   N1        1.0  0.717911167026898  0.7614232654283553  0.32486757065154154  1.0000
  N   N2        1.0  0.7820776951565519  0.7385822492670614  0.824864317040195  1.0000
  N   N3        1.0  0.2820765140997707  0.2385802158976276  0.6751314934965438  1.0000
  N   N4        1.0  0.21792310051008454  0.2614174896273198  0.17513591801694872  1.0000
  N   N5        1.0  0.9478613892387743  0.8830159762324074  0.41217803932497094  1.0000
  N   N6        1.0  0.5521325052302328  0.6169861457414284  0.9121736219669647  1.0000
  N   N7        1.0  0.0521217839360943  0.11698572858107069  0.5878245374902991  1.0000
  N   N8        1.0  0.4478760770775948  0.3830144340185058  0.08782778397968373  1.0000
  Cl  Cl1       1.0  0.8869118857932887  0.13921396006143988  0.4171294151008383  1.0000
  Cl  Cl2       1.0  0.6130947671087055  0.36078833497737145  0.9171309411553497  1.0000
  Cl  Cl3       1.0  0.11308583631422674  0.8607830825241936  0.5828719908519348  1.0000
  Cl  Cl4       1.0  0.3869168887582433  0.6392149410913107  0.08286929389567632  1.0000
