data_image0
_chemical_formula_structural       Cd2H24C36N4O12F8
_chemical_formula_sum              "Cd2 H24 C36 N4 O12 F8"
_cell_length_a       7.609079946076754
_cell_length_b       11.690225014119456
_cell_length_c       12.603618578007143
_cell_angle_alpha    89.99988311577314
_cell_angle_beta     89.99997272992817
_cell_angle_gamma    90.00050956104636

_space_group_name_H-M_alt    "P 1"
_space_group_IT_number       1

loop_
  _space_group_symop_operation_xyz
  'x, y, z'

loop_
  _atom_site_type_symbol
  _atom_site_label
  _atom_site_symmetry_multiplicity
  _atom_site_fract_x
  _atom_site_fract_y
  _atom_site_fract_z
  _atom_site_occupancy
  Cd  Cd1       1.0  0.5000029707375192  0.3035043377997866  0.9999997599963353  1.0000
  Cd  Cd2       1.0  5.729188288e-07  0.6964950168414745  0.5000009949853563  1.0000
  H   H1        1.0  0.3952377513762855  0.3504751357491642  0.7877479889109085  1.0000
  H   H2        1.0  0.6047639718268202  0.35047553519638097  0.2122513308197469  1.0000
  H   H3        1.0  0.895237182088117  0.6495256713517678  0.7122526548707527  1.0000
  H   H4        1.0  0.10476202045782657  0.649525548687322  0.2877476950153977  1.0000
  H   H5        1.0  0.2124664439586041  0.3251319945320503  0.8478537923883493  1.0000
  H   H6        1.0  0.7875401928550688  0.3251310293267409  0.1521487482115944  1.0000
  H   H7        1.0  0.7124649520858667  0.6748694561503541  0.652148489661002  1.0000
  H   H8        1.0  0.2875359079506978  0.6748702664066639  0.3478518130458568  1.0000
  H   H9        1.0  0.6294813170256218  0.5101056908262578  0.8556449747459001  1.0000
  H   H10       1.0  0.3705173113565152  0.5101005971413032  0.14434849387289012  1.0000
  H   H11       1.0  0.12947863320810168  0.4898969861173725  0.6443541569584355  1.0000
  H   H12       1.0  0.870522349924002  0.48989605065460035  0.35564728350455965  1.0000
  H   H13       1.0  0.627671775405311  0.724065649150731  0.8465696043633316  1.0000
  H   H14       1.0  0.3723192371673747  0.7240605457204056  0.1534290199244168  1.0000
  H   H15       1.0  0.12767012898780908  0.2759361618122824  0.6534311146966373  1.0000
  H   H16       1.0  0.8723292704110008  0.2759361126092941  0.3465691372141465  1.0000
  H   H17       1.0  0.5929343805254773  0.8848989745233666  0.1615590439662924  1.0000
  H   H18       1.0  0.40705486783695477  0.8849036633092667  0.8384408677625785  1.0000
  H   H19       1.0  0.092939606331818  0.1150986186433869  0.33843998519932234  1.0000
  H   H20       1.0  0.9070602430694875  0.1150989236439202  0.6615589792689393  1.0000
  H   H21       1.0  0.590533242612949  0.0995069070719481  0.15472840387863582  1.0000
  H   H22       1.0  0.40946639563595977  0.09951159463624042  0.8452769369934502  1.0000
  H   H23       1.0  0.0905320156894476  0.900490672050715  0.34527459307810915  1.0000
  H   H24       1.0  0.9094705860155583  0.9004910063905314  0.6547268764743991  1.0000
  C   C1        1.0  0.9524919803421311  0.9808622202183487  0.9528030962233915  1.0000
  C   C2        1.0  0.047507767262203494  0.9808588792115245  0.0471926697584664  1.0000
  C   C3        1.0  0.4524961408091102  0.019138065804583  0.5471951511809436  1.0000
  C   C4        1.0  0.547508979972349  0.019139304104896802  0.4528039919190406  1.0000
  C   C5        1.0  0.9042540840515728  0.08533189058347551  0.9079382500279538  1.0000
  C   C6        1.0  0.09574273371772078  0.08532873096538651  0.09205838958678922  1.0000
  C   C7        1.0  0.40425456715318836  0.9146689691717075  0.5920600109479892  1.0000
  C   C8        1.0  0.5957416555008733  0.914670589415316  0.407938258519188  1.0000
  C   C9        1.0  0.9504338144012222  0.19007247423108004  0.9527348047568509  1.0000
  C   C10       1.0  0.049569678909428184  0.19007256676025716  0.0472632267221655  1.0000
  C   C11       1.0  0.45043291490341625  0.8099269443416617  0.5472650300739232  1.0000
  C   C12       1.0  0.549565831731776  0.809926483995142  0.45273502122099535  1.0000
  C   C13       1.0  0.8981496838157097  0.30063398635251565  0.8961596870726326  1.0000
  C   C14       1.0  0.10185924961267999  0.30063083608364843  0.1038421057098446  1.0000
  C   C15       1.0  0.3981446128826107  0.6993685485671367  0.6038433361575812  1.0000
  C   C16       1.0  0.6018526363137866  0.6993685199922554  0.3961585077906663  1.0000
  C   C17       1.0  0.569967217067443  0.5614782820303574  0.9182594927894813  1.0000
  C   C18       1.0  0.43002685026937826  0.5614770974494832  0.08174022757820151  1.0000
  C   C19       1.0  0.0699678304733951  0.438521481157558  0.5817412425071211  1.0000
  C   C20       1.0  0.9300324568186511  0.43852160866504875  0.418259500169036  1.0000
  C   C21       1.0  0.56997196538984  0.6802168049168387  0.9144160415909042  1.0000
  C   C22       1.0  0.4300302812646421  0.6802130455035355  0.0855763169364536  1.0000
  C   C23       1.0  0.0699683390470014  0.3197855245365631  0.585581520010841  1.0000
  C   C24       1.0  0.9300329684833101  0.31978566062782937  0.4144186502726441  1.0000
  C   C25       1.0  0.4999984550628581  0.7416544211127911  8.262035749e-07  1.0000
  C   C26       1.0  2.3413803519999972e-07  0.258346051030145  0.4999990225300906  1.0000
  C   C27       1.0  0.4999975914913647  0.8676200833842883  0.9999992349382155  1.0000
  C   C28       1.0  0.9999980739543088  0.1323804800226895  0.5000005859466441  1.0000
  C   C29       1.0  0.550277777050482  0.9290606116842781  0.0902707518881485  1.0000
  C   C30       1.0  0.4497160120978449  0.9290636793986309  0.9097330447480871  1.0000
  C   C31       1.0  0.050278404692832596  0.07093844321627783  0.40972987612395434  1.0000
  C   C32       1.0  0.9497208465905799  0.0709391566588877  0.5902691705494476  1.0000
  C   C33       1.0  0.549991881599084  0.0477995619951912  0.08699314862174393  1.0000
  C   C34       1.0  0.45000574206608224  0.047800913232599405  0.9130114950855132  1.0000
  C   C35       1.0  0.0499926147262926  0.9521986358189594  0.4130090663174357  1.0000
  C   C36       1.0  0.9500067446683713  0.9521985028425276  0.586991513557166  1.0000
  N   N1        1.0  0.5000030080030697  0.5030685033545056  0.9999948137115098  1.0000
  N   N2        1.0  5.356551895e-07  0.49693085129207054  0.500001180732589  1.0000
  N   N3        1.0  0.4999994086108401  0.10621156256219423  3.0044969179e-06  1.0000
  N   N4        1.0  1.9090271266000002e-06  0.8937889095839894  0.5000008113510291  1.0000
  O   O1        1.0  0.7355256952181006  0.32076145076560897  0.8855603542733874  1.0000
  O   O2        1.0  0.2644821966044404  0.3207583709875905  0.11444219446424601  1.0000
  O   O3        1.0  0.2355216573539423  0.6792401345569203  0.6144427147114585  1.0000
  O   O4        1.0  0.7644766334357699  0.6792402238517142  0.3855607535520136  1.0000
  O   O5        1.0  0.020221376275927096  0.3629878328567744  0.8608952769228467  1.0000
  O   O6        1.0  0.9797884016868393  0.36298374229313174  0.13910957347862762  1.0000
  O   O7        1.0  0.5202167537427371  0.6370159169112739  0.6391094394813238  1.0000
  O   O8        1.0  0.4797835935769755  0.6370143989450058  0.3608901402702998  1.0000
  O   O9        1.0  0.33953681804232605  0.2980191267484429  0.8373060352968479  1.0000
  O   O10       1.0  0.660466823114632  0.2980191068011849  0.16269258865937528  1.0000
  O   O11       1.0  0.8395356849063588  0.7019822105153821  0.6626946241557335  1.0000
  O   O12       1.0  0.1604642281301878  0.7019823023428343  0.3373064215036835  1.0000
  F   F1        1.0  0.8084974441191336  0.08130013950746219  0.8167723855727475  1.0000
  F   F2        1.0  0.1915006332412972  0.081293913618282  0.1832242615498885  1.0000
  F   F3        1.0  0.30850185112661416  0.9187027273590758  0.6832266957646169  1.0000
  F   F4        1.0  0.6914996830323474  0.9187033996684729  0.3167731530395983  1.0000
  F   F5        1.0  0.9075936469923535  0.8809171016234458  0.9063395552716429  1.0000
  F   F6        1.0  0.09239949005674218  0.8809156297545827  0.0936548099142627  1.0000
  F   F7        1.0  0.4075978095348134  0.119082922229218  0.5936571179191148  1.0000
  F   F8        1.0  0.592403408048149  0.11908281570407549  0.40634104570950313  1.0000
