data_image0
_chemical_formula_structural       U8P8H32C24O48
_chemical_formula_sum              "U8 P8 H32 C24 O48"
_cell_length_a       6.921563709999922
_cell_length_b       15.349298430976008
_cell_length_c       15.350248647568035
_cell_angle_alpha    87.09355929360748
_cell_angle_beta     76.9818213059635
_cell_angle_gamma    76.97472339109285

_space_group_name_H-M_alt    "P 1"
_space_group_IT_number       1

loop_
  _space_group_symop_operation_xyz
  'x, y, z'

loop_
  _atom_site_type_symbol
  _atom_site_label
  _atom_site_symmetry_multiplicity
  _atom_site_fract_x
  _atom_site_fract_y
  _atom_site_fract_z
  _atom_site_occupancy
  U   U1        1.0  0.7296459385904582  0.9394947545114646  0.46181058682177667  1.0000
  U   U2        1.0  0.1309727862849712  0.060461385882455  0.5381714973102731  1.0000
  U   U3        1.0  0.33089919584127586  0.5382157368904075  0.9395587814893955  1.0000
  U   U4        1.0  0.8085091928609173  0.4618116387124402  0.06045282592801019  1.0000
  U   U5        1.0  0.41147798204882974  0.8001894292758321  0.19918634890066034  1.0000
  U   U6        1.0  0.4109811892500729  0.1998073116536858  0.8008247432751145  1.0000
  U   U7        1.0  0.7882738878642997  0.80087440555058  0.8002875850596778  1.0000
  U   U8        1.0  0.3890739268264696  0.1991226906547111  0.19971707042084563  1.0000
  P   P1        1.0  0.8896545976246418  0.7723449246924048  0.2910586117798671  1.0000
  P   P2        1.0  0.9530309720505483  0.2276092776965299  0.7089404882268225  1.0000
  P   P3        1.0  0.33806091014906786  0.7090235450266532  0.772446991086582  1.0000
  P   P4        1.0  0.8191391279264837  0.2909711659561438  0.22754202858960323  1.0000
  P   P5        1.0  0.2841334034655817  0.44196773714196513  0.13281694312539827  1.0000
  P   P6        1.0  0.859040075593058  0.5580250065858152  0.8672215814633616  1.0000
  P   P7        1.0  0.2738263117321294  0.8670984282020342  0.44203147629074374  1.0000
  P   P8        1.0  0.5830707783482227  0.13283904215979447  0.5579584597450448  1.0000
  H   H1        1.0  0.09835293457703648  0.6352427472880463  0.15771136265659885  1.0000
  H   H2        1.0  0.8910197048180707  0.364715427837936  0.8423508551303269  1.0000
  H   H3        1.0  0.2659667134136042  0.8422730952721834  0.6353714658837575  1.0000
  H   H4        1.0  0.7440011787454068  0.1576819241335342  0.3646709692000768  1.0000
  H   H5        1.0  0.8753942546452009  0.6466800873966747  0.4436113127711323  1.0000
  H   H6        1.0  0.9661352264711169  0.35325383325892545  0.5563910762772011  1.0000
  H   H7        1.0  0.4787714006292204  0.5564148625621284  0.6468057973250365  1.0000
  H   H8        1.0  0.6802294574562282  0.4436517160711729  0.3530656257308563  1.0000
  H   H9        1.0  0.40624252160116464  0.813335649865941  0.9973342332760919  1.0000
  H   H10       1.0  0.21685102606432588  0.1868287330550942  0.0026590203614987  1.0000
  H   H11       1.0  0.7803483804997453  0.002760104495344238  0.8132408287691816  1.0000
  H   H12       1.0  0.5960274470081687  0.9971699627373667  0.1867508972700875  1.0000
  H   H13       1.0  0.2616464168805238  0.7468253197717374  0.03273939691941759  1.0000
  H   H14       1.0  0.04110355946110645  0.25326360516724117  0.9671930040675887  1.0000
  H   H15       1.0  0.9915405131310207  0.9672626712053257  0.7468580001989905  1.0000
  H   H16       1.0  0.7054716747516847  0.03264617828686768  0.2531290582351672  1.0000
  H   H17       1.0  0.7275916626003178  0.774322936849657  0.0178633639402719  1.0000
  H   H18       1.0  0.5196780941642912  0.22577672094894297  0.9821980008038337  1.0000
  H   H19       1.0  0.4980745093299462  0.9822297667836606  0.7742296642037444  1.0000
  H   H20       1.0  0.2541073105700633  0.017859407186008983  0.22576884466129596  1.0000
  H   H21       1.0  0.7612686602411504  0.6857685029793784  0.07906663429118768  1.0000
  H   H22       1.0  0.5260790666723664  0.31430886249520273  0.9209724980978035  1.0000
  H   H23       1.0  0.5530318806973185  0.9209423826114215  0.6857174558020842  1.0000
  H   H24       1.0  0.15945020217208847  0.07913897673188329  0.3142805667993898  1.0000
  H   H25       1.0  0.998504314637465  0.4794181431014692  0.4494950359796731  1.0000
  H   H26       1.0  0.9279247330186634  0.5205300830620557  0.550534655668578  1.0000
  H   H27       1.0  0.5236420104089136  0.5505484880645993  0.4795032218215736  1.0000
  H   H28       1.0  0.5510304646989255  0.44958539619852905  0.5203402608165815  1.0000
  H   H29       1.0  0.17624096123748256  0.3938476351409149  0.3152847025095724  1.0000
  H   H30       1.0  0.8852640587573859  0.6061141349345148  0.6847975444088517  1.0000
  H   H31       1.0  0.4308904175291771  0.6846762049832407  0.39394403297389846  1.0000
  H   H32       1.0  0.5085433570958457  0.3153570747875847  0.6059928630863068  1.0000
  C   C1        1.0  0.9760540315160283  0.6520394940933869  0.2999756528898628  1.0000
  C   C2        1.0  0.9279711355567242  0.34791912907397193  0.7000543478016183  1.0000
  C   C3        1.0  0.37211686295297847  0.7000495363311429  0.6521676136458224  1.0000
  C   C4        1.0  0.7237754809623524  0.29996274651865906  0.3478072244409488  1.0000
  C   C5        1.0  0.0753638361871368  0.6019385329257573  0.2223520393070544  1.0000
  C   C6        1.0  0.8994609456489256  0.39802171625832017  0.7776994806815549  1.0000
  C   C7        1.0  0.32259471347190793  0.7776411052591926  0.602064684827468  1.0000
  C   C8        1.0  0.7022487698161086  0.22233358143349588  0.3979450017219078  1.0000
  C   C9        1.0  0.9497436053422775  0.6080074538764036  0.38283376048230616  1.0000
  C   C10       1.0  0.9407963007122857  0.3919469297684445  0.6171822475743767  1.0000
  C   C11       1.0  0.44290589908396755  0.6171871235793914  0.608136556044478  1.0000
  C   C12       1.0  0.6668711110264381  0.3828607104904406  0.391782754609558  1.0000
  C   C13       1.0  0.14851569811567353  0.509204523955617  0.22784584347960649  1.0000
  C   C14       1.0  0.8854452794155494  0.4907600664464482  0.7722144103692299  1.0000
  C   C15       1.0  0.3423849760610194  0.7721357052918164  0.5093107224083935  1.0000
  C   C16       1.0  0.6236523058428818  0.2278575483773224  0.4906755363062628  1.0000
  C   C17       1.0  0.019557978853185866  0.5154951239987895  0.3868552585530977  1.0000
  C   C18       1.0  0.9221987273179124  0.4844533662550817  0.6131713392401607  1.0000
  C   C19       1.0  0.4659175950883635  0.6131530785113171  0.5156115048241218  1.0000
  C   C20       1.0  0.5929797274624493  0.3869299297074135  0.484290092186903  1.0000
  C   C21       1.0  0.11986932362257362  0.46577688197850614  0.3105273528534909  1.0000
  C   C22       1.0  0.8961979968137181  0.5341763584372359  0.6895213801342805  1.0000
  C   C23       1.0  0.41500185140890994  0.6894544892357644  0.4658949220812828  1.0000
  C   C24       1.0  0.5694317133350423  0.3105799092238327  0.5340554077145825  1.0000
  O   O1        1.0  0.8358931872154611  0.8102331078088055  0.38875220079602707  1.0000
  O   O2        1.0  0.034450987378306805  0.18976055586693255  0.6112209708990903  1.0000
  O   O3        1.0  0.3540907881801019  0.6113298303782386  0.8103422772679919  1.0000
  O   O4        1.0  0.7753461456086941  0.38866157241515253  0.18963610607698195  1.0000
  O   O5        1.0  0.794481930671921  0.9979969894436137  0.3563952957630575  1.0000
  O   O6        1.0  0.1486732022869717  0.0020215641458065986  0.6436487552498207  1.0000
  O   O7        1.0  0.20777098621627477  0.6436435307877629  0.9981012094423957  1.0000
  O   O8        1.0  0.8489403489503147  0.3564088182586217  0.0018818614275701996  1.0000
  O   O9        1.0  0.6519242469323528  0.8897758963111213  0.5701524873185732  1.0000
  O   O10       1.0  0.11188842243269903  0.11017715396428676  0.42982448235294146  1.0000
  O   O11       1.0  0.4583175802365815  0.42989440578161714  0.8897617331303562  1.0000
  O   O12       1.0  0.7779276301925647  0.570113930149212  0.11027638588873148  1.0000
  O   O13       1.0  0.786844048555622  0.06260410209943496  0.5540756206246795  1.0000
  O   O14       1.0  0.40354576232010675  0.9373489542380468  0.4458019180881862  1.0000
  O   O15       1.0  0.15059936212960423  0.4458586595751086  0.06256943371861469  1.0000
  O   O16       1.0  0.6591355006570155  0.5542047245169782  0.9374457584690173  1.0000
  O   O17       1.0  0.4656265611738207  0.07908211600736338  0.5125891077993997  1.0000
  O   O18       1.0  0.057342640023101424  0.9208348108327796  0.4874797725177372  1.0000
  O   O19       1.0  0.4552608617297053  0.48738310618264785  0.0791115907947741  1.0000
  O   O20       1.0  0.0218529525309278  0.5125551560464601  0.9209190775073706  1.0000
  O   O21       1.0  0.06190603654649586  0.808533262977612  0.22996235455631353  1.0000
  O   O22       1.0  0.10077672530498928  0.1914238858376933  0.7698833680101556  1.0000
  O   O23       1.0  0.12956303943145298  0.7700964716222529  0.8085803591091645  1.0000
  O   O24       1.0  0.7079341895711125  0.22987621777267003  0.19135051498105324  1.0000
  O   O25       1.0  0.6949124785470603  0.7934309685670513  0.2552951721736178  1.0000
  O   O26       1.0  0.7437984149125401  0.20643083793611078  0.7448906481162607  1.0000
  O   O27       1.0  0.5115731421713293  0.7448455221530921  0.7936018759961099  1.0000
  O   O28       1.0  0.04959254016569768  0.2551868307582055  0.20646675896995245  1.0000
  O   O29       1.0  0.2863960206217512  0.838156635502493  0.3485082426493236  1.0000
  O   O30       1.0  0.47345856990873614  0.16175050250478756  0.6515086619961321  1.0000
  O   O31       1.0  0.8754087232710077  0.65156473292334  0.838364428360208  1.0000
  O   O32       1.0  0.36491068678193256  0.3483922401170148  0.16165582115917224  1.0000
  O   O33       1.0  0.31457136749413905  0.7961056697368107  0.05076086454756279  1.0000
  O   O34       1.0  0.16141382806683435  0.20403552658964938  0.9492008918597034  1.0000
  O   O35       1.0  0.8892867956212739  0.9493122083747919  0.7961335423066201  1.0000
  O   O36       1.0  0.6343320283722844  0.05063233306574225  0.20391375825418118  1.0000
  O   O37       1.0  0.4317675878052468  0.6826823804667155  0.22290454587836445  1.0000
  O   O38       1.0  0.33770119575159196  0.3172835627216628  0.776998463501144  1.0000
  O   O39       1.0  0.8853617796259814  0.7770278032332101  0.6828146040039795  1.0000
  O   O40       1.0  0.3450447530739496  0.22301212817414043  0.31718179202477603  1.0000
  O   O41       1.0  0.718308567217633  0.751581991958993  0.0798687575141344  1.0000
  O   O42       1.0  0.5497320818604835  0.24849434564737294  0.9201942284320024  1.0000
  O   O43       1.0  0.5302080687894417  0.920200322852338  0.7515281195288136  1.0000
  O   O44       1.0  0.20144810288267925  0.0798788116223719  0.24846342826889867  1.0000
  O   O45       1.0  0.4039205204557705  0.9191763652548132  0.17254612676173756  1.0000
  O   O46       1.0  0.495704490295985  0.08081257158274716  0.8275273503534563  1.0000
  O   O47       1.0  0.6767759780886851  0.8275673721827486  0.9192618654130552  1.0000
  O   O48       1.0  0.4230016197091403  0.17244643156580253  0.08076530631515769  1.0000
