data_image0
_chemical_formula_structural       Cd2H56C44N20O4
_chemical_formula_sum              "Cd2 H56 C44 N20 O4"
_cell_length_a       7.756496755405096
_cell_length_b       9.079558621934384
_cell_length_c       18.23165857502195
_cell_angle_alpha    90.00001833235864
_cell_angle_beta     89.99982795849655
_cell_angle_gamma    113.40675461358774

_space_group_name_H-M_alt    "P 1"
_space_group_IT_number       1

loop_
  _space_group_symop_operation_xyz
  'x, y, z'

loop_
  _atom_site_type_symbol
  _atom_site_label
  _atom_site_symmetry_multiplicity
  _atom_site_fract_x
  _atom_site_fract_y
  _atom_site_fract_z
  _atom_site_occupancy
  Cd  Cd1       1.0  0.9999970712160006  0.4999987920443373  0.5000005260647528  1.0000
  Cd  Cd2       1.0  1.172904745722689e-06  0.9999983443990386  1.496289528e-07  1.0000
  H   H1        1.0  0.22664000667739956  0.941559710723723  0.35393809795604614  1.0000
  H   H2        1.0  0.7733612341382708  0.5584389204872692  0.8539355626268943  1.0000
  H   H3        1.0  0.7733626297574574  0.0584406738533332  0.6460635999130417  1.0000
  H   H4        1.0  0.22664140230958202  0.4415614640930343  0.1460628442634899  1.0000
  H   H5        1.0  0.3714672504719091  0.0208551108229926  0.4313011688729631  1.0000
  H   H6        1.0  0.6285332367104957  0.4791464581063423  0.9312999777150567  1.0000
  H   H7        1.0  0.6285357462701171  0.9791488674109844  0.5686994320032498  1.0000
  H   H8        1.0  0.37146939973519  0.5208539264734212  0.0686989776717795  1.0000
  H   H9        1.0  0.5457822871974471  0.2744434685868455  0.3706949592272579  1.0000
  H   H10       1.0  0.4542162844919417  0.2255558128835276  0.8706961509348545  1.0000
  H   H11       1.0  0.45421905691126335  0.725556909293722  0.6293039961604093  1.0000
  H   H12       1.0  0.545786351951584  0.7744445716956888  0.1293033529484333  1.0000
  H   H13       1.0  0.3823589158091849  0.22843803309234537  0.2973852199918809  1.0000
  H   H14       1.0  0.6176378407227716  0.27155898596647887  0.7973851102239067  1.0000
  H   H15       1.0  0.6176403945011656  0.7715635315070839  0.7026148323900898  1.0000
  H   H16       1.0  0.38236276192672847  0.7284425853326865  0.2026143936607738  1.0000
  H   H17       1.0  0.6288749103737032  0.04187494848813599  0.3295324243871605  1.0000
  H   H18       1.0  0.3711221431649959  0.4581232073130507  0.8295332081553966  1.0000
  H   H19       1.0  0.37112329817893663  0.9581242158751451  0.6704670794988985  1.0000
  H   H20       1.0  0.6288779086002307  0.5418771638666939  0.1704673927224576  1.0000
  H   H21       1.0  0.47921545104935603  0.014583442668815397  0.25311983318548664  1.0000
  H   H22       1.0  0.5207834982648833  0.4854148704717929  0.7531204275698471  1.0000
  H   H23       1.0  0.5207833083832226  0.9854169218128133  0.7468796707003023  1.0000
  H   H24       1.0  0.479217845839493  0.5145855074076948  0.2468796248107239  1.0000
  H   H25       1.0  0.6664959077627728  0.2944207330190806  0.2112738411115131  1.0000
  H   H26       1.0  0.333503922892568  0.20557886273499548  0.7112746373667562  1.0000
  H   H27       1.0  0.3335028516698129  0.705579631462548  0.7887256627742758  1.0000
  H   H28       1.0  0.6664979720917472  0.7944227152628328  0.2887254150135448  1.0000
  H   H29       1.0  0.8116216041583896  0.3301677485002869  0.290513935043208  1.0000
  H   H30       1.0  0.18837372372273356  0.1698316709429193  0.7905138166271755  1.0000
  H   H31       1.0  0.1883740197202926  0.6698314024646024  0.7094855688445207  1.0000
  H   H32       1.0  0.8116263280468274  0.8301687002379052  0.2094856872577822  1.0000
  H   H33       1.0  0.34214287474417665  0.3533960503402937  0.4457370896343136  1.0000
  H   H34       1.0  0.6578563966789587  0.14660308989395077  0.9457352645756458  1.0000
  H   H35       1.0  0.6578545923449256  0.6466043074405121  0.5542640597416549  1.0000
  H   H36       1.0  0.3421454983096907  0.8533984881049573  0.05426369081175151  1.0000
  H   H37       1.0  0.7528673907911881  0.10980255098672842  0.4480986327139433  1.0000
  H   H38       1.0  0.24713112051683336  0.39019777800893246  0.9480990184105095  1.0000
  H   H39       1.0  0.24712971599508649  0.890194213138244  0.551902516662004  1.0000
  H   H40       1.0  0.7528709650445862  0.6098014064514031  0.0519010339695001  1.0000
  H   H41       1.0  0.9093372678040907  0.9033548666815816  0.3942669528322824  1.0000
  H   H42       1.0  0.09066291307006942  0.5966448784432502  0.8942653046613316  1.0000
  H   H43       1.0  0.0906648177573288  0.09664431777875387  0.6057330995477272  1.0000
  H   H44       1.0  0.9093410157169404  0.40335551283679644  0.1057325537317695  1.0000
  H   H45       1.0  0.7077958060783305  0.10426057356259828  0.1095063180762494  1.0000
  H   H46       1.0  0.2922096164451204  0.3957440366896137  0.6095055493584312  1.0000
  H   H47       1.0  0.2922027627749769  0.895742184455976  0.8904937343062826  1.0000
  H   H48       1.0  0.7077946726382154  0.6042599482446391  0.3904939545240468  1.0000
  H   H49       1.0  0.2256848601078261  0.10796196765195279  0.1816926019132978  1.0000
  H   H50       1.0  0.7743168567976042  0.39204128677477706  0.6816923070202563  1.0000
  H   H51       1.0  0.7743137087454742  0.8920407903666286  0.8183074504692343  1.0000
  H   H52       1.0  0.225684487306772  0.6079590911047035  0.31830774536030765  1.0000
  H   H53       1.0  0.0711184649399144  0.2309551900700058  0.29281041226700216  1.0000
  H   H54       1.0  0.9288825650372771  0.2690454517619827  0.7928093516764321  1.0000
  H   H55       1.0  0.928880845370436  0.7690463745294308  0.7071896401149687  1.0000
  H   H56       1.0  0.07112007140624844  0.7309549328172409  0.2071901522068558  1.0000
  C   C1        1.0  0.30446732012534033  0.052717801379643  0.384273128820233  1.0000
  C   C2        1.0  0.695531695225597  0.44728265344346596  0.8842718465790823  1.0000
  C   C3        1.0  0.6955338333975972  0.94728497003625  0.6157280205535258  1.0000
  C   C4        1.0  0.3044689074239031  0.5527189178557066  0.1157276573055981  1.0000
  C   C5        1.0  0.4522472888688185  0.1762440416088111  0.3357727921546854  1.0000
  C   C6        1.0  0.5477491645101225  0.32375290177199634  0.8357733286039846  1.0000
  C   C7        1.0  0.5477514705615931  0.8237563228722706  0.6642272602275554  1.0000
  C   C8        1.0  0.45225237017353237  0.6762450825705385  0.16422617527984332  1.0000
  C   C9        1.0  0.5688877329283885  0.10456159234473007  0.292506214768693  1.0000
  C   C10       1.0  0.43111090534512186  0.3954366431487911  0.792507460599218  1.0000
  C   C11       1.0  0.43111157738846356  0.8954399722563193  0.7074921921239223  1.0000
  C   C12       1.0  0.5688917310940695  0.6045637414293523  0.2074931402769664  1.0000
  C   C13       1.0  0.7256935082505221  0.23786716151338533  0.2516722078507456  1.0000
  C   C14       1.0  0.27430416015981507  0.262131147782135  0.7516725401476023  1.0000
  C   C15       1.0  0.2743032173880308  0.7621343896881924  0.7483272960364431  1.0000
  C   C16       1.0  0.7256984762815434  0.7378692367965484  0.2483275122321373  1.0000
  C   C17       1.0  0.20196095506369013  0.2614487422926359  0.438083454125973  1.0000
  C   C18       1.0  0.7980365335760454  0.23854920621047168  0.9380836551534344  1.0000
  C   C19       1.0  0.7980359611519675  0.7385504153714492  0.5619160497609244  1.0000
  C   C20       1.0  0.20196351819135563  0.7614511649698128  0.0619163972279679  1.0000
  C   C21       1.0  0.8984328351137164  0.12974447181439785  0.4390450577427671  1.0000
  C   C22       1.0  0.10156464592851218  0.3702534747921007  0.9390461770820907  1.0000
  C   C23       1.0  0.10156372080127321  0.8702510921943937  0.56095389764765  1.0000
  C   C24       1.0  0.8984355964138261  0.6297445028501515  0.0609544237954651  1.0000
  C   C25       1.0  0.9737993018635934  0.027125093551774192  0.4117227480936876  1.0000
  C   C26       1.0  0.02619968728649978  0.4728729136181825  0.9117228824423905  1.0000
  C   C27       1.0  0.026198906686886316  0.9728740708109741  0.5882773042888232  1.0000
  C   C28       1.0  0.9738023982792542  0.5271262708432333  0.0882760729447156  1.0000
  C   C29       1.0  0.8279864145509636  0.11850484076163778  0.1435777439424655  1.0000
  C   C30       1.0  0.1720168956873707  0.3814984955038198  0.6435776769112564  1.0000
  C   C31       1.0  0.17201215430451092  0.8814979172574764  0.8564217599436219  1.0000
  C   C32       1.0  0.8279868425160258  0.6185042893120849  0.3564218269714914  1.0000
  C   C33       1.0  0.09392655836108331  0.12305409258367922  0.1833809601462519  1.0000
  C   C34       1.0  0.9060766281216602  0.3769467716754135  0.6833815899232576  1.0000
  C   C35       1.0  0.9060722010714954  0.8769462718979497  0.816618543739537  1.0000
  C   C36       1.0  0.09392600831753839  0.62305361290273  0.3166190109529268  1.0000
  C   C37       1.0  0.02122835301349821  0.1851455660769474  0.23856743331555208  1.0000
  C   C38       1.0  0.9787731053217855  0.3148551826887952  0.7385674118329958  1.0000
  C   C39       1.0  0.9787691140821055  0.8148547917054855  0.7614320705710683  1.0000
  C   C40       1.0  0.021230081999512082  0.6851464020082287  0.2614326405464737  1.0000
  C   C41       1.0  0.4297517115575786  0.7112738119633235  0.45285599405883653  1.0000
  C   C42       1.0  0.5702409940835977  0.788724584048374  0.9528504629898081  1.0000
  C   C43       1.0  0.5702415181982516  0.288722932059187  0.5471500917876639  1.0000
  C   C44       1.0  0.4297487398544889  0.21126735281129774  0.0471457499225068  1.0000
  N   N1        1.0  0.16601403320142083  0.11216011950173048  0.4111160902244677  1.0000
  N   N2        1.0  0.8339836684088554  0.387837882166572  0.9111146206764147  1.0000
  N   N3        1.0  0.8339834338898483  0.887840238279615  0.5888845106550491  1.0000
  N   N4        1.0  0.1660189680389976  0.6121625024137316  0.08888378621396952  1.0000
  N   N5        1.0  0.04182338865642519  0.2749989292703532  0.4551933567534405  1.0000
  N   N6        1.0  0.9581745157411419  0.2250001856197058  0.9551944460207551  1.0000
  N   N7        1.0  0.9581729766793006  0.7249990282753911  0.5448061471337268  1.0000
  N   N8        1.0  0.041826828361067214  0.7750001922592346  0.044806154856267696  1.0000
  N   N9        1.0  0.8527613494254637  0.18193008674867162  0.21238990306703442  1.0000
  N   N10       1.0  0.14723957417724157  0.3180719070421744  0.7123904074644045  1.0000
  N   N11       1.0  0.14723721943000348  0.8180726712704496  0.7876096008190459  1.0000
  N   N12       1.0  0.8527636131440558  0.6819296776548496  0.287609644915058  1.0000
  N   N13       1.0  0.972242645906519  0.08246196707539609  0.12444005858831991  1.0000
  N   N14       1.0  0.027760815465427365  0.4175414069185095  0.6244396345179126  1.0000
  N   N15       1.0  0.027755922944628263  0.9175407909426382  0.875560542290664  1.0000
  N   N16       1.0  0.972242922735809  0.5824613778968626  0.3755604178612799  1.0000
  N   N17       1.0  0.328308178612005  0.6376789605872517  0.5017923590489062  1.0000
  N   N18       1.0  0.671690122907421  0.8623191379303066  0.0017893718039872  1.0000
  N   N19       1.0  0.6716894790433727  0.3623190036533614  0.498211532809016  1.0000
  N   N20       1.0  0.32831215324626584  0.13767765299632365  0.9982068411005756  1.0000
  O   O1        1.0  0.5364355317226669  0.7862128165594909  0.4042053924312157  1.0000
  O   O2        1.0  0.463563448070218  0.7137928894704969  0.9041999884280756  1.0000
  O   O3        1.0  0.46355954125225196  0.21378513428111023  0.5958001449177317  1.0000
  O   O4        1.0  0.5364312646256906  0.28620146772021116  0.0957995154598947  1.0000
