data_image0
_chemical_formula_structural       Zn2H42C94N10O24
_chemical_formula_sum              "Zn2 H42 C94 N10 O24"
_cell_length_a       14.757342582066313
_cell_length_b       16.19047653727989
_cell_length_c       27.90654926777887
_cell_angle_alpha    90.21942801661238
_cell_angle_beta     89.97143625739898
_cell_angle_gamma    89.98841729959989

_space_group_name_H-M_alt    "P 1"
_space_group_IT_number       1

loop_
  _space_group_symop_operation_xyz
  'x, y, z'

loop_
  _atom_site_type_symbol
  _atom_site_label
  _atom_site_symmetry_multiplicity
  _atom_site_fract_x
  _atom_site_fract_y
  _atom_site_fract_z
  _atom_site_occupancy
  Zn  Zn1       1.0  0.5973378435208048  0.4999622341822698  0.4999573033641979  1.0000
  Zn  Zn2       1.0  0.401959814631752  0.49992768800831316  0.5000311934072741  1.0000
  H   H1        1.0  0.6444927540036076  0.4979681334873122  0.3503328249120017  1.0000
  H   H2        1.0  0.644615717039571  0.5032599983641858  0.6496094106790125  1.0000
  H   H3        1.0  0.6486486646146119  0.5010902208321822  0.26005406556077293  1.0000
  H   H4        1.0  0.6486719787965001  0.5002332094676943  0.7398802432445706  1.0000
  H   H5        1.0  0.5824016621290794  0.705055622332317  0.12255910704225668  1.0000
  H   H6        1.0  0.5825348143925382  0.2955919739824324  0.877367137083304  1.0000
  H   H7        1.0  0.3541868057144982  0.4906600969517499  0.6538505383259832  1.0000
  H   H8        1.0  0.3540076799000503  0.5087522353551178  0.346161938738632  1.0000
  H   H9        1.0  0.476186676269883  0.6988428428778877  0.8787465697120496  1.0000
  H   H10       1.0  0.4761566398636604  0.3018168218820279  0.12117200497606007  1.0000
  H   H11       1.0  0.5029770674756192  0.7053409871170473  0.966397950630757  1.0000
  H   H12       1.0  0.5028189596178976  0.29538166585577136  0.0335082685820609  1.0000
  H   H13       1.0  0.053431605755662304  0.532842437480184  0.3711461846429033  1.0000
  H   H14       1.0  0.1427350604985023  0.61409894665281  0.3125896047907162  1.0000
  H   H15       1.0  0.23708501624818015  0.7325967066114033  0.3405699245375118  1.0000
  H   H16       1.0  0.24464235324379052  0.7666858955406681  0.42770498371830007  1.0000
  H   H17       1.0  0.1590858207266592  0.6830566372832791  0.48637483164734613  1.0000
  H   H18       1.0  0.9468921559382224  0.28094060538020216  0.5296898109968353  1.0000
  H   H19       1.0  0.8608922509623228  0.1870537337279217  0.5830530956151634  1.0000
  H   H20       1.0  0.769072859392473  0.24500627864364335  0.6502774035781087  1.0000
  H   H21       1.0  0.7603126069085421  0.3969064495345478  0.6622226980458805  1.0000
  H   H22       1.0  0.8432149386612624  0.49135094471154883  0.6074037995309709  1.0000
  H   H23       1.0  0.0530474135851762  0.4667880714702193  0.6289353251852389  1.0000
  H   H24       1.0  0.142378461859586  0.38553312079184815  0.687419898523146  1.0000
  H   H25       1.0  0.23707541376930416  0.2672480545693432  0.6593845550143983  1.0000
  H   H26       1.0  0.24490972044463893  0.2333564075214838  0.5722191270929997  1.0000
  H   H27       1.0  0.1593202357138708  0.3169794685534271  0.5136001326691044  1.0000
  H   H28       1.0  0.946790109836826  0.7189828734004423  0.47035749200946236  1.0000
  H   H29       1.0  0.8608498507383615  0.8128362256045135  0.4169758968338542  1.0000
  H   H30       1.0  0.7693306859626218  0.7548781023710732  0.3497192538128644  1.0000
  H   H31       1.0  0.760835830561085  0.6029924131298046  0.33769513435957776  1.0000
  H   H32       1.0  0.8436754023902395  0.5085472871319823  0.3925208955810645  1.0000
  H   H33       1.0  0.7116151857262807  0.6603579755580212  0.9878426235618321  1.0000
  H   H34       1.0  0.7804483589388341  0.7867248281764817  0.9536036005270958  1.0000
  H   H35       1.0  0.7194372947884988  0.9254225684745025  0.9753701700450959  1.0000
  H   H36       1.0  0.5902799844784993  0.9364427972191081  0.0328532429592769  1.0000
  H   H37       1.0  0.5216948487365514  0.8099128732971294  0.0670911723922387  1.0000
  H   H38       1.0  0.7112836816461438  0.340493873223096  0.0121323444915475  1.0000
  H   H39       1.0  0.7801520924313652  0.21415535026324764  0.04645974779746351  1.0000
  H   H40       1.0  0.7192665452332676  0.07543517559872008  0.024698608872242303  1.0000
  H   H41       1.0  0.5903930009970821  0.06432674121398212  0.9671795034826757  1.0000
  H   H42       1.0  0.521782746004682  0.19076585067743682  0.932864678774024  1.0000
  C   C1        1.0  0.5010223942267231  0.6600875942216506  0.4999351889371154  1.0000
  C   C2        1.0  0.5010779157839026  0.3398099110916987  0.5000988090847684  1.0000
  C   C3        1.0  0.4977813195562177  0.5008734512928611  0.4073076579570767  1.0000
  C   C4        1.0  0.4979845150651058  0.499187210238759  0.5926720408887718  1.0000
  C   C5        1.0  0.5331326994238593  0.5828805690904771  0.17944938737720406  1.0000
  C   C6        1.0  0.5332074192165877  0.4177993502441312  0.8204928225169398  1.0000
  C   C7        1.0  0.4950088445492895  0.4314898337499571  0.1790250201910624  1.0000
  C   C8        1.0  0.49503636532566736  0.5691951897704469  0.8209252055646272  1.0000
  C   C9        1.0  0.4216270575962326  0.5108765402053448  0.2778039220467292  1.0000
  C   C10       1.0  0.4217353028396645  0.4891868254568621  0.7222050084066892  1.0000
  C   C11       1.0  0.41887578353231447  0.5077042006687053  0.3276384543134725  1.0000
  C   C12       1.0  0.4190222142428794  0.49214273261829783  0.6723635165237382  1.0000
  C   C13       1.0  0.5825199649768819  0.501571833888015  0.3293024245465688  1.0000
  C   C14       1.0  0.5826326461645407  0.4992102801330914  0.6706433582823407  1.0000
  C   C15       1.0  0.5846662505613907  0.5037000008101131  0.2795258478443898  1.0000
  C   C16       1.0  0.5847371035261446  0.4972369092164968  0.720417485929886  1.0000
  C   C17       1.0  0.5046272425279169  0.508722731764898  0.2532060367817763  1.0000
  C   C18       1.0  0.5047188750846345  0.49185105242404586  0.7467681979152231  1.0000
  C   C19       1.0  0.5295931088862815  0.5036925690533208  0.10172694520497319  1.0000
  C   C20       1.0  0.5296617268663226  0.49698658951259495  0.8982065948130894  1.0000
  C   C21       1.0  0.5420472628218816  0.5790897415497582  0.12678293721844366  1.0000
  C   C22       1.0  0.5421111110069603  0.4215867230188054  0.8731470461843924  1.0000
  C   C23       1.0  0.5670199498923479  0.6494062758177676  0.101970090651065  1.0000
  C   C24       1.0  0.5670640896058076  0.3512549533266879  0.8979459118905808  1.0000
  C   C25       1.0  0.5073157583355936  0.43046677459857824  0.1266243894307379  1.0000
  C   C26       1.0  0.5074595166192494  0.5702347540418345  0.8733155783312014  1.0000
  C   C27       1.0  0.49952605184948595  0.5035362144565809  0.35356731362379895  1.0000
  C   C28       1.0  0.4996733085044199  0.4966576710764274  0.6464103182468149  1.0000
  C   C29       1.0  0.5347533585568129  0.576001677269268  0.9737998859843768  1.0000
  C   C30       1.0  0.5346455805553703  0.4247276378182221  0.026115583261962196  1.0000
  C   C31       1.0  0.5516161966267177  0.4226342848666036  0.9744722144477009  1.0000
  C   C32       1.0  0.5516424995171577  0.5780787903246251  0.0254466069561801  1.0000
  C   C33       1.0  0.5388294488254814  0.49839729443613845  0.949134483913319  1.0000
  C   C34       1.0  0.5388087790495177  0.5023061527721566  0.0507897349775916  1.0000
  C   C35       1.0  0.5106553326254968  0.6466290547905658  0.9478289586086674  1.0000
  C   C36       1.0  0.5104537474679917  0.3541130747898293  0.0520765977347395  1.0000
  C   C37       1.0  0.4957889708017263  0.6437147854381423  0.8984900449113978  1.0000
  C   C38       1.0  0.4956175991306396  0.35700858915461703  0.1014379345184366  1.0000
  C   C39       1.0  0.5740245871542342  0.6503511770950964  0.0516154726576161  1.0000
  C   C40       1.0  0.5740199518446404  0.3503604682222345  0.948303775765673  1.0000
  C   C41       1.0  0.5824628361722121  0.042640404284576106  0.4990532027965457  1.0000
  C   C42       1.0  0.41965299994500077  0.9572383044650153  0.5011244071210541  1.0000
  C   C43       1.0  0.5824390122026557  0.9571909836671467  0.5013196192795418  1.0000
  C   C44       1.0  0.4196809266752553  0.0426733950328639  0.4987776601356159  1.0000
  C   C45       1.0  0.5010784917459148  0.08854654368568048  0.4980130124589124  1.0000
  C   C46       1.0  0.5010380500996874  0.9113412308821227  0.5020965514599354  1.0000
  C   C47       1.0  0.5010176575908502  0.17515007443756048  0.498475052076806  1.0000
  C   C48       1.0  0.5009599844497926  0.824742861047767  0.5016001530199645  1.0000
  C   C49       1.0  0.5008676136770518  0.749693936690882  0.5003416877674168  1.0000
  C   C50       1.0  0.5009663689615209  0.2501934065010758  0.4997403222567698  1.0000
  C   C51       1.0  0.9525359785101912  0.5525642559028583  0.4673192287337571  1.0000
  C   C52       1.0  0.047547510000832516  0.4478381325872221  0.532994579521116  1.0000
  C   C53       1.0  0.9524613429391311  0.4473617850055476  0.5327042574077225  1.0000
  C   C54       1.0  0.0476184705429077  0.5520576148288187  0.46705348676577774  1.0000
  C   C55       1.0  0.9075569677499546  0.49995833367632514  0.5000030701366427  1.0000
  C   C56       1.0  0.0923518864717821  0.4999547169448774  0.500035248319378  1.0000
  C   C57       1.0  0.8114034897571897  0.4999587221463103  0.49996551660030514  1.0000
  C   C58       1.0  0.18841795024808763  0.4999629982955442  0.5000699847838703  1.0000
  C   C59       1.0  0.1002070017031684  0.6026063711341009  0.4325447344086157  1.0000
  C   C60       1.0  0.0955466619294469  0.5840576830832518  0.38342608307306136  1.0000
  C   C61       1.0  0.1454097466216524  0.6301321114584226  0.3505454492525075  1.0000
  C   C62       1.0  0.19888486190940577  0.696040093664955  0.3663716636377004  1.0000
  C   C63       1.0  0.20353510930083732  0.71499525473687  0.415181021030655  1.0000
  C   C64       1.0  0.15504222813391524  0.66804353972298  0.44828237409493  1.0000
  C   C65       1.0  0.9005351517468443  0.3922013949777821  0.5650226488046997  1.0000
  C   C66       1.0  0.9056488077813114  0.3063102943187772  0.5586449443904797  1.0000
  C   C67       1.0  0.8577082943080612  0.253630307842556  0.5888380603806808  1.0000
  C   C68       1.0  0.805727888498339  0.2861961156234401  0.6262774436678598  1.0000
  C   C69       1.0  0.8005986219539879  0.37159042005102083  0.6328877313313368  1.0000
  C   C70       1.0  0.8471203542112278  0.4246004124680809  0.602178072543424  1.0000
  C   C71       1.0  0.10010801409234923  0.3972394282109164  0.567477757488497  1.0000
  C   C72       1.0  0.09534322686820929  0.4156873322364376  0.6166041263885234  1.0000
  C   C73       1.0  0.1452101737699039  0.36961456881665095  0.6494551619850739  1.0000
  C   C74       1.0  0.1988505561273612  0.3037918499070926  0.6335936400991784  1.0000
  C   C75       1.0  0.20364576247952473  0.28495724961965146  0.5847744970894624  1.0000
  C   C76       1.0  0.15511709556836448  0.3318966322045044  0.5517037442693322  1.0000
  C   C77       1.0  0.9007219621607447  0.607710666263678  0.4349625104034586  1.0000
  C   C78       1.0  0.9056927665129564  0.6935985271061682  0.4413677910052343  1.0000
  C   C79       1.0  0.8578009866283977  0.7462725304291169  0.4111657156977415  1.0000
  C   C80       1.0  0.8059632475326025  0.7136864145737933  0.3737134316273156  1.0000
  C   C81       1.0  0.8009728200766234  0.628298490960674  0.3670673444283494  1.0000
  C   C82       1.0  0.8474685145430315  0.575298411973627  0.3977767048934524  1.0000
  C   C83       1.0  0.6112637334057638  0.726284307917716  0.029466678792580598  1.0000
  C   C84       1.0  0.6846653877827721  0.7209510776898824  0.9973979708692583  1.0000
  C   C85       1.0  0.7232362256622834  0.7919988892446099  0.9781832573059646  1.0000
  C   C86       1.0  0.6892101535987507  0.8698782215759095  0.9905719612991817  1.0000
  C   C87       1.0  0.6169223755458761  0.8759904986116211  0.0227022641708032  1.0000
  C   C88       1.0  0.5784524090833826  0.8047964786330438  0.0421883167085255  1.0000
  C   C89       1.0  0.6111905276142127  0.2744585335726768  0.9704858288272504  1.0000
  C   C90       1.0  0.6844480422134254  0.27987664804420115  0.002600317078119499  1.0000
  C   C91       1.0  0.7230231857199102  0.20887216803315303  0.021857269285483497  1.0000
  C   C92       1.0  0.689116978779566  0.13097224332170745  0.009456288345766898  1.0000
  C   C93       1.0  0.6169702367713727  0.12478352386079193  0.9772921082976112  1.0000
  C   C94       1.0  0.5784907341783238  0.1959273912318267  0.9577662682517099  1.0000
  N   N1        1.0  0.5118080687668396  0.5076791990240109  0.20197423987791296  1.0000
  N   N2        1.0  0.5119335846663589  0.49300438023871623  0.79798551658957  1.0000
  N   N3        1.0  0.2669408899009511  0.49997615196737394  0.5000846639587664  1.0000
  N   N4        1.0  0.7328487184919155  0.4999222892870562  0.49991992469948326  1.0000
  N   N5        1.0  0.3341850632440213  0.48317915613989726  0.7475959194356532  1.0000
  N   N6        1.0  0.33408619402030837  0.5164948274582527  0.25243948919155196  1.0000
  N   N7        1.0  0.6696966106319735  0.9118717029869502  0.5015874757246621  1.0000
  N   N8        1.0  0.33264271140483004  0.08823910350972852  0.49881219508139196  1.0000
  N   N9        1.0  0.6697372452685925  0.08788410952116274  0.4990421915513323  1.0000
  N   N10       1.0  0.3325867659336765  0.9117477826997274  0.5008920907270635  1.0000
  O   O1        1.0  0.5786153979577405  0.6266727067216492  0.498162448024047  1.0000
  O   O2        1.0  0.42358252105881183  0.3735212038288509  0.49856890329900233  1.0000
  O   O3        1.0  0.5786429590182466  0.3732691410404598  0.5017987689368226  1.0000
  O   O4        1.0  0.4235677914897166  0.6263396231217228  0.5014948781307567  1.0000
  O   O5        1.0  0.5744202085884851  0.49691303277878507  0.4280484832312084  1.0000
  O   O6        1.0  0.42076554252093246  0.49696308304186937  0.5726196427388857  1.0000
  O   O7        1.0  0.5746354350262167  0.5031640087622193  0.5719037314567075  1.0000
  O   O8        1.0  0.42055378805872573  0.5029292389485889  0.4274010279683437  1.0000
  O   O9        1.0  0.5439866165862528  0.6461640257427206  0.2033305703416062  1.0000
  O   O10       1.0  0.5439603766659005  0.35450659636529025  0.7966088822197576  1.0000
  O   O11       1.0  0.47223650482686713  0.6297981233169594  0.7973123091973874  1.0000
  O   O12       1.0  0.47236759065903305  0.37084868912617003  0.2026617798622254  1.0000
  O   O13       1.0  0.2655852493452286  0.5059438501527039  0.7256543107254882  1.0000
  O   O14       1.0  0.3338496853202387  0.4546515300097553  0.7888009984499504  1.0000
  O   O15       1.0  0.2657001670507881  0.49275273058228913  0.2742408826612888  1.0000
  O   O16       1.0  0.3335458972229262  0.5457169666218391  0.2114016361243074  1.0000
  O   O17       1.0  0.6846164553362115  0.8675618077310717  0.5363739112752555  1.0000
  O   O18       1.0  0.7191751241766794  0.9225364234989327  0.4663443009592001  1.0000
  O   O19       1.0  0.31744620103630444  0.13308108655689216  0.464284296695169  1.0000
  O   O20       1.0  0.2836709329329778  0.0777451869905121  0.5342982694484562  1.0000
  O   O21       1.0  0.6851670160205643  0.13219248323957805  0.4643101971043251  1.0000
  O   O22       1.0  0.7187655872994085  0.077110766016915  0.534423889147071  1.0000
  O   O23       1.0  0.3169945255750621  0.8669855082335901  0.5354114554454412  1.0000
  O   O24       1.0  0.2839888588653637  0.9222414555310366  0.46528409320648473  1.0000
