data_image0
_chemical_formula_structural       Cs4H16C28S4O24
_chemical_formula_sum              "Cs4 H16 C28 S4 O24"
_cell_length_a       7.680270234
_cell_length_b       9.620730452076437
_cell_length_c       13.795851987062886
_cell_angle_alpha    93.76598998164131
_cell_angle_beta     89.99920871503336
_cell_angle_gamma    90.00040954438805

_space_group_name_H-M_alt    "P 1"
_space_group_IT_number       1

loop_
  _space_group_symop_operation_xyz
  'x, y, z'

loop_
  _atom_site_type_symbol
  _atom_site_label
  _atom_site_symmetry_multiplicity
  _atom_site_fract_x
  _atom_site_fract_y
  _atom_site_fract_z
  _atom_site_occupancy
  Cs  Cs1       1.0  0.8212872455356434  0.03005825031558371  0.8611941262602443  1.0000
  Cs  Cs2       1.0  0.3212784077020601  0.9699331962175319  0.6387977883084588  1.0000
  Cs  Cs3       1.0  0.17873723327060287  0.969892273896967  0.13879931653789157  1.0000
  Cs  Cs4       1.0  0.678722635203826  0.030081135297699294  0.3611874450204481  1.0000
  H   H1        1.0  0.21758500846218004  0.5810051756584115  0.9882574067946663  1.0000
  H   H2        1.0  0.7175530475331371  0.4190379550165916  0.511757418065308  1.0000
  H   H3        1.0  0.7824407725233017  0.4190026496245949  0.0117510052063849  1.0000
  H   H4        1.0  0.28245841146346623  0.5809791940061118  0.4882372745364023  1.0000
  H   H5        1.0  0.5472305239738235  0.3449279345289256  0.7107385362919485  1.0000
  H   H6        1.0  0.0472736843443613  0.6550632091320452  0.789262813013984  1.0000
  H   H7        1.0  0.45271322887552407  0.65505241308189  0.2892507854145236  1.0000
  H   H8        1.0  0.9527039210013798  0.34492617743270415  0.2107490836643393  1.0000
  H   H9        1.0  0.5511526456440876  0.6070442111812753  0.7373534895406095  1.0000
  H   H10       1.0  0.051153371801881106  0.39294377470096714  0.7626340422237163  1.0000
  H   H11       1.0  0.4488041278515169  0.3929341889129743  0.2626242019371858  1.0000
  H   H12       1.0  0.94879949484082  0.6070487889552679  0.23737860536831326  1.0000
  H   H13       1.0  0.2549386660614418  0.1467195976976043  0.9040202276631462  1.0000
  H   H14       1.0  0.7549701963508966  0.8533133018476774  0.5959966945460095  1.0000
  H   H15       1.0  0.7450532616753449  0.8532837642071273  0.09599758636105088  1.0000
  H   H16       1.0  0.2450490747993541  0.1466998000926338  0.40399941809788226  1.0000
  C   C1        1.0  0.38460200870237315  0.6083229338523992  0.863252530085276  1.0000
  C   C2        1.0  0.8845776788539441  0.39169247299015814  0.6367533655954887  1.0000
  C   C3        1.0  0.6153990337761359  0.3916713890983984  0.1367427089670699  1.0000
  C   C4        1.0  0.1154142493115273  0.6083084309911085  0.3632462807968082  1.0000
  C   C5        1.0  0.2906186164988824  0.5295517308090892  0.928506418007153  1.0000
  C   C6        1.0  0.790593726560566  0.47047903177124073  0.5715097614668139  1.0000
  C   C7        1.0  0.7093915400874948  0.4704516504083926  0.0714983293891294  1.0000
  C   C8        1.0  0.2094112220971169  0.5295311199250959  0.4284885057759098  1.0000
  C   C9        1.0  0.2887752410042452  0.38620064503557217  0.9167704740640445  1.0000
  C   C10       1.0  0.7887874908539773  0.6138280940035583  0.5832464154310201  1.0000
  C   C11       1.0  0.7112205930727526  0.613801979614756  0.0832378970443983  1.0000
  C   C12       1.0  0.21122917613226386  0.38618101756623696  0.416751843633186  1.0000
  C   C13       1.0  0.3835948937359532  0.31553926141081234  0.8358599749764365  1.0000
  C   C14       1.0  0.8836226230776348  0.6844757291358547  0.6641539026852923  1.0000
  C   C15       1.0  0.6163814098461841  0.6844567254971635  0.16414326241392269  1.0000
  C   C16       1.0  0.11639013766293262  0.31552846536064993  0.3358479473769761  1.0000
  C   C17       1.0  0.480763092610978  0.3996390032625711  0.7716062159104737  1.0000
  C   C18       1.0  0.9807861280568703  0.6003607449700681  0.728398830714319  1.0000
  C   C19       1.0  0.5192001907500342  0.6003457884137687  0.22838677040076757  1.0000
  C   C20       1.0  0.019203195803072497  0.39963234840580947  0.271607287653012  1.0000
  C   C21       1.0  0.4796729167966447  0.5423814896237359  0.7855725197043667  1.0000
  C   C22       1.0  0.9796745585759368  0.4576188450404288  0.7144267240738671  1.0000
  C   C23       1.0  0.5202981789386811  0.4576038884841296  0.21441466376031568  1.0000
  C   C24       1.0  0.0203017449004221  0.542375345173859  0.2855801288501212  1.0000
  C   C25       1.0  0.1858871064619336  0.30585839414640487  0.9858006490255135  1.0000
  C   C26       1.0  0.6859159383863797  0.6941818997083756  0.5142177831895722  1.0000
  C   C27       1.0  0.8141178416878958  0.6941534021943594  0.014218683183138098  1.0000
  C   C28       1.0  0.31411505112674837  0.30582791171669743  0.48577612578434776  1.0000
  S   S1        1.0  0.3857086261470073  0.7932751838381406  0.8821357173933464  1.0000
  S   S2        1.0  0.8856767135547586  0.20674366556890786  0.6178477014578403  1.0000
  S   S3        1.0  0.614314551021863  0.2067189689770217  0.1178573425246014  1.0000
  S   S4        1.0  0.11431000658393492  0.7932589783941706  0.3821476030226875  1.0000
  O   O1        1.0  0.4293466716852877  0.8173770258148351  0.9854025225473177  1.0000
  O   O2        1.0  0.9292816925270558  0.18268066785804385  0.5145724905501011  1.0000
  O   O3        1.0  0.5707689503736619  0.18261211581603476  0.014579608984504897  1.0000
  O   O4        1.0  0.07070763175955361  0.8173302971173227  0.4854228793586087  1.0000
  O   O5        1.0  0.5181188183438011  0.8405269180907099  0.8149099026606307  1.0000
  O   O6        1.0  0.018112702012246  0.15947746488222236  0.6850479948135515  1.0000
  O   O7        1.0  0.4818483720424994  0.15946133546288618  0.1850475401931249  1.0000
  O   O8        1.0  0.9818740181264404  0.8405251790808563  0.3149473096669766  1.0000
  O   O9        1.0  0.20907521806163493  0.8394340916193884  0.8584158641797328  1.0000
  O   O10       1.0  0.7090556239351218  0.16056601619726507  0.6415804740859555  1.0000
  O   O11       1.0  0.7909284272598142  0.1605717088960432  0.1416331841042791  1.0000
  O   O12       1.0  0.29093239823966144  0.8394323538359172  0.3584133449242159  1.0000
  O   O13       1.0  0.11399388039915691  0.36095336619104046  0.057815928898470786  1.0000
  O   O14       1.0  0.6140356464334147  0.6390918298209556  0.44219825661188134  1.0000
  O   O15       1.0  0.8860136719245092  0.6390655976117258  0.9422020078035656  1.0000
  O   O16       1.0  0.386005759512969  0.3609228986774155  0.5577920613639691  1.0000
  O   O17       1.0  0.17253015938449326  0.16822322708464546  0.962172420143446  1.0000
  O   O18       1.0  0.6725576795094099  0.8318132465352477  0.5378503376263595  1.0000
  O   O19       1.0  0.8274786946663398  0.8317849758687428  0.0378541431324635  1.0000
  O   O20       1.0  0.3274667997103434  0.1681947681961375  0.4621471868811894  1.0000
  O   O21       1.0  0.3780343876461103  0.18348697057933086  0.8206833911390561  1.0000
  O   O22       1.0  0.8780845613213019  0.8165281333910882  0.6793319392789385  1.0000
  O   O23       1.0  0.621932801576719  0.8165082597614982  0.1793234699634567  1.0000
  O   O24       1.0  0.1219451258895035  0.18347611781729256  0.3206706371614629  1.0000
