data_image0
_chemical_formula_structural       Sr2Cu2H32C28N4O26
_chemical_formula_sum              "Sr2 Cu2 H32 C28 N4 O26"
_cell_length_a       6.8690246520785685
_cell_length_b       8.196052291878692
_cell_length_c       17.303266446182395
_cell_angle_alpha    93.31118332522374
_cell_angle_beta     98.28582185541535
_cell_angle_gamma    112.3568827193546

_space_group_name_H-M_alt    "P 1"
_space_group_IT_number       1

loop_
  _space_group_symop_operation_xyz
  'x, y, z'

loop_
  _atom_site_type_symbol
  _atom_site_label
  _atom_site_symmetry_multiplicity
  _atom_site_fract_x
  _atom_site_fract_y
  _atom_site_fract_z
  _atom_site_occupancy
  Sr  Sr1       1.0  0.6414639370756773  0.30764313023679074  0.46247481973397014  1.0000
  Sr  Sr2       1.0  0.3585374162642624  0.6923535233168324  0.5375246888845953  1.0000
  Cu  Cu1       1.0  0.7452083613480339  0.6830420151926974  0.9905374502574421  1.0000
  Cu  Cu2       1.0  0.254793589762123  0.31695595191776255  0.009463287717764507  1.0000
  H   H1        1.0  0.24088175710769377  0.0774091047086429  0.5437633175753191  1.0000
  H   H2        1.0  0.7591160536351181  0.9225955426249469  0.4562350475918465  1.0000
  H   H3        1.0  0.17755895925373708  0.9949123607818607  0.45693064537561423  1.0000
  H   H4        1.0  0.8224350847786182  0.0050936249636279966  0.5430669518862745  1.0000
  H   H5        1.0  0.4260853743228593  0.0477572771039334  0.2902189672603016  1.0000
  H   H6        1.0  0.5739157197306284  0.952242011848398  0.7097823343175735  1.0000
  H   H7        1.0  0.38996299786359145  0.922194587373255  0.35836434978394766  1.0000
  H   H8        1.0  0.61003391048677  0.07780205158331199  0.6416360453623471  1.0000
  H   H9        1.0  0.894154114545124  0.3142148800624369  0.3347805105276295  1.0000
  H   H10       1.0  0.10583967317033681  0.6857844345341492  0.665218615796235  1.0000
  H   H11       1.0  0.7846690408166808  0.40478350304232436  0.2773996866615108  1.0000
  H   H12       1.0  0.21532451981588716  0.5952184627338113  0.7226000791057957  1.0000
  H   H13       1.0  0.9315020879109212  0.7246739308333687  0.5440412156912516  1.0000
  H   H14       1.0  0.06850031439546463  0.27532804046560233  0.4559585072943905  1.0000
  H   H15       1.0  0.9273884148759705  0.7145510460647203  0.4521943373131948  1.0000
  H   H16       1.0  0.0726089607723921  0.28544960497077193  0.5478044660856015  1.0000
  H   H17       1.0  0.6970048066649353  0.23791070199797562  0.7617500153673478  1.0000
  H   H18       1.0  0.3029942347914343  0.7620872816825255  0.23824939109990595  1.0000
  H   H19       1.0  0.6351685664053051  0.7235062931303914  0.705265619800315  1.0000
  H   H20       1.0  0.36483492004065  0.2764917051471657  0.29473290013921644  1.0000
  H   H21       1.0  0.7414364257326083  0.34290321175615895  0.9025127578692324  1.0000
  H   H22       1.0  0.25856849943845356  0.6570947703459565  0.09748700458219872  1.0000
  H   H23       1.0  0.18228852565156467  0.7075316145712378  0.9835966029950641  1.0000
  H   H24       1.0  0.8177125523001436  0.2924676664906655  0.016405275340737515  1.0000
  H   H25       1.0  0.20194434307954628  0.8946503343301658  0.029550346448168324  1.0000
  H   H26       1.0  0.798056767075721  0.10534896251258627  0.9704503783717728  1.0000
  H   H27       1.0  0.7178524582138407  0.016289969626463098  0.0735383137648356  1.0000
  H   H28       1.0  0.28214157268629964  0.983706701680987  0.9264595963576455  1.0000
  H   H29       1.0  0.8195950208015716  0.15223111622457006  0.21233531473803424  1.0000
  H   H30       1.0  0.18039504850877114  0.847769560455184  0.7876613134067585  1.0000
  H   H31       1.0  0.9012598572439217  0.6782118625428951  0.2772205824770496  1.0000
  H   H32       1.0  0.09874572713491864  0.32179677122537254  0.7227783661966358  1.0000
  C   C1        1.0  0.6312809925987679  0.414640997333919  0.6348993956145892  1.0000
  C   C2        1.0  0.36872681002252955  0.5853569524173138  0.36510285186065533  1.0000
  C   C3        1.0  0.6570503872234636  0.4712366622534744  0.7214648793975516  1.0000
  C   C4        1.0  0.3429506907282445  0.5287626188084288  0.27853699893825024  1.0000
  C   C5        1.0  0.6888132633527776  0.36474919978537196  0.7778932776726254  1.0000
  C   C6        1.0  0.3111899477049462  0.6352514260004654  0.22210761198414275  1.0000
  C   C7        1.0  0.6538784473972257  0.6347235580874369  0.7471836250557332  1.0000
  C   C8        1.0  0.34612056185559237  0.3652744098122227  0.2528169349273811  1.0000
  C   C9        1.0  0.7123540268705781  0.421967770402901  0.8572292516735874  1.0000
  C   C10       1.0  0.2876466642920191  0.5780275380321882  0.14277133462005764  1.0000
  C   C11       1.0  0.6783773743469226  0.6839878329117894  0.8271985778389352  1.0000
  C   C12       1.0  0.32162541771813113  0.316008804466385  0.17280217329153666  1.0000
  C   C13       1.0  0.6735212972953377  0.8554884876229065  0.860218134128232  1.0000
  C   C14       1.0  0.32648298180017576  0.14450815725110286  0.13978212924035202  1.0000
  C   C15       1.0  0.7611946383004948  0.945965458545757  0.11984259934880012  1.0000
  C   C16       1.0  0.23880063644541846  0.05403386354664969  0.8801560392131765  1.0000
  C   C17       1.0  0.8062299421227193  0.6903184207539681  0.15366681014361216  1.0000
  C   C18       1.0  0.1937709892550004  0.3096835509396029  0.846332823845984  1.0000
  C   C19       1.0  0.7816786085768611  0.5071874864734268  0.12289324826039662  1.0000
  C   C20       1.0  0.2183266872815324  0.4928144603650892  0.877108382991125  1.0000
  C   C21       1.0  0.818319299401267  0.020951728238955507  0.1982344135879117  1.0000
  C   C22       1.0  0.1816794006017801  0.9790516130336115  0.8017622344607249  1.0000
  C   C23       1.0  0.8628444665843418  0.7558893367431593  0.2330061523984953  1.0000
  C   C24       1.0  0.1371539419286876  0.24411662414726717  0.766993442125312  1.0000
  C   C25       1.0  0.8728521053307573  0.92592235878746  0.2557774755577001  1.0000
  C   C26       1.0  0.12714908236385006  0.07408628405501357  0.7442206293699203  1.0000
  C   C27       1.0  0.9400573558428391  0.0015695775798149993  0.3413023487839767  1.0000
  C   C28       1.0  0.05994124754953144  0.9984337163502134  0.658697759812249  1.0000
  N   N1        1.0  0.7059957257006317  0.5781484128674421  0.8811954524096212  1.0000
  N   N2        1.0  0.2940034945332997  0.42184689596223995  0.11880504488797783  1.0000
  N   N3        1.0  0.7606870344702372  0.7862919952480995  0.09804238687851816  1.0000
  N   N4        1.0  0.2393153839379281  0.2137099839412926  0.9019567593491973  1.0000
  O   O1        1.0  0.4423967432120008  0.5045243345851773  0.4141889776039919  1.0000
  O   O2        1.0  0.5576132086170844  0.4954749677804102  0.585811704434285  1.0000
  O   O3        1.0  0.3039379964445459  0.048501980456826695  0.4996529184667013  1.0000
  O   O4        1.0  0.6960575024147034  0.9515039970036412  0.5003453445491604  1.0000
  O   O5        1.0  0.4499218362624262  0.048023290581255686  0.347838706701289  1.0000
  O   O6        1.0  0.5500735850574827  0.9519733408794904  0.6521621762068933  1.0000
  O   O7        1.0  0.8133350553846836  0.3920860339805471  0.33364168751347023  1.0000
  O   O8        1.0  0.1866566153265409  0.6079119437825254  0.666357850731494  1.0000
  O   O9        1.0  0.9451961699224467  0.6530747914651868  0.49817837463609754  1.0000
  O   O10       1.0  0.054807508433278015  0.3469298463995898  0.5018209232731793  1.0000
  O   O11       1.0  0.6883167984926429  0.2899107294704636  0.6150967505776281  1.0000
  O   O12       1.0  0.311692264076207  0.7100898789561471  0.3849056485791707  1.0000
  O   O13       1.0  0.6997882073155779  0.8797887038287159  0.9367679312459459  1.0000
  O   O14       1.0  0.3002152308250388  0.12020927077757192  0.06323231896737273  1.0000
  O   O15       1.0  0.6478584384329977  0.9642824172221581  0.8167740404145365  1.0000
  O   O16       1.0  0.3521303094922246  0.03570626267291739  0.18322447918307466  1.0000
  O   O17       1.0  0.2617520073055744  0.5296389161409962  0.9533312560544691  1.0000
  O   O18       1.0  0.7382486516534642  0.47035637651325146  0.046670483755036726  1.0000
  O   O19       1.0  0.10692109539373021  0.7694175449505068  0.010037276541019921  1.0000
  O   O20       1.0  0.8930800147615372  0.23058175189223823  0.9899634482789214  1.0000
  O   O21       1.0  0.7969583493303319  0.39973643879066867  0.16915709613014235  1.0000
  O   O22       1.0  0.20304964520073557  0.6002681505477767  0.8308459293148404  1.0000
  O   O23       1.0  0.009932974248080508  0.1683628504690375  0.3585327471756231  1.0000
  O   O24       1.0  0.9900660481369528  0.8316444318686534  0.6414674999468988  1.0000
  O   O25       1.0  0.92450948232333  0.8907680458341005  0.39126744244169503  1.0000
  O   O26       1.0  0.07548771454748499  0.10923528005221779  0.6087302701267632  1.0000
