data_image0
_chemical_formula_structural       Mg2Cu2H32C32O24
_chemical_formula_sum              "Mg2 Cu2 H32 C32 O24"
_cell_length_a       6.466978284187849
_cell_length_b       6.890760122000872
_cell_length_c       20.49289563966078
_cell_angle_alpha    89.9999427510586
_cell_angle_beta     89.99910406739367
_cell_angle_gamma    89.99999545625587

_space_group_name_H-M_alt    "P 1"
_space_group_IT_number       1

loop_
  _space_group_symop_operation_xyz
  'x, y, z'

loop_
  _atom_site_type_symbol
  _atom_site_label
  _atom_site_symmetry_multiplicity
  _atom_site_fract_x
  _atom_site_fract_y
  _atom_site_fract_z
  _atom_site_occupancy
  Mg  Mg1       1.0  0.5000001268191739  0.11531527486503988  2.418606684e-07  1.0000
  Mg  Mg2       1.0  0.9999996264594131  0.884712976081815  0.4999999573749463  1.0000
  Cu  Cu1       1.0  0.9999999632076352  0.7249853298537589  8.538252843000003e-07  1.0000
  Cu  Cu2       1.0  0.49999824375600355  0.27499793331320177  0.499999345421628  1.0000
  H   H1        1.0  0.48794176726784855  0.41270925994999896  0.9196403893417582  1.0000
  H   H2        1.0  0.9879103032710788  0.5874016509121915  0.5803893938037489  1.0000
  H   H3        1.0  0.012087698821503104  0.5874019181671102  0.4196111436838166  1.0000
  H   H4        1.0  0.5120593451782581  0.4127090515704523  0.08036020699179149  1.0000
  H   H5        1.0  0.24969100214418216  0.3773241784103902  0.9350790014023005  1.0000
  H   H6        1.0  0.7496464022466824  0.6226735515867149  0.5649387526122709  1.0000
  H   H7        1.0  0.250351596293072  0.6226737588801541  0.4350607970443292  1.0000
  H   H8        1.0  0.7503101139034244  0.3773240016062474  0.0649211188783809  1.0000
  H   H9        1.0  0.5187612214564439  0.7774788758347951  0.9265772919736648  1.0000
  H   H10       1.0  0.0187700855463078  0.22251741665320424  0.5734601158222219  1.0000
  H   H11       1.0  0.9812294999110022  0.22251470327469755  0.42653908066856866  1.0000
  H   H12       1.0  0.4812383076615063  0.7774786898452531  0.0734236694477985  1.0000
  H   H13       1.0  0.2942578218703673  0.8808651673227745  0.9179070047667037  1.0000
  H   H14       1.0  0.7942587898688062  0.1191456209653552  0.5821271258609428  1.0000
  H   H15       1.0  0.20574080607334375  0.11914588184948369  0.41787210545498965  1.0000
  H   H16       1.0  0.7057416967735223  0.8808649422826351  0.08209343385024677  1.0000
  H   H17       1.0  0.8252188360693467  0.582882270341173  0.7763508677490663  1.0000
  H   H18       1.0  0.3252432442153363  0.4170922356351597  0.7236840898369293  1.0000
  H   H19       1.0  0.6747594141284097  0.4170885344443819  0.2763155290689028  1.0000
  H   H20       1.0  0.1747807128237824  0.5828802061899411  0.2236486953097625  1.0000
  H   H21       1.0  0.8951164082529105  0.38038661033894533  0.6788476753498642  1.0000
  H   H22       1.0  0.3951188334986854  0.6195951475717295  0.8211879219903295  1.0000
  H   H23       1.0  0.6048838043174527  0.6195946419185322  0.1788111407183521  1.0000
  H   H24       1.0  0.1048847074840324  0.38038716384331656  0.321152443898967  1.0000
  H   H25       1.0  0.9919727714365862  0.03223196426737471  0.6917353820134478  1.0000
  H   H26       1.0  0.4919742695422827  0.9677410805587031  0.8083065810343583  1.0000
  H   H27       1.0  0.508025240302281  0.967739091276094  0.1916933403406631  1.0000
  H   H28       1.0  0.008029925906086501  0.0322325617243067  0.30826583047188894  1.0000
  H   H29       1.0  0.0082322459732822  0.8875220857658944  0.8033616537414543  1.0000
  H   H30       1.0  0.5081980157703327  0.11250323171092447  0.6966845883350814  1.0000
  H   H31       1.0  0.49180003452844545  0.1125009126153529  0.30331464522281226  1.0000
  H   H32       1.0  0.9917719109100175  0.8875200530438436  0.19664024654390738  1.0000
  C   C1        1.0  0.9270914025537921  0.15250002755892209  0.8522467534099931  1.0000
  C   C2        1.0  0.4270964273924136  0.8474918869716677  0.6477945457929337  1.0000
  C   C3        1.0  0.5729015483441842  0.8474894181700067  0.35220492812349846  1.0000
  C   C4        1.0  0.0729066436508319  0.15249964559519213  0.1477539305947317  1.0000
  C   C5        1.0  0.8777671588714709  0.3504912598457537  0.8446232210904724  1.0000
  C   C6        1.0  0.3777981038927933  0.6494963039602125  0.6554197792493069  1.0000
  C   C7        1.0  0.6221983455968355  0.6494938548210597  0.3445802493489438  1.0000
  C   C8        1.0  0.12223241356831951  0.35048794991838156  0.1553773962083724  1.0000
  C   C9        1.0  0.8651229619078861  0.4301371380687868  0.7820425260884605  1.0000
  C   C10       1.0  0.3651522825722608  0.5698417191858952  0.7179946793943301  1.0000
  C   C11       1.0  0.634847267643586  0.5698394547286513  0.2820048880578554  1.0000
  C   C12       1.0  0.13487814878300242  0.43013509315759535  0.2179575764000106  1.0000
  C   C13       1.0  0.9047394609662831  0.31557656207982643  0.7272390675115046  1.0000
  C   C14       1.0  0.40475516200126554  0.6844080976960855  0.7727959955301528  1.0000
  C   C15       1.0  0.5952459229236737  0.6844074492122446  0.22720304534698238  1.0000
  C   C16       1.0  0.09526320766164531  0.3155758083404764  0.27276107356814083  1.0000
  C   C17       1.0  0.9600479589049159  0.1210073037198569  0.734598102959616  1.0000
  C   C18       1.0  0.4600454580576994  0.8789744503193261  0.7654430377241184  1.0000
  C   C19       1.0  0.5399556071200848  0.8789723321162484  0.2345564255784325  1.0000
  C   C20       1.0  0.0399547294457534  0.12100657507822633  0.265402591643813  1.0000
  C   C21       1.0  0.9702041372743366  0.040287524064716314  0.7969509202747461  1.0000
  C   C22       1.0  0.47019397135676405  0.9597087415582737  0.7030896835942428  1.0000
  C   C23       1.0  0.5298070856323135  0.9597035367444419  0.29690975250968415  1.0000
  C   C24       1.0  0.0297985592637886  0.0402855295842528  0.2030498015231501  1.0000
  C   C25       1.0  0.9115399801628569  0.05745816672590821  0.9176470325232627  1.0000
  C   C26       1.0  0.41149419658038505  0.9425366511803758  0.5823865340284086  1.0000
  C   C27       1.0  0.5885068621380042  0.9425325364015507  0.4176133958345575  1.0000
  C   C28       1.0  0.0884611683287915  0.0574565264251916  0.0823531955195662  1.0000
  C   C29       1.0  0.8542493218110965  0.4869753937109209  0.9012243334226469  1.0000
  C   C30       1.0  0.35419965502268264  0.5130136227340927  0.5988060929207251  1.0000
  C   C31       1.0  0.6457952620179982  0.5130095532051939  0.4011930057141484  1.0000
  C   C32       1.0  0.1457517831146049  0.486975152553491  0.0987757499168822  1.0000
  O   O1        1.0  0.0214300489321104  0.9024680056150061  0.9256742513376466  1.0000
  O   O2        1.0  0.521372654082107  0.0975166769983389  0.5743416729255983  1.0000
  O   O3        1.0  0.478626944041693  0.09751254491757073  0.4256580536517872  1.0000
  O   O4        1.0  0.9785679212035133  0.9024648849216279  0.0743261800055777  1.0000
  O   O5        1.0  0.7902751720335458  0.12613558259362634  0.9594017828163712  1.0000
  O   O6        1.0  0.2901866728048432  0.8738200595993462  0.540648470336059  1.0000
  O   O7        1.0  0.7098113002613856  0.8738158139174032  0.45935099471078894  1.0000
  O   O8        1.0  0.20972751578460697  0.12613405881175052  0.0405993980334785  1.0000
  O   O9        1.0  0.0214870741128976  0.5180227431553489  0.9338659352876135  1.0000
  O   O10       1.0  0.5213759354458034  0.4819880614030582  0.5661431571903606  1.0000
  O   O11       1.0  0.47861898477912496  0.48198100259291  0.4338544879754735  1.0000
  O   O12       1.0  0.9785140276636  0.5180240003970767  0.0661341375919093  1.0000
  O   O13       1.0  0.685771600582079  0.5730965060559186  0.911795216667329  1.0000
  O   O14       1.0  0.1856946446736458  0.4269288008171941  0.5882789619161598  1.0000
  O   O15       1.0  0.8143018273535814  0.4269304949373948  0.41172260558568036  1.0000
  O   O16       1.0  0.31423104190082535  0.5730962861982647  0.08820581360251369  1.0000
  O   O17       1.0  0.3858056398802745  0.312689799027666  0.9327339698872238  1.0000
  O   O18       1.0  0.8857454514078427  0.6873645204168428  0.5672728819159616  1.0000
  O   O19       1.0  0.1142540868627648  0.6873647427236448  0.43272762189069874  1.0000
  O   O20       1.0  0.614195482710798  0.31268962337234296  0.06726666014257889  1.0000
  O   O21       1.0  0.43926801330916015  0.898166572278363  0.9315162475741231  1.0000
  O   O22       1.0  0.9392387487354483  0.1018558171737496  0.5684898590029162  1.0000
  O   O23       1.0  0.060760848985268005  0.10185459505439104  0.4315084021901754  1.0000
  O   O24       1.0  0.5607315035798449  0.8981663961958047  0.06848418521403228  1.0000
