data_image0
_chemical_formula_structural       CrH16C8Br2O2
_chemical_formula_sum              "Cr1 H16 C8 Br2 O2"
_cell_length_a       4.057880188590869
_cell_length_b       7.415038175870346
_cell_length_c       9.196099700701156
_cell_angle_alpha    87.40746149149662
_cell_angle_beta     78.73426486735474
_cell_angle_gamma    87.13406618097642

_space_group_name_H-M_alt    "P 1"
_space_group_IT_number       1

loop_
  _space_group_symop_operation_xyz
  'x, y, z'

loop_
  _atom_site_type_symbol
  _atom_site_label
  _atom_site_symmetry_multiplicity
  _atom_site_fract_x
  _atom_site_fract_y
  _atom_site_fract_z
  _atom_site_occupancy
  Cr  Cr1       1.0  0.4999972368928385  0.5000024261762731  0.4999992377644418  1.0000
  H   H1        1.0  0.41088778325785574  0.4711871266988156  0.8503137560430148  1.0000
  H   H2        1.0  0.5891120301495009  0.5288136653206337  0.14968548119202293  1.0000
  H   H3        1.0  0.005522958385604695  0.5703356482815992  0.8393177669895948  1.0000
  H   H4        1.0  0.9944769618363553  0.4296637880113963  0.16068259423479253  1.0000
  H   H5        1.0  0.01035383844732253  0.9555785437204631  0.8336857529901138  1.0000
  H   H6        1.0  0.9896460817746373  0.044420892572532  0.16631460823428057  1.0000
  H   H7        1.0  0.3971567549027456  0.038936195828931396  0.8575212883648148  1.0000
  H   H8        1.0  0.6028407592908067  0.9610618858635006  0.14248041468384542  1.0000
  H   H9        1.0  0.5773538886497888  0.742485958633047  0.9523663330966629  1.0000
  H   H10       1.0  0.4226460315721782  0.2575134776599483  0.04763402812772449  1.0000
  H   H11       1.0  0.1448526249407465  0.7504698490479311  0.03532339769533621  1.0000
  H   H12       1.0  0.8551472952812134  0.24952958724506397  0.9646769635290511  1.0000
  H   H13       1.0  0.3176213187462695  0.9164071815645939  0.5866155466988018  1.0000
  H   H14       1.0  0.6823810140123002  0.08359360023093389  0.41338564729338867  1.0000
  H   H15       1.0  0.7110498758387679  0.8828679575323831  0.6462360347976811  1.0000
  H   H16       1.0  0.2889500476372931  0.11713147421159678  0.3537654137227406  1.0000
  C   C1        1.0  0.2720023822533406  0.598276466755948  0.8320866475087385  1.0000
  C   C2        1.0  0.7279975379686191  0.40172296953705455  0.1679137137156488  1.0000
  C   C3        1.0  0.2779450056346704  0.9193299823289678  0.829018394468406  1.0000
  C   C4        1.0  0.722055018147806  0.0806681027865963  0.17098200344929643  1.0000
  C   C5        1.0  0.32190794021764196  0.7518643227434296  0.9285093174727307  1.0000
  C   C6        1.0  0.678091980004325  0.24813511354956566  0.07149104375165649  1.0000
  C   C7        1.0  0.44107938540538083  0.8585323440251713  0.6749299632445016  1.0000
  C   C8        1.0  0.5589229440990877  0.1414684423193719  0.3250701434516543  1.0000
  Br  Br1       1.0  0.11521382013260252  0.7062112751348478  0.3720105988172905  1.0000
  Br  Br2       1.0  0.8847832733107099  0.29379222036534697  0.6279887828660337  1.0000
  O   O1        1.0  0.4052229837547685  0.6621736682577293  0.6808005701070243  1.0000
  O   O2        1.0  0.5947743200636638  0.33782712033858786  0.3191999722589642  1.0000
