data_image0
_chemical_formula_structural       Cu2H16C24Br2N4
_chemical_formula_sum              "Cu2 H16 C24 Br2 N4"
_cell_length_a       3.840048278821902
_cell_length_b       10.033268917552745
_cell_length_c       13.7320017968015
_cell_angle_alpha    104.30754022642235
_cell_angle_beta     93.91740708365732
_cell_angle_gamma    96.72253615261046

_space_group_name_H-M_alt    "P 1"
_space_group_IT_number       1

loop_
  _space_group_symop_operation_xyz
  'x, y, z'

loop_
  _atom_site_type_symbol
  _atom_site_label
  _atom_site_symmetry_multiplicity
  _atom_site_fract_x
  _atom_site_fract_y
  _atom_site_fract_z
  _atom_site_occupancy
  Cu  Cu1       1.0  0.2092261978775909  0.1209753752414002  0.5340550530389123  1.0000
  Cu  Cu2       1.0  0.7907892613594428  0.8790247491650975  0.46594063602245933  1.0000
  H   H1        1.0  0.5690373774444666  0.874440402644282  0.023457578986871355  1.0000
  H   H2        1.0  0.43092787755704615  0.12556578896285225  0.9765375806619829  1.0000
  H   H3        1.0  0.8774267000234273  0.9892119093058508  0.9050593042114131  1.0000
  H   H4        1.0  0.12255654901952787  0.0107932835777191  0.0949403687633108  1.0000
  H   H5        1.0  0.933876881595637  0.846576448842171  0.729537249886775  1.0000
  H   H6        1.0  0.06613148902023618  0.1534257026415133  0.2704645073037  1.0000
  H   H7        1.0  0.8086855438056942  0.6190212189708786  0.6025879469744666  1.0000
  H   H8        1.0  0.19134595338345406  0.3809716316325619  0.3974212668112003  1.0000
  H   H9        1.0  0.5514038822079924  0.3688265467232981  0.5563681453415938  1.0000
  H   H10       1.0  0.4486387011511183  0.6311684363171323  0.4436365623284289  1.0000
  H   H11       1.0  0.9243523857317015  0.0762243422041706  0.7103509950660367  1.0000
  H   H12       1.0  0.07564184808181555  0.9237746673474163  0.2896462893122305  1.0000
  H   H13       1.0  0.8633724212158213  0.21154326248034744  0.8869373231942747  1.0000
  H   H14       1.0  0.13661624227547972  0.7884546917721451  0.11305966692852111  1.0000
  H   H15       1.0  0.14090188065778614  0.4602158735173915  0.9447813159128557  1.0000
  H   H16       1.0  0.8590822605945546  0.5397841348973031  0.05521742448943457  1.0000
  C   C1        1.0  0.5938786017372166  0.8147507991164674  0.9465258966297087  1.0000
  C   C2        1.0  0.40607645152165617  0.18524807870462467  0.053472108758569385  1.0000
  C   C3        1.0  0.7669359239967476  0.8798856368717551  0.8799935254039964  1.0000
  C   C4        1.0  0.23303422854502293  0.12011952666085078  0.1200029914896774  1.0000
  C   C5        1.0  0.7971323771442298  0.8020761184286016  0.7836180676710639  1.0000
  C   C6        1.0  0.20285405635585363  0.19792285042568378  0.2163827088066697  1.0000
  C   C7        1.0  0.6722291068799959  0.5734902783901603  0.6563127991912266  1.0000
  C   C8        1.0  0.3278023591808932  0.42650258469258506  0.3436935033792495  1.0000
  C   C9        1.0  0.5306453042422558  0.43661712160727006  0.6307236958492055  1.0000
  C   C10       1.0  0.4694011363559341  0.5633737207774913  0.3692810523344718  1.0000
  C   C11       1.0  0.0411543406421728  0.1847871972494843  0.7382163696101429  1.0000
  C   C12       1.0  0.9588428737651568  0.8152128498756637  0.26178334346180065  1.0000
  C   C13       1.0  0.008862394318484214  0.2602841305265287  0.8366786620312753  1.0000
  C   C14       1.0  0.991137761772343  0.7397169697713223  0.1633198407153671  1.0000
  C   C15       1.0  0.1562983697321201  0.39821230545062747  0.8686070548040661  1.0000
  C   C16       1.0  0.8436812414991977  0.6017897602461062  0.1313927080739177  1.0000
  C   C17       1.0  0.3305138488148316  0.4596891255252087  0.8005837179940087  1.0000
  C   C18       1.0  0.669484038374442  0.5403130049735694  0.19941493208858668  1.0000
  C   C19       1.0  0.48218371974192553  0.6045763491651002  0.827933955340221  1.0000
  C   C20       1.0  0.517795883707329  0.3954257196514632  0.17206507973396867  1.0000
  C   C21       1.0  0.6517722042399682  0.6605849000017228  0.7548664997287275  1.0000
  C   C22       1.0  0.3482328571731799  0.33941516910176256  0.24513408806652848  1.0000
  C   C23       1.0  0.35452475322920657  0.37691954454718507  0.7014718069800949  1.0000
  C   C24       1.0  0.6454875057540048  0.6230784538015327  0.29853290193921816  1.0000
  Br  Br1       1.0  0.6846010848350234  0.118247485085945  0.42191520486159123  1.0000
  Br  Br2       1.0  0.3154310853686368  0.8817558052178497  0.5780813669661669  1.0000
  N   N1        1.0  0.4560312535612424  0.6818332066964741  0.9226438990495538  1.0000
  N   N2        1.0  0.5439385625895596  0.3181709151493237  0.0773531493387978  1.0000
  N   N3        1.0  0.21094373034659944  0.2394694396148082  0.6718848636520248  1.0000
  N   N4        1.0  0.7890665494336486  0.760530649340623  0.32811509428578484  1.0000
