data_image0
_chemical_formula_structural       Zn24H132C144N108O24
_chemical_formula_sum              "Zn24 H132 C144 N108 O24"
_cell_length_a       17.94328595201061
_cell_length_b       27.172148263939633
_cell_length_c       27.172163663267536
_cell_angle_alpha    120.00034019259888
_cell_angle_beta     90.0000455629029
_cell_angle_gamma    89.99987702146235

_space_group_name_H-M_alt    "P 1"
_space_group_IT_number       1

loop_
  _space_group_symop_operation_xyz
  'x, y, z'

loop_
  _atom_site_type_symbol
  _atom_site_label
  _atom_site_symmetry_multiplicity
  _atom_site_fract_x
  _atom_site_fract_y
  _atom_site_fract_z
  _atom_site_occupancy
  Zn  Zn1       1.0  0.5782674238829201  0.8880176986901276  0.3328167886054697  1.0000
  Zn  Zn2       1.0  0.57826633823759  0.44479856538207224  0.11198349150051701  1.0000
  Zn  Zn3       1.0  0.5782668006249025  0.6671837867334675  0.5552027816219435  1.0000
  Zn  Zn4       1.0  0.07826793382884029  0.11198169705976108  0.6671835057370643  1.0000
  Zn  Zn5       1.0  0.0782662329152473  0.5552016233525094  0.8880167459116634  1.0000
  Zn  Zn6       1.0  0.07826632783991977  0.33281618952229053  0.44479766826832184  1.0000
  Zn  Zn7       1.0  0.42173266858323183  0.3328164912465964  0.8880197144308467  1.0000
  Zn  Zn8       1.0  0.42173554754855747  0.11198257264554465  0.44479851058746783  1.0000
  Zn  Zn9       1.0  0.42173384756507193  0.555202849714263  0.6671844675135716  1.0000
  Zn  Zn10      1.0  0.9217326100442518  0.667183748194816  0.1119805948092746  1.0000
  Zn  Zn11      1.0  0.9217341895702589  0.8880182472965786  0.5552019541995746  1.0000
  Zn  Zn12      1.0  0.9217325456854581  0.4447973897262898  0.3328158417264148  1.0000
  Zn  Zn13      1.0  0.4217328942877856  0.11198143216216744  0.6671834638774711  1.0000
  Zn  Zn14      1.0  0.4217356518657097  0.555202250050364  0.8880180206065375  1.0000
  Zn  Zn15      1.0  0.4217335175449576  0.33281592462298454  0.44479762640845877  1.0000
  Zn  Zn16      1.0  0.9217301550936128  0.8880188072809646  0.3328168453629273  1.0000
  Zn  Zn17      1.0  0.9217357571897434  0.4447970408564074  0.11198176505975244  1.0000
  Zn  Zn18      1.0  0.9217328757068939  0.6671835218350209  0.5552027397622153  1.0000
  Zn  Zn19      1.0  0.578269321522228  0.667182950699143  0.11198169905943435  1.0000
  Zn  Zn20      1.0  0.5782664425554954  0.8880175067353734  0.5552022654683524  1.0000
  Zn  Zn21      1.0  0.5782659132919504  0.4447976546251695  0.3328158835862141  1.0000
  Zn  Zn22      1.0  0.07826715081238689  0.33281613395515564  0.8880174342754116  1.0000
  Zn  Zn23      1.0  0.07826668590971049  0.11198210149462541  0.44479781639629573  1.0000
  Zn  Zn24      1.0  0.0782666578595652  0.5552033270919593  0.6671842968952786  1.0000
  H   H1        1.0  0.4383978452555936  0.8521576671827374  0.2501940451759947  1.0000
  H   H2        1.0  0.6719396241360086  0.989024463759911  0.33407991909513857  1.0000
  H   H3        1.0  0.4273179656893617  0.8854619610146841  0.39167098803005707  1.0000
  H   H4        1.0  0.5330999695739463  0.9464971173490824  0.2540636889386291  1.0000
  H   H5        1.0  0.43839238980925893  0.3980389970189507  0.147845161240923  1.0000
  H   H6        1.0  0.6719415892494991  0.3450572819054543  0.010975511293004527  1.0000
  H   H7        1.0  0.4273172998906104  0.5062114206526047  0.11454102967991273  1.0000
  H   H8        1.0  0.5331003280348836  0.3075687976425883  0.05350455402675889  1.0000
  H   H9        1.0  0.4383943208773147  0.7498065710685752  0.6019625177211693  1.0000
  H   H10       1.0  0.6719420122890296  0.665920000706933  0.6549456847869378  1.0000
  H   H11       1.0  0.42731401776264016  0.6083289154600706  0.493792146355119  1.0000
  H   H12       1.0  0.5331011148375352  0.7459360956923362  0.692433715954969  1.0000
  H   H13       1.0  0.9383957770001243  0.14784206466634933  0.749807477940486  1.0000
  H   H14       1.0  0.17194268936793117  0.01097389589963162  0.6659190358595807  1.0000
  H   H15       1.0  0.9273186223926186  0.11453826981085063  0.6083293198485649  1.0000
  H   H16       1.0  0.033101320878515084  0.05350372155771778  0.7459367150300906  1.0000
  H   H17       1.0  0.9383917581476593  0.601961854160443  0.8521545065040143  1.0000
  H   H18       1.0  0.17194295349666788  0.6549436122473651  0.9890238533731476  1.0000
  H   H19       1.0  0.9273165016332922  0.49378902265347335  0.8854590657209015  1.0000
  H   H20       1.0  0.0331015197298541  0.692431305212267  0.9464951138906557  1.0000
  H   H21       1.0  0.9383914990143578  0.25019459120425575  0.39803831103111514  1.0000
  H   H22       1.0  0.17194197314599788  0.3340815156357806  0.3450560018943775  1.0000
  H   H23       1.0  0.9273153252684236  0.39167241944832654  0.5062092656012425  1.0000
  H   H24       1.0  0.033101290238725795  0.2540640071620857  0.307565951962374  1.0000
  H   H25       1.0  0.5616045975543853  0.2501915783315523  0.8521571332298236  1.0000
  H   H26       1.0  0.32805813455687627  0.334079683403651  0.9890235278480687  1.0000
  H   H27       1.0  0.5726809546117051  0.3916711401232646  0.885461855206131  1.0000
  H   H28       1.0  0.46689902898649643  0.2540652805258715  0.9464984799522184  1.0000
  H   H29       1.0  0.5616078351794156  0.1478451107790235  0.39803938977522785  1.0000
  H   H30       1.0  0.32806105902175625  0.010976747013778241  0.34505818263160387  1.0000
  H   H31       1.0  0.5726839632017613  0.11454090324866682  0.5062117091655693  1.0000
  H   H32       1.0  0.46689952852975836  0.05350412610218307  0.30756973264445964  1.0000
  H   H33       1.0  0.5616084243236302  0.6019615733869941  0.7498057656050036  1.0000
  H   H34       1.0  0.3280579779395295  0.6549449638781013  0.6659202802507166  1.0000
  H   H35       1.0  0.5726856387230227  0.4937913194182499  0.6083287466300006  1.0000
  H   H36       1.0  0.46689875529476393  0.6924334496237848  0.7459363604805843  1.0000
  H   H37       1.0  0.061601859221212876  0.7498063140892057  0.1478424860540882  1.0000
  H   H38       1.0  0.8280585163443346  0.66592038943579  0.01097564321751301  1.0000
  H   H39       1.0  0.07268142170921268  0.6083292697047327  0.11453817108925789  1.0000
  H   H40       1.0  0.9669014315189982  0.7459362627311634  0.053501916895129384  1.0000
  H   H41       1.0  0.06160809589044898  0.8521540981900984  0.6019611211062353  1.0000
  H   H42       1.0  0.8280589357517057  0.9890225175948119  0.6549440048138067  1.0000
  H   H43       1.0  0.07268287161132037  0.8854595065758916  0.49378831712927246  1.0000
  H   H44       1.0  0.9669003746645897  0.9464970491295261  0.6924302961773419  1.0000
  H   H45       1.0  0.061608064056912284  0.39803821608585827  0.250194900823864  1.0000
  H   H46       1.0  0.8280558864047405  0.3450552075798186  0.3340802643009083  1.0000
  H   H47       1.0  0.07268565458383588  0.5062077738472013  0.3916703880655986  1.0000
  H   H48       1.0  0.9668983613437728  0.3075667201491328  0.254063937750395  1.0000
  H   H49       1.0  0.5616030302266352  0.1478414636691312  0.7498062073068752  1.0000
  H   H50       1.0  0.32805957941118885  0.010974879571648328  0.6659201209097816  1.0000
  H   H51       1.0  0.5726823524800222  0.11453796282016539  0.6083292075221891  1.0000
  H   H52       1.0  0.466900348596667  0.05350185795585824  0.7459359830405319  1.0000
  H   H53       1.0  0.561609042983079  0.6019607712676701  0.8521544538074152  1.0000
  H   H54       1.0  0.32805928623112374  0.6549421752868696  0.9890229427478586  1.0000
  H   H55       1.0  0.5726830182786884  0.493788347634883  0.8854585853685676  1.0000
  H   H56       1.0  0.46690110475811497  0.6924310692603727  0.9464964345072813  1.0000
  H   H57       1.0  0.5616076692257933  0.25019393326913797  0.3980378333783392  1.0000
  H   H58       1.0  0.328058305878855  0.334081395230946  0.34505598286779093  1.0000
  H   H59       1.0  0.5726863004063745  0.39167137640053795  0.5062084172227442  1.0000
  H   H60       1.0  0.4668986460202403  0.2540636725955778  0.3075658990935749  1.0000
  H   H61       1.0  0.061601197300426194  0.8521583258131712  0.25019445912348437  1.0000
  H   H62       1.0  0.8280565141783142  0.9890258723887158  0.33408057918903455  1.0000
  H   H63       1.0  0.07268058115288059  0.8854622345290154  0.39167103125128466  1.0000
  H   H64       1.0  0.9668978826672612  0.9464962592090203  0.25406268754036876  1.0000
  H   H65       1.0  0.06160911733202569  0.3980390182038889  0.1478462126212462  1.0000
  H   H66       1.0  0.8280590366057792  0.3450567934740079  0.010975124240658739  1.0000
  H   H67       1.0  0.07268325922278508  0.5062119066427471  0.11454086042257211  1.0000
  H   H68       1.0  0.9669004703724932  0.30756894496174425  0.053503283219384835  1.0000
  H   H69       1.0  0.06160714722008719  0.7498057006576389  0.6019622525469613  1.0000
  H   H70       1.0  0.8280583450215102  0.6659202483278649  0.6549460337859684  1.0000
  H   H71       1.0  0.07268610752315398  0.6083280848898126  0.4937910854983299  1.0000
  H   H72       1.0  0.9668984706186732  0.7459361291515876  0.6924340311117871  1.0000
  H   H73       1.0  0.4383979498643882  0.7498058679375958  0.14784185962851376  1.0000
  H   H74       1.0  0.6719416262999471  0.6659205098410509  0.01097566224416356  1.0000
  H   H75       1.0  0.42731880624569374  0.6083289961904016  0.11453812786803029  1.0000
  H   H76       1.0  0.5331018464915899  0.7459369083941213  0.05350313077175151  1.0000
  H   H77       1.0  0.43839304030205983  0.8521547561243639  0.6019615987588763  1.0000
  H   H78       1.0  0.6719420457068492  0.98902285047847  0.654943811362308  1.0000
  H   H79       1.0  0.42731579765572997  0.8854593886123682  0.49378885441236503  1.0000
  H   H80       1.0  0.5331013469525698  0.9464951602970544  0.6924311003421834  1.0000
  H   H81       1.0  0.4383918938465143  0.39803761439633684  0.2501936938960084  1.0000
  H   H82       1.0  0.6719395536700856  0.3450563334455907  0.3340800139186512  1.0000
  H   H83       1.0  0.42731412213483816  0.5062086044170327  0.3916714489223167  1.0000
  H   H84       1.0  0.5331010055630115  0.3075663186641223  0.25406325456796  1.0000
  H   H85       1.0  0.9383951150814976  0.2501917126883981  0.8521566623523923  1.0000
  H   H86       1.0  0.17194124451239648  0.33407964826154324  0.9890229663709533  1.0000
  H   H87       1.0  0.9273183391473334  0.3916714471130902  0.8854619675323718  1.0000
  H   H88       1.0  0.033101673208562894  0.25406261395528407  0.9464963815979884  1.0000
  H   H89       1.0  0.9383911076558957  0.14784582564560372  0.3980390744461459  1.0000
  H   H90       1.0  0.17194361166745148  0.010975550863797371  0.345057310059623  1.0000
  H   H91       1.0  0.9273168892456027  0.11454084221617218  0.506211453466733  1.0000
  H   H92       1.0  0.033099943504233  0.05350293163634486  0.30756910639298235  1.0000
  H   H93       1.0  0.9383928114214513  0.601963449261021  0.749805761370716  1.0000
  H   H94       1.0  0.17194164520619634  0.6549452967613263  0.6659200867991472  1.0000
  H   H95       1.0  0.9273152208965099  0.4937922069182434  0.6083290145046546  1.0000
  H   H96       1.0  0.033100842202571784  0.6924332036865763  0.7459362578019862  1.0000
  H   H97       1.0  0.6380860409240796  0.7644033801931728  0.23559575191901397  1.0000
  H   H98       1.0  0.6380815005468321  0.47119147564033886  0.2355962714359804  1.0000
  H   H99       1.0  0.6380823154900026  0.7644041232875836  0.5288075334800126  1.0000
  H   H100      1.0  0.13808180805634857  0.23559619269949655  0.7644035223832901  1.0000
  H   H101      1.0  0.13808133263093939  0.5288078278467766  0.7644040083270197  1.0000
  H   H102      1.0  0.13808163231043122  0.23559455800921103  0.4711904242677533  1.0000
  H   H103      1.0  0.36191650649102053  0.2355969116657165  0.7644048116585792  1.0000
  H   H104      1.0  0.36191800267918944  0.23559548945253544  0.47119150106468766  1.0000
  H   H105      1.0  0.361918817622275  0.5288089717676314  0.764404872645663  1.0000
  H   H106      1.0  0.8619134943083961  0.7644041560960061  0.23559624821326236  1.0000
  H   H107      1.0  0.8619175712361976  0.7644048422533699  0.5288088227552377  1.0000
  H   H108      1.0  0.8619184282276817  0.47119135993698075  0.23559545117405625  1.0000
  H   H109      1.0  0.6487696253384029  0.8894903457779932  0.4447467156835214  1.0000
  H   H110      1.0  0.6487705242579763  0.5552532446394663  0.11050931581669217  1.0000
  H   H111      1.0  0.6487668234116484  0.5552550376391068  0.4447453198698596  1.0000
  H   H112      1.0  0.14877000588013797  0.11050936617903763  0.5552531365178907  1.0000
  H   H113      1.0  0.14876966427170396  0.44474683534289733  0.8894909044102659  1.0000
  H   H114      1.0  0.14876779200149304  0.44474583533010303  0.555254843427086  1.0000
  H   H115      1.0  0.3512292365990461  0.44474725969995893  0.889491035283086  1.0000
  H   H116      1.0  0.35123125014251133  0.11050957805642272  0.5552534798686608  1.0000
  H   H117      1.0  0.3512329374452746  0.44474531115296406  0.5552544507261459  1.0000
  H   H118      1.0  0.8512300965857874  0.5552534565181446  0.11050965916766829  1.0000
  H   H119      1.0  0.8512291976657379  0.889490770135062  0.44474684655634167  1.0000
  H   H120      1.0  0.851233083478  0.5552547259394984  0.4447447146906284  1.0000
  H   H121      1.0  0.5000001406655697  0.9999968487118664  0.4271418789842441  1.0000
  H   H122      1.0  0.49999914155651476  0.4271433377140923  1.0575472515013211e-06  1.0000
  H   H123      1.0  0.499999805964265  0.5728578373159579  0.5728579456590096  1.0000
  H   H124      1.0  3.433582876000001e-07  4.041252346010209e-06  0.5728585330526598  1.0000
  H   H125      1.0  0.9999982241977744  0.5728575739843863  0.9999991756849268  1.0000
  H   H126      1.0  0.9999997890385612  0.42714117732097634  0.4271412404267211  1.0000
  H   H127      1.0  0.5000001775078714  8.517227030918722e-07  0.5728590678638383  1.0000
  H   H128      1.0  0.5000000199107218  0.5728594303116168  3.3470267197860105e-06  1.0000
  H   H129      1.0  0.5000005122066326  0.42714061441585466  0.4271407777907611  1.0000
  H   H130      1.0  0.999999974810059  0.9999961519919226  0.42714065703950854  1.0000
  H   H131      1.0  4.6411436469999967e-07  0.427140511122687  0.9999965414370918  1.0000
  H   H132      1.0  1.9741924009999973e-07  0.5728584002202197  0.5728584082948415  1.0000
  C   C1        1.0  0.48015556852269  0.8189038170533607  0.23176526604588316  1.0000
  C   C2        1.0  0.7111242465955101  0.9585324723827638  0.33394770462818685  1.0000
  C   C3        1.0  0.47346448787114076  0.8868796671636473  0.41811865954410615  1.0000
  C   C4        1.0  0.5164502704854071  0.9734746527783144  0.29805476049931895  1.0000
  C   C5        1.0  0.48014783684853046  0.4128639859414848  0.18109458428332903  1.0000
  C   C6        1.0  0.7111255740870489  0.3754161714544466  0.04146742619614221  1.0000
  C   C7        1.0  0.47346599633186753  0.5312399846396261  0.11312202347299657  1.0000
  C   C8        1.0  0.5164500452548139  0.324581391232833  0.02652733669300733  1.0000
  C   C9        1.0  0.4801508478877067  0.7682311318303761  0.5871372297561165  1.0000
  C   C10       1.0  0.7111248950397523  0.6660527993950255  0.6245861825023695  1.0000
  C   C11       1.0  0.4734611115835818  0.5818808539689259  0.46876220455108336  1.0000
  C   C12       1.0  0.5164509369427605  0.7019457357875256  0.6754208732757546  1.0000
  C   C13       1.0  0.9801517425891785  0.1810925950849409  0.7682321416799098  1.0000
  C   C14       1.0  0.21112721310195326  0.041467355868576306  0.6660519198958852  1.0000
  C   C15       1.0  0.9734651174684144  0.11311969949828442  0.5818816940170493  1.0000
  C   C16       1.0  0.016451099227950298  0.02652621181106705  0.7019456475278076  1.0000
  C   C17       1.0  0.980148328026779  0.5871371688549659  0.8189054413092549  1.0000
  C   C18       1.0  0.21112588561012297  0.6245831901548087  0.9585304568166106  1.0000
  C   C19       1.0  0.9734641663156295  0.46876139294376173  0.8868777912704076  1.0000
  C   C20       1.0  0.016451324459289696  0.675418737305037  0.9734723352828778  1.0000
  C   C21       1.0  0.9801492181710925  0.2317687480926978  0.4128640707049128  1.0000
  C   C22       1.0  0.21112600734392828  0.3339492370112964  0.3754156501754834  1.0000
  C   C23       1.0  0.9734623633262272  0.41812046668858455  0.5312384031750594  1.0000
  C   C24       1.0  0.016451547395710996  0.29805359976693074  0.3245788556306906  1.0000
  C   C25       1.0  0.5198452551723846  0.2317652557768214  0.8189053342357724  1.0000
  C   C26       1.0  0.2888735433986084  0.33394635435578107  0.9585312833688845  1.0000
  C   C27       1.0  0.5265344039508904  0.4181184473484621  0.8868800364556932  1.0000
  C   C28       1.0  0.4835475409205115  0.2980551423251967  0.9734764786437253  1.0000
  C   C29       1.0  0.5198517816938306  0.18109443509152356  0.4128638368553083  1.0000
  C   C30       1.0  0.2888764546794604  0.04146907650520149  0.37541746378747115  1.0000
  C   C31       1.0  0.5265363572526169  0.11312182910405262  0.5312389214298676  1.0000
  C   C32       1.0  0.48354926418423344  0.026525394972061585  0.32458081620177376  1.0000
  C   C33       1.0  0.5198518936345664  0.587136304543364  0.7682303441289305  1.0000
  C   C34       1.0  0.2888740114583115  0.6245862096448674  0.6660538384045294  1.0000
  C   C35       1.0  0.5265391548252653  0.4687627264680074  0.5818816284771913  1.0000
  C   C36       1.0  0.48354843822573185  0.6754211763549378  0.7019461680675291  1.0000
  C   C37       1.0  0.019842496942878495  0.7682351786217723  0.18109549792057308  1.0000
  C   C38       1.0  0.7888739613088943  0.6660529290123378  0.04146874716050046  1.0000
  C   C39       1.0  0.02653495511329139  0.5818822461389814  0.11311978860969409  1.0000
  C   C40       1.0  0.983548939144846  0.7019457378170841  0.026524551580159473  1.0000
  C   C41       1.0  0.019851017834596998  0.8189044702614012  0.5871363161786574  1.0000
  C   C42       1.0  0.7888743938982116  0.9585299374509192  0.6245835722015938  1.0000
  C   C43       1.0  0.026534673746880295  0.8868781283305863  0.4687601675840795  1.0000
  C   C44       1.0  0.9835500024377022  0.9734757545774996  0.6754192085616848  1.0000
  C   C45       1.0  0.019851463203686096  0.41286376181743384  0.23177011999989353  1.0000
  C   C46       1.0  0.7888729359338952  0.3754157637660569  0.3339471823404096  1.0000
  C   C47       1.0  0.026538563912119197  0.5312375989872322  0.41811782856156293  1.0000
  C   C48       1.0  0.9835474845278181  0.32457923714567727  0.2980531206450933  1.0000
  C   C49       1.0  0.5198469788972061  0.18109252513851717  0.7682326227355958  1.0000
  C   C50       1.0  0.2888743996401572  0.041466870949214835  0.6660523353767971  1.0000
  C   C51       1.0  0.5265352729881412  0.11311961923644286  0.581882173442672  1.0000
  C   C52       1.0  0.48354893306188257  0.02652484610059958  0.7019458600093741  1.0000
  C   C53       1.0  0.5198524813216067  0.5871352018418464  0.8189048752176757  1.0000
  C   C54       1.0  0.2888758587059428  0.6245827052333014  0.9585308722971817  1.0000
  C   C55       1.0  0.5265348791485704  0.46876015167318724  0.8868779596010297  1.0000
  C   C56       1.0  0.48355138753696264  0.6754194242000366  0.9734741754141182  1.0000
  C   C57       1.0  0.5198494702830985  0.23176815456928784  0.41286360323059057  1.0000
  C   C58       1.0  0.28887486581614036  0.3339488090216777  0.37541527267426733  1.0000
  C   C59       1.0  0.5265386492746629  0.4181187018405907  0.5312376229756096  1.0000
  C   C60       1.0  0.48354826660480643  0.2980532395182678  0.32457879870354833  1.0000
  C   C61       1.0  0.019842445154878895  0.8189057011042351  0.23176600126683394  1.0000
  C   C62       1.0  0.7888731050673385  0.9585324124189044  0.33394769515259515  1.0000
  C   C63       1.0  0.026533528766783793  0.886879856312092  0.418118133509786  1.0000
  C   C64       1.0  0.9835475470064021  0.973473924503459  0.29805433554648864  1.0000
  C   C65       1.0  0.0198519901410066  0.4128640715355516  0.18109564584170093  1.0000
  C   C66       1.0  0.7888738752465085  0.375416691995163  0.041467572268082516  1.0000
  C   C67       1.0  0.026535594540348494  0.5312393808050898  0.11312155436929315  1.0000
  C   C68       1.0  0.9835506656451257  0.3245799838349086  0.026525382706608917  1.0000
  C   C69       1.0  0.019850542687343892  0.7682311188115492  0.5871369178293262  1.0000
  C   C70       1.0  0.7888748681337814  0.6660533199344556  0.6245863285741036  1.0000
  C   C71       1.0  0.026538512152420392  0.5818806750851663  0.46876131049013015  1.0000
  C   C72       1.0  0.9835470988395795  0.7019461115908071  0.6754215523999177  1.0000
  C   C73       1.0  0.4801561776209906  0.7682342431003804  0.1810952862726438  1.0000
  C   C74       1.0  0.7111267747712516  0.6660533570006706  0.04146912466151761  1.0000
  C   C75       1.0  0.4734653569074466  0.5818812640084161  0.113120371574773  1.0000
  C   C76       1.0  0.5164522199364183  0.70194619668208  0.026525981992996498  1.0000
  C   C77       1.0  0.4801502084101229  0.8189054887420325  0.587136358696739  1.0000
  C   C78       1.0  0.7111249781153288  0.9585297849368147  0.6245837941554128  1.0000
  C   C79       1.0  0.4734645182272529  0.8868783641397898  0.4687602686622298  1.0000
  C   C80       1.0  0.5164516112992245  0.9734727873498983  0.6754189127080108  1.0000
  C   C81       1.0  0.4801495391571036  0.412863365126924  0.2317678974337126  1.0000
  C   C82       1.0  0.7111240774625357  0.37541561125151907  0.33394740429416453  1.0000
  C   C83       1.0  0.4734611633420513  0.5312387264009005  0.4181192461956086  1.0000
  C   C84       1.0  0.5164513226310915  0.32457901688976426  0.29805302202470324  1.0000
  C   C85       1.0  0.9801516907974132  0.23176679782498877  0.818906325282363  1.0000
  C   C86       1.0  0.21112579955010344  0.3339458907456601  0.9585303443149511  1.0000
  C   C87       1.0  0.9734653630542096  0.41811852760944396  0.8868795570299354  1.0000
  C   C88       1.0  0.016452493647300098  0.2980537193748134  0.9734739024606396  1.0000
  C   C89       1.0  0.9801470710895542  0.18109487307101094  0.41286372382639763  1.0000
  C   C90       1.0  0.21112703889544088  0.041469037853154554  0.37541609977743207  1.0000
  C   C91       1.0  0.9734645298002174  0.11312105945360437  0.5312392919170605  1.0000
  C   C92       1.0  0.016450315730267593  0.026524806692535183  0.3245803495561006  1.0000
  C   C93       1.0  0.9801505268992369  0.5871374216407617  0.768231760132778  1.0000
  C   C94       1.0  0.2111257102980062  0.6245862696083008  0.6660538478800574  1.0000
  C   C95       1.0  0.9734623115668127  0.4687630192133979  0.5818809365742367  1.0000
  C   C96       1.0  0.016450604395011195  0.6754208991692819  0.7019468624292668  1.0000
  C   C97       1.0  0.5844559296448607  0.7750014189077633  0.22499777312053465  1.0000
  C   C98       1.0  0.5844508835071379  0.4499960706450068  0.22499797904817595  1.0000
  C   C99       1.0  0.5844522232677604  0.7750018830649027  0.5500028188146971  1.0000
  C   C100      1.0  0.08445230116182499  0.22499802423057247  0.7750017267321354  1.0000
  C   C101      1.0  0.08445065956148308  0.5500036835932107  0.7750026818128503  1.0000
  C   C102      1.0  0.08445043442267058  0.22499782948715116  0.4499956755785632  1.0000
  C   C103      1.0  0.41554550314870636  0.22499839106416888  0.7750040083954346  1.0000
  C   C104      1.0  0.4155486522138076  0.2249971491706332  0.449996060182471  1.0000
  C   C105      1.0  0.41554943466272204  0.550003640711445  0.7750024289822263  1.0000
  C   C106      1.0  0.9155424438896059  0.7750033300263085  0.22499777445564448  1.0000
  C   C107      1.0  0.915548211811206  0.7750025193057796  0.5500040950175772  1.0000
  C   C108      1.0  0.9155485439857144  0.4499956597383489  0.22499735819206984  1.0000
  C   C109      1.0  0.7499990754314537  0.8836988808266996  0.33329031797516234  1.0000
  C   C110      1.0  0.7500007638709291  0.44959435082147786  0.11630428531832834  1.0000
  C   C111      1.0  0.7499995574044148  0.6667106408864713  0.550410064980916  1.0000
  C   C112      1.0  0.24999957080384405  0.11630083053103853  0.6667100900554459  1.0000
  C   C113      1.0  0.25000066892121703  0.5504060965856324  0.8836968587631728  1.0000
  C   C114      1.0  0.25000020345213864  0.3332910661465647  0.4495927636814229  1.0000
  C   C115      1.0  0.2500004636531016  0.3332881955551628  0.8836956733070876  1.0000
  C   C116      1.0  0.25000111259458885  0.11630479616619034  0.44959317254739517  1.0000
  C   C117      1.0  0.24999998154520844  0.5504097025052772  0.6667113180432266  1.0000
  C   C118      1.0  0.7500004118274218  0.6667111060897923  0.11630220023000239  1.0000
  C   C119      1.0  0.750000320196527  0.8836959206503396  0.5504069660740284  1.0000
  C   C120      1.0  0.7499986646870767  0.44959196284331443  0.33328934415162337  1.0000
  C   C121      1.0  0.5883804637283915  0.8892865113013924  0.4446444066643519  1.0000
  C   C122      1.0  0.5883813623354824  0.5553553951155479  0.1107134165911176  1.0000
  C   C123      1.0  0.5883771039952066  0.5553564933398434  0.4446431821687326  1.0000
  C   C124      1.0  0.0883814010436126  0.11071308132717653  0.555355672734926  1.0000
  C   C125      1.0  0.08838105974746918  0.4446442544436239  0.8892858698261675  1.0000
  C   C126      1.0  0.08837863034731437  0.4446445297111908  0.5553562028661503  1.0000
  C   C127      1.0  0.4116183985228544  0.44464431624133016  0.8892869914393485  1.0000
  C   C128      1.0  0.411619854440154  0.11071399303760643  0.5553559444353624  1.0000
  C   C129      1.0  0.4116226568616241  0.4446436999048586  0.5553560079235067  1.0000
  C   C130      1.0  0.9116187011093612  0.5553559388010783  0.11071332026607189  1.0000
  C   C131      1.0  0.9116183598150084  0.8892861064565806  0.44464378676614985  1.0000
  C   C132      1.0  0.9116228024422808  0.5553566689931627  0.44464271781704645  1.0000
  C   C133      1.0  0.5000023459382276  0.9999980967771974  0.3871487740709511  1.0000
  C   C134      1.0  0.4999997637143918  0.3871506275297206  1.8655335267683072e-06  1.0000
  C   C135      1.0  0.5000003223999485  0.6128514089706414  0.6128510772536372  1.0000
  C   C136      1.0  2.5965785610999993e-06  2.057132064582294e-06  0.6128509019141645  1.0000
  C   C137      1.0  0.9999998312852371  0.6128510202185566  0.9999991037496228  1.0000
  C   C138      1.0  0.9999998299123263  0.38714913469993206  0.3871487879525829  1.0000
  C   C139      1.0  0.5000002519722884  0.9999998459452684  0.6128504275450125  1.0000
  C   C140      1.0  0.5000027416222607  0.6128516169202882  1.5905106491655645e-06  1.0000
  C   C141      1.0  0.4999999957689666  0.38714872734259836  0.3871489058204601  1.0000
  C   C142      1.0  0.9999971642787383  0.9999979236342399  0.38714850065622375  1.0000
  C   C143      1.0  2.7582060510999996e-06  0.38714853698854046  0.9999980854744023  1.0000
  C   C144      1.0  0.9999995992335753  0.6128508108674566  0.6128512287946676  1.0000
  N   N1        1.0  0.5465982581726435  0.8228918157343089  0.2592720971027446  1.0000
  N   N2        1.0  0.6869737863924144  0.9107209726430057  0.33354562564262097  1.0000
  N   N3        1.0  0.5466495107317826  0.8884556528363419  0.40309716739619006  1.0000
  N   N4        1.0  0.5266145688497302  0.9569425213384548  0.3381353424999175  1.0000
  N   N5        1.0  0.546594934449814  0.4363806749202013  0.17710897486811203  1.0000
  N   N6        1.0  0.6869744310756544  0.4228262529409362  0.08928033282579399  1.0000
  N   N7        1.0  0.5466493847862777  0.5146414679973361  0.11154662166086367  1.0000
  N   N8        1.0  0.5266142109039434  0.3811939567682785  0.043058418393172704  1.0000
  N   N9        1.0  0.5465963445732667  0.7407279597689396  0.5636202028944834  1.0000
  N   N10       1.0  0.686974328485796  0.6664545846218105  0.5771765246959076  1.0000
  N   N11       1.0  0.5466461315944214  0.5969029461983552  0.4853600772132649  1.0000
  N   N12       1.0  0.5266163301537858  0.6618663405655097  0.6188081434678023  1.0000
  N   N13       1.0  0.0465958585287751  0.17710747332019147  0.740727624455694  1.0000
  N   N14       1.0  0.18697492640086466  0.08927788740092531  0.6664542741771626  1.0000
  N   N15       1.0  0.046649937846886785  0.11154400416267402  0.596902922175026  1.0000
  N   N16       1.0  0.026615295932728596  0.04305817202520499  0.6618644825459157  1.0000
  N   N17       1.0  0.04659472375764299  0.5636196195986827  0.8228904772820228  1.0000
  N   N18       1.0  0.18697539633849658  0.5771739805888318  0.9107196656106282  1.0000
  N   N19       1.0  0.04664950648039929  0.4853584014805037  0.8884532554322674  1.0000
  N   N20       1.0  0.026613981944798592  0.6188061560925178  0.9569412511053981  1.0000
  N   N21       1.0  0.04659498557139589  0.25927074878355694  0.4363793631168278  1.0000
  N   N22       1.0  0.18697438430390173  0.3335472765592158  0.4228255263469051  1.0000
  N   N23       1.0  0.046647186555809086  0.40309787181369927  0.5146403234536264  1.0000
  N   N24       1.0  0.026616321187503896  0.3381334042660881  0.38119115800460424  1.0000
  N   N25       1.0  0.4534036479580548  0.259270636422272  0.8228927205252033  1.0000
  N   N26       1.0  0.3130257248135279  0.3335439035498169  0.9107194300182684  1.0000
  N   N27       1.0  0.45334939483184644  0.4030973766403107  0.8884564486458189  1.0000
  N   N28       1.0  0.4733821038655037  0.3381350908291267  0.9569428549004683  1.0000
  N   N29       1.0  0.45340522144296347  0.1771081370647138  0.436379829846956  1.0000
  N   N30       1.0  0.31302582843346016  0.08928130065504551  0.42282597691853135  1.0000
  N   N31       1.0  0.4533518727500975  0.11154696438280347  0.514642223610501  1.0000
  N   N32       1.0  0.47338446646344323  0.04305879885345124  0.38119397646794795  1.0000
  N   N33       1.0  0.4534053344694156  0.5636211697814202  0.7407290834339972  1.0000
  N   N34       1.0  0.3130257406799472  0.5771764942834069  0.6664555838300288  1.0000
  N   N35       1.0  0.4533535451871202  0.48535935480256137  0.5969028893939876  1.0000
  N   N36       1.0  0.4733837011509861  0.6188077488725484  0.6618652617754676  1.0000
  N   N37       1.0  0.9534000851229153  0.7407289736651563  0.17710742544811348  1.0000
  N   N38       1.0  0.8130256414228042  0.6664550314691908  0.08927943361656787  1.0000
  N   N39       1.0  0.9533495636817971  0.5969031820578364  0.1115442209133589  1.0000
  N   N40       1.0  0.9733842091947762  0.6618665979753544  0.04305812087044803  1.0000
  N   N41       1.0  0.9534046420643703  0.8228918410437486  0.5636206841512317  1.0000
  N   N42       1.0  0.8130255378018416  0.9107188939886017  0.5771745712969361  1.0000
  N   N43       1.0  0.9533504296330547  0.8884532262870124  0.48535807792264746  1.0000
  N   N44       1.0  0.9733846331555752  0.9569417858716065  0.6188058952257761  1.0000
  N   N45       1.0  0.9534050863490575  0.436379176352375  0.2592717985897436  1.0000
  N   N46       1.0  0.8130239536196553  0.42282480443881104  0.3335460684625033  1.0000
  N   N47       1.0  0.9533532156871656  0.5146411052732418  0.4030964066785359  1.0000
  N   N48       1.0  0.9733831692227  0.38119209980271046  0.3381338738672851  1.0000
  N   N49       1.0  0.45340150268691554  0.1771069470926675  0.7407277873546433  1.0000
  N   N50       1.0  0.3130270890889689  0.08927873871301986  0.6664547823877172  1.0000
  N   N51       1.0  0.45335080743798534  0.11154390297274132  0.5969026601304392  1.0000
  N   N52       1.0  0.47338463469680647  0.043057713591984716  0.6618660140600099  1.0000
  N   N53       1.0  0.4534064983421472  0.5636194613921789  0.8228910082058434  1.0000
  N   N54       1.0  0.3130264444063826  0.5771725668162092  0.9107187586495299  1.0000
  N   N55       1.0  0.4533509333826373  0.4853586683159036  0.8884533614132336  1.0000
  N   N56       1.0  0.473385549952411  0.6188064489548211  0.9569405592209107  1.0000
  N   N57       1.0  0.45340453090877003  0.2592708599882059  0.4363788885808404  1.0000
  N   N58       1.0  0.3130254323715106  0.3335463863597141  0.42282556791518994  1.0000
  N   N59       1.0  0.4533536292630697  0.4030973456626795  0.5146404863646694  1.0000
  N   N60       1.0  0.473384545327029  0.33813342772154437  0.3811914715806067  1.0000
  N   N61       1.0  0.9533994438357779  0.8228925643805809  0.25927098513331254  1.0000
  N   N62       1.0  0.8130248344570032  0.9107220364343505  0.33354592137515454  1.0000
  N   N63       1.0  0.9533487083883114  0.8884555516477022  0.4030969053518089  1.0000
  N   N64       1.0  0.9733833502998336  0.9569429697502657  0.33813523111954413  1.0000
  N   N65       1.0  0.9534055944124942  0.43637956818464835  0.17710898221898924  1.0000
  N   N66       1.0  0.8130260364538342  0.42282578769778917  0.08927994943770999  1.0000
  N   N67       1.0  0.9533513689998473  0.5146414237375794  0.11154556663421272  1.0000
  N   N68       1.0  0.9733846642908756  0.38119318723946805  0.04305878889958581  1.0000
  N   N69       1.0  0.9534042179762706  0.7407283820696052  0.5636208893662482  1.0000
  N   N70       1.0  0.8130259338628533  0.6664552234559409  0.5771772453846821  1.0000
  N   N71       1.0  0.9533536889231154  0.596902746386931  0.485358441682166  1.0000
  N   N72       1.0  0.9733823250485472  0.6618655710401384  0.6188085139747627  1.0000
  N   N73       1.0  0.5466000140827274  0.7407280694706628  0.1771079569136303  1.0000
  N   N74       1.0  0.6869751506676636  0.6664554967114782  0.08927981700451668  1.0000
  N   N75       1.0  0.546650923336692  0.5969031276986883  0.11154390245389567  1.0000
  N   N76       1.0  0.5266165423689414  0.6618652010327679  0.04305770867760115  1.0000
  N   N77       1.0  0.5465956540390805  0.8228906826924317  0.5636192616283678  1.0000
  N   N78       1.0  0.6869750470470775  0.9107189912051298  0.5771745866592679  1.0000
  N   N79       1.0  0.5466484454180643  0.8884539079819547  0.4853584955148378  1.0000
  N   N80       1.0  0.5266158517065093  0.9569410680503623  0.6188070120662273  1.0000
  N   N81       1.0  0.5465944263889211  0.43637854157546474  0.2592713245964687  1.0000
  N   N82       1.0  0.6869734628646994  0.42282459056060867  0.3335449228172889  1.0000
  N   N83       1.0  0.5466462156693267  0.5146412064678998  0.4030966687238688  1.0000
  N   N84       1.0  0.5266166170185895  0.3811914958418114  0.3381334047436154  1.0000
  N   N85       1.0  0.0465952172407924  0.25927164453977264  0.8228913396883611  1.0000
  N   N86       1.0  0.18697411943647066  0.3335432647156864  0.9107187093294938  1.0000
  N   N87       1.0  0.046650197175502194  0.40309679870846815  0.8884551816570365  1.0000
  N   N88       1.0  0.026616666283963794  0.3381346993457583  0.9569421732985076  1.0000
  N   N89       1.0  0.04659456148281999  0.1771075022878037  0.4363793558536813  1.0000
  N   N90       1.0  0.18697533767954155  0.08928081736742398  0.42282583673339497  1.0000
  N   N91       1.0  0.04664933122688099  0.11154516851420476  0.5146414385091161  1.0000
  N   N92       1.0  0.026616242325147296  0.04305782686808609  0.3811931393188601  1.0000
  N   N93       1.0  0.04659467450786539  0.5636211724396888  0.7407279720062689  1.0000
  N   N94       1.0  0.18697413530176016  0.5771769595265539  0.6664559672181126  1.0000
  N   N95       1.0  0.046647659790537  0.48536046145730444  0.596902882030342  1.0000
  N   N96       1.0  0.026614919700129698  0.6188080365122489  0.6618661092070822  1.0000
  N   N97       1.0  0.7499997180142798  0.8310070761226173  0.3330143636947795  1.0000
  N   N98       1.0  0.7499995958451817  0.5020074725907762  0.16899488386584943  1.0000
  N   N99       1.0  0.7499995255392944  0.6669871573524375  0.497995379027749  1.0000
  N   N100      1.0  0.25000004284462557  0.16899257830323938  0.6669868373176158  1.0000
  N   N101      1.0  0.2500007223251473  0.4979920262872853  0.8310057366427017  1.0000
  N   N102      1.0  0.24999967800497555  0.3330142955173301  0.5020054956451857  1.0000
  N   N103      1.0  0.24999931789746196  0.33301098612226815  0.8310051831931773  1.0000
  N   N104      1.0  0.25000050126682527  0.16899398430032866  0.5020069689916795  1.0000
  N   N105      1.0  0.24999950938629206  0.49799503376339527  0.6669870214976399  1.0000
  N   N106      1.0  0.7499998856508582  0.6669872531320138  0.16899375273487727  1.0000
  N   N107      1.0  0.7499987022805498  0.8310046799107411  0.4979915419800774  1.0000
  N   N108      1.0  0.7499996941574167  0.5020064760374083  0.333013060193366  1.0000
  O   O1        1.0  0.6883555249566625  0.8097925286203704  0.33296516599300213  1.0000
  O   O2        1.0  0.6883536748812061  0.5231735833377867  0.19021066649460736  1.0000
  O   O3        1.0  0.6883558426592413  0.6670355242596032  0.47682902911762426  1.0000
  O   O4        1.0  0.18835243718265093  0.1902060029550371  0.6670365319325029  1.0000
  O   O5        1.0  0.1883542872562245  0.4768257981511894  0.8097901815182806  1.0000
  O   O6        1.0  0.18835434872305257  0.33296480575756954  0.5231723424680864  1.0000
  O   O7        1.0  0.3116452046208734  0.3329622232361515  0.8097893787121038  1.0000
  O   O8        1.0  0.3116452642917977  0.19020966297255631  0.5231738096884868  1.0000
  O   O9        1.0  0.31164600040727203  0.4768288252579538  0.6670351128301846  1.0000
  O   O10       1.0  0.8116452403362685  0.6670364028174873  0.190208324251678  1.0000
  O   O11       1.0  0.8116451806643069  0.8097902227057219  0.47682557785591917  1.0000
  O   O12       1.0  0.8116450018598866  0.5231712728982957  0.3329640622360016  1.0000
  O   O13       1.0  0.3116436785901512  0.19020718273694825  0.6670352420375351  1.0000
  O   O14       1.0  0.3116455286677819  0.47682475453282097  0.8097896429191493  1.0000
  O   O15       1.0  0.3116455901316896  0.3329658716774233  0.5231726385369696  1.0000
  O   O16       1.0  0.8116456517414078  0.8097941750452334  0.3329656176094885  1.0000
  O   O17       1.0  0.8116449162898361  0.5231746492576405  0.19021096256349762  1.0000
  O   O18       1.0  0.8116465267569167  0.6670365332488472  0.47683011816850024  1.0000
  O   O19       1.0  0.6883545562369873  0.6670367103839112  0.19020812679950433  1.0000
  O   O20       1.0  0.6883550538773945  0.8097899497675625  0.4768252248562133  1.0000
  O   O21       1.0  0.6883543177580619  0.5231733219771684  0.3329643314262255  1.0000
  O   O22       1.0  0.18835396321073006  0.3329626294193346  0.809790554745696  1.0000
  O   O23       1.0  0.18835402288232217  0.19020917755685932  0.5231736691670719  1.0000
  O   O24       1.0  0.18835475899665965  0.47682944391953447  0.6670360763856279  1.0000
