data_image0
_chemical_formula_structural       Mn4H20C40N12O16
_chemical_formula_sum              "Mn4 H20 C40 N12 O16"
_cell_length_a       11.16925037638199
_cell_length_b       12.70557808302092
_cell_length_c       14.36144530732257
_cell_angle_alpha    90.00016664364522
_cell_angle_beta     109.63789739501026
_cell_angle_gamma    89.9998303113772

_space_group_name_H-M_alt    "P 1"
_space_group_IT_number       1

loop_
  _space_group_symop_operation_xyz
  'x, y, z'

loop_
  _atom_site_type_symbol
  _atom_site_label
  _atom_site_symmetry_multiplicity
  _atom_site_fract_x
  _atom_site_fract_y
  _atom_site_fract_z
  _atom_site_occupancy
  Mn  Mn1       1.0  0.38869286234479733  0.4170304776125206  0.46861082222479683  1.0000
  Mn  Mn2       1.0  0.6113063036158479  0.9170303430543425  0.03138627777590836  1.0000
  Mn  Mn3       1.0  0.6113086442615128  0.5829700068963672  0.5313887027685525  1.0000
  Mn  Mn4       1.0  0.3886923549084145  0.08296935439998518  0.9686117983340738  1.0000
  H   H1        1.0  0.8775418532013717  0.3844126379655322  0.444552526768078  1.0000
  H   H2        1.0  0.1224592827051509  0.8844154168600936  0.05544779382679372  1.0000
  H   H3        1.0  0.12245680904490543  0.6155823371523467  0.5554448540051669  1.0000
  H   H4        1.0  0.8775402966850263  0.11558900293779563  0.944556096128622  1.0000
  H   H5        1.0  0.8786671156388907  0.1358757940923496  0.2381494032305583  1.0000
  H   H6        1.0  0.1213337179312219  0.6358753108459253  0.26184809934787273  1.0000
  H   H7        1.0  0.12133345523563578  0.8641215421892806  0.7618470892475745  1.0000
  H   H8        1.0  0.8786687467117317  0.3641212383804556  0.7381502861607958  1.0000
  H   H9        1.0  0.5253614927401671  0.25402910495647996  0.2539654849462636  1.0000
  H   H10       1.0  0.47463617128848057  0.754027658841643  0.24603427399551236  1.0000
  H   H11       1.0  0.4746362151844251  0.7459705924986647  0.7460323399802463  1.0000
  H   H12       1.0  0.5253605711746019  0.2459704645070815  0.753966081074694  1.0000
  H   H13       1.0  0.0754502736804739  0.4286823321717464  0.3917223628732956  1.0000
  H   H14       1.0  0.9245498130106355  0.928682426187386  0.10827501085343981  1.0000
  H   H15       1.0  0.9245474416760474  0.571317365281132  0.6082740713888698  1.0000
  H   H16       1.0  0.0754517010265943  0.0713188453751172  0.8917231234763251  1.0000
  H   H17       1.0  0.07676013011066371  0.09600875581044475  0.387885978463352  1.0000
  H   H18       1.0  0.9232445969055477  0.5960096527181233  0.11211453771783655  1.0000
  H   H19       1.0  0.9232432739800344  0.9039909416420497  0.6121147442283644  1.0000
  H   H20       1.0  0.0767569096977354  0.4039931929584171  0.8878849872777936  1.0000
  C   C1        1.0  0.6258464570481621  0.3968145345506783  0.4028710261062117  1.0000
  C   C2        1.0  0.3741555939612056  0.8968089288700508  0.09713026498960893  1.0000
  C   C3        1.0  0.3741569433205214  0.6031898852382651  0.5971303919222495  1.0000
  C   C4        1.0  0.6258439891489687  0.10319234270315997  0.90287292963059  1.0000
  C   C5        1.0  0.694965814869434  0.3261288769295163  0.3539405086272042  1.0000
  C   C6        1.0  0.3050392691284216  0.8261306919636479  0.14606139927379763  1.0000
  C   C7        1.0  0.3050394904236313  0.6738684593536917  0.6460607164291832  1.0000
  C   C8        1.0  0.6949650632601205  0.1738737278301414  0.8539437465990078  1.0000
  C   C9        1.0  0.8278019108180813  0.3294493466360534  0.38614334363170144  1.0000
  C   C10       1.0  0.17220126346625622  0.8294529739264715  0.11385806832806374  1.0000
  C   C11       1.0  0.17220054267798454  0.670546415537842  0.6138571278727271  1.0000
  C   C12       1.0  0.8278011677229385  0.17055144586895207  0.8861465751777902  1.0000
  C   C13       1.0  0.8932480789440973  0.2606542143161476  0.34480550690140904  1.0000
  C   C14       1.0  0.1067505224111756  0.7606573576359705  0.15519382071341437  1.0000
  C   C15       1.0  0.1067505795852099  0.7393415478587569  0.6551925692047648  1.0000
  C   C16       1.0  0.8932481175282234  0.23934627510345044  0.8448077320612486  1.0000
  C   C17       1.0  0.8283114157669829  0.1893697403948309  0.2714221777922247  1.0000
  C   C18       1.0  0.1716883263548254  0.6893721674135661  0.22857587243010616  1.0000
  C   C19       1.0  0.17168724647929423  0.8106252347230477  0.72857520298102  1.0000
  C   C20       1.0  0.8283112790531462  0.3106275300410743  0.7714231501955311  1.0000
  C   C21       1.0  0.6954429314512609  0.1877532447023141  0.23797622197002977  1.0000
  C   C22       1.0  0.3045625072627871  0.6877570116415794  0.26202541822360814  1.0000
  C   C23       1.0  0.3045614232471793  0.8122401563022875  0.7620247518990696  1.0000
  C   C24       1.0  0.6954418548574992  0.3122442599196019  0.7379741649887566  1.0000
  C   C25       1.0  0.6288395448249561  0.2559022058188489  0.2794281554511856  1.0000
  C   C26       1.0  0.37116666979286345  0.7559056663188742  0.22057386777043322  1.0000
  C   C27       1.0  0.3711657604721522  0.7440919822408244  0.7205730696021534  1.0000
  C   C28       1.0  0.6288395860908053  0.24409875346648138  0.7794276084762829  1.0000
  C   C29       1.0  0.6267118970116954  0.11312377455248417  0.15620865029194414  1.0000
  C   C30       1.0  0.37329182065668226  0.6131331390820873  0.34379442915432895  1.0000
  C   C31       1.0  0.37329245025986774  0.886865691174961  0.8437937142376983  1.0000
  C   C32       1.0  0.6267087241950051  0.386872854822215  0.6562069306573904  1.0000
  C   C33       1.0  0.107256110459808  0.34755809166559704  0.3989511533656441  1.0000
  C   C34       1.0  0.8927432187254354  0.8475582442705657  0.1010485935588648  1.0000
  C   C35       1.0  0.8927434986621136  0.6524431798996772  0.601047173929338  1.0000
  C   C36       1.0  0.10725542864891928  0.15244302729892914  0.8989515685491585  1.0000
  C   C37       1.0  0.10985207775669889  0.17679843898317663  0.3961379024200582  1.0000
  C   C38       1.0  0.8901495829293752  0.6767986074204797  0.10386340717459318  1.0000
  C   C39       1.0  0.8901494139847445  0.8232028325861331  0.6038644039027476  1.0000
  C   C40       1.0  0.1098500113286889  0.32320266414933485  0.8961377014490851  1.0000
  N   N1        1.0  0.0290901169572209  0.2620319442448035  0.378332912954683  1.0000
  N   N2        1.0  0.9709103857846273  0.7620327491895791  0.12166622435809411  1.0000
  N   N3        1.0  0.9709113896490891  0.7379685402640843  0.6216666120386664  1.0000
  N   N4        1.0  0.029088265306697295  0.23796773532289706  0.8783332424170001  1.0000
  N   N5        1.0  0.22692426516371708  0.3157011088663424  0.4270143811834118  1.0000
  N   N6        1.0  0.7730760888516953  0.8157022661406897  0.07298694595759513  1.0000
  N   N7        1.0  0.7730743822106375  0.6843001627031525  0.5729857809246186  1.0000
  N   N8        1.0  0.2269244560050296  0.18429979248418243  0.9270144138503228  1.0000
  N   N9        1.0  0.22925918849457355  0.20730776718600902  0.4256508952317831  1.0000
  N   N10       1.0  0.7707423939831699  0.7073073607986656  0.07435047338736203  1.0000
  N   N11       1.0  0.7707423032448588  0.7926950784950718  0.5743514110925503  1.0000
  N   N12       1.0  0.2292581508735552  0.2926946978262137  0.9256508864205488  1.0000
  O   O1        1.0  0.5136894339745339  0.13780905645987926  0.10406541265904679  1.0000
  O   O2        1.0  0.486318074854907  0.6378041316914533  0.39592898461441456  1.0000
  O   O3        1.0  0.48631877513095395  0.8621961503638501  0.8959268313049551  1.0000
  O   O4        1.0  0.5136844158048391  0.3621884822475606  0.6040645335652359  1.0000
  O   O5        1.0  0.6879966273796114  0.0323764662563804  0.1452487664434301  1.0000
  O   O6        1.0  0.3119939219952315  0.5323875986311392  0.35476315619673227  1.0000
  O   O7        1.0  0.31199339029556944  0.9676114253931086  0.8547630416438283  1.0000
  O   O8        1.0  0.6879932550035974  0.4676199694145353  0.6452458123626031  1.0000
  O   O9        1.0  0.5128787679544827  0.37058602984384226  0.3948195720917128  1.0000
  O   O10       1.0  0.4871063138208314  0.8705762235674895  0.10516324031085132  1.0000
  O   O11       1.0  0.48710664161666967  0.6294238993302982  0.6051638621447142  1.0000
  O   O12       1.0  0.5128762439684494  0.12942032565906908  0.8948194403622055  1.0000
  O   O13       1.0  0.6867442627823835  0.47592545423432137  0.4496679361320235  1.0000
  O   O14       1.0  0.31325755568037283  0.9759371689466291  0.050339070690348764  1.0000
  O   O15       1.0  0.31326101279609025  0.524061650331454  0.5503388515718515  1.0000
  O   O16       1.0  0.6867391384509673  0.024079843758073597  0.949670323716383  1.0000
