data_image0
_chemical_formula_structural       Zn2H42C68N2O8
_chemical_formula_sum              "Zn2 H42 C68 N2 O8"
_cell_length_a       15.660495999739354
_cell_length_b       18.290194086577053
_cell_length_c       19.654423674999705
_cell_angle_alpha    89.83917757903387
_cell_angle_beta     90.3733583954574
_cell_angle_gamma    112.90933152391614

_space_group_name_H-M_alt    "P 1"
_space_group_IT_number       1

loop_
  _space_group_symop_operation_xyz
  'x, y, z'

loop_
  _atom_site_type_symbol
  _atom_site_label
  _atom_site_symmetry_multiplicity
  _atom_site_fract_x
  _atom_site_fract_y
  _atom_site_fract_z
  _atom_site_occupancy
  Zn  Zn1       1.0  0.49531143807430317  0.4213104254239327  0.4987725718375202  1.0000
  Zn  Zn2       1.0  0.5047235718096417  0.5782838508027978  0.4975558618818426  1.0000
  H   H1        1.0  0.39848552992239666  0.3802334104991658  0.9348621159760668  1.0000
  H   H2        1.0  0.6119972175927658  0.8662436097764471  0.5719124748673465  1.0000
  H   H3        1.0  0.39441699076814274  0.2708658497133102  0.4289101628780543  1.0000
  H   H4        1.0  0.6072681305076204  0.727821088961413  0.5670511433258981  1.0000
  H   H5        1.0  0.47482728396975915  0.058199575248586696  0.39206593465456774  1.0000
  H   H6        1.0  0.5248872256677617  0.9410224721888695  0.6094317273152116  1.0000
  H   H7        1.0  0.4705690659948658  0.9219054830091266  0.39353204377147233  1.0000
  H   H8        1.0  0.529188391629077  0.077409097704745  0.6080414635304194  1.0000
  H   H9        1.0  0.7724927843445925  0.4712372389559505  0.525765743073336  1.0000
  H   H10       1.0  0.23002716352310426  0.53136913222324  0.5128694037135375  1.0000
  H   H11       1.0  0.8137074486632373  0.715385396518542  0.5114279331214249  1.0000
  H   H12       1.0  0.6013150117576912  0.6196958597912  0.06193480499080551  1.0000
  H   H13       1.0  0.1883142712322865  0.2875195556092364  0.5301170983065049  1.0000
  H   H14       1.0  0.020726769688984324  0.2513029542455101  0.5536113344567043  1.0000
  H   H15       1.0  0.9844716992377585  0.7551968144708284  0.5216988455680963  1.0000
  H   H16       1.0  0.8227290543568843  0.3951803105752346  0.5613505624797099  1.0000
  H   H17       1.0  0.18489504891932287  0.6138516534003386  0.533406096610115  1.0000
  H   H18       1.0  0.5038917072209728  0.6183504677439656  0.7146109939005286  1.0000
  H   H19       1.0  0.4933356201097183  0.38023639770256773  0.28200614568516613  1.0000
  H   H20       1.0  0.5042258817052315  0.6192233890680827  0.8418663303246346  1.0000
  H   H21       1.0  0.4945280806073384  0.38014742942198143  0.154862716688605  1.0000
  H   H22       1.0  0.4966350107007074  0.3812819065728306  0.8425411462483795  1.0000
  H   H23       1.0  0.3980998566995241  0.3797030781319535  0.06072203042946001  1.0000
  H   H24       1.0  0.5043984639470337  0.618791814606034  0.1546589874569904  1.0000
  H   H25       1.0  0.49544571191462683  0.3815308707447401  0.7152843487153504  1.0000
  H   H26       1.0  0.5066733421487726  0.6185856083811385  0.28183579192269553  1.0000
  H   H27       1.0  0.8451845144108672  0.29809303260645936  0.6761408200542149  1.0000
  H   H28       1.0  0.7397446928190661  0.1602717246999319  0.7054572082182134  1.0000
  H   H29       1.0  0.7003858335789345  0.0534214068741719  0.617953440362804  1.0000
  H   H30       1.0  0.7646654011944631  0.08571741266786147  0.501021702311526  1.0000
  H   H31       1.0  0.8715752157136764  0.22336514756474912  0.47266321177772136  1.0000
  H   H32       1.0  0.19610541759161051  0.7358988897596817  0.6291968316978398  1.0000
  H   H33       1.0  0.3081987960268081  0.876551791516981  0.6275312653623218  1.0000
  H   H34       1.0  0.6018692757806007  0.6201644575111656  0.936070414462506  1.0000
  H   H35       1.0  0.3187040779804848  0.9604672442929  0.5254672051898694  1.0000
  H   H36       1.0  0.21755340413548657  0.9025519191340763  0.42460385266891615  1.0000
  H   H37       1.0  0.10535039576990368  0.7622304370638631  0.4267474706147922  1.0000
  H   H38       1.0  0.6101865796531314  0.3435041958791203  0.5681809523792865  1.0000
  H   H39       1.0  0.3853332004442792  0.655903426899208  0.43306131480701987  1.0000
  H   H40       1.0  0.6172672425397963  0.2088896839932346  0.57112828047714  1.0000
  H   H41       1.0  0.3781598117925783  0.7905956426287658  0.4330874964599261  1.0000
  H   H42       1.0  0.3890067317686244  0.1322812143652072  0.427071083566574  1.0000
  C   C1        1.0  0.5003100274591431  0.49954732166025906  0.3656113797354977  1.0000
  C   C2        1.0  0.4954430292198068  0.4321138573863763  0.1825394918161649  1.0000
  C   C3        1.0  0.5004587955635601  0.5002655610844969  0.8510886128541486  1.0000
  C   C4        1.0  0.4994270782278604  0.49946481614922783  0.1457612103789359  1.0000
  C   C5        1.0  0.49717816709519275  0.4331234674867305  0.8146215614231026  1.0000
  C   C6        1.0  0.5034604029830446  0.5667188937436691  0.18243611377064184  1.0000
  C   C7        1.0  0.4972468010988609  0.43307923969791773  0.7438685693188205  1.0000
  C   C8        1.0  0.5037962010381348  0.5667227214314676  0.2532143668609308  1.0000
  C   C9        1.0  0.4999883020901521  0.5000166925303944  0.7076179265104943  1.0000
  C   C10       1.0  0.4997929936697858  0.49934080150781324  0.2893846134783473  1.0000
  C   C11       1.0  0.44431767042887316  0.4324542822016895  0.9627026198669029  1.0000
  C   C12       1.0  0.4995780662697555  0.49957981576256577  0.6314482370817488  1.0000
  C   C13       1.0  0.5555340830840194  0.56746665337689  0.0341219501667922  1.0000
  C   C14       1.0  0.44409730748069615  0.43216783300413647  0.0334905324762289  1.0000
  C   C15       1.0  0.555880057935525  0.5676937436758109  0.9633299291919428  1.0000
  C   C16       1.0  0.3187608647476665  0.43667678260670323  0.504021100663664  1.0000
  C   C17       1.0  0.681530345805342  0.5638231432282623  0.5069797209765383  1.0000
  C   C18       1.0  0.4996694359318783  0.49968768082079157  0.0706628791162842  1.0000
  C   C19       1.0  0.5002517580556544  0.5001893228514122  0.9261675602850021  1.0000
  C   C20       1.0  0.562956770373077  0.29449794171753046  0.5377069909789469  1.0000
  C   C21       1.0  0.4340831523429005  0.7047790029272464  0.4628463246287425  1.0000
  C   C22       1.0  0.5656043154593747  0.21943154925241967  0.5395596291871528  1.0000
  C   C23       1.0  0.8967140382004075  0.41155254064193514  0.553572389932917  1.0000
  C   C24       1.0  0.4312588483241981  0.7797935904092056  0.4626548927510541  1.0000
  C   C25       1.0  0.5029355848833744  0.15853701606541648  0.49926764719347017  1.0000
  C   C26       1.0  0.49577353874173713  0.8405356821404266  0.5019984948733338  1.0000
  C   C27       1.0  0.44046290468938315  0.1774052595253295  0.45836993179949564  1.0000
  C   C28       1.0  0.5595143956867616  0.8213174712077703  0.5410883645782505  1.0000
  C   C29       1.0  0.44227664769806546  0.2538883856580938  0.4593432004380134  1.0000
  C   C30       1.0  0.557996000516397  0.7449626785655568  0.5384994688438312  1.0000
  C   C31       1.0  0.4846048500496137  0.032265983682577784  0.4400531135136064  1.0000
  C   C32       1.0  0.5152227060623532  0.9670557730052137  0.5614519245213785  1.0000
  C   C33       1.0  0.4824501697577903  0.9555686736463757  0.4408342509067893  1.0000
  C   C34       1.0  0.10996024330769677  0.5963841065041251  0.5334670939243651  1.0000
  C   C35       1.0  0.5172250222483257  0.04373758443224319  0.5607588436226366  1.0000
  C   C36       1.0  0.49770106725289764  0.9217233977118724  0.5015809330554292  1.0000
  C   C37       1.0  0.501846783749869  0.07757513577016083  0.50002855008902  1.0000
  C   C38       1.0  0.21765898910769726  0.41238990929709024  0.5189272971807739  1.0000
  C   C39       1.0  0.7840823688877663  0.5900190242442706  0.5172989710187111  1.0000
  C   C40       1.0  0.06596138883591614  0.31296482318085594  0.5441636874795392  1.0000
  C   C41       1.0  0.9384199850315299  0.6926521072155936  0.5227212680997582  1.0000
  C   C42       1.0  0.15885964741629274  0.3325482549643723  0.5311025633744748  1.0000
  C   C43       1.0  0.8437650117013292  0.6710527963119048  0.5171388410872311  1.0000
  C   C44       1.0  0.18197011726965684  0.4707041285097874  0.5221414905878774  1.0000
  C   C45       1.0  0.9304480440570443  0.35247702905687106  0.5566709400121255  1.0000
  C   C46       1.0  0.8208651996145944  0.5329435169051989  0.5264536427953034  1.0000
  C   C47       1.0  0.08774803412972434  0.4529114321522556  0.535352553726476  1.0000
  C   C48       1.0  0.9168880551057794  0.5529165358710059  0.5333056218084665  1.0000
  C   C49       1.0  0.027453193659127417  0.37153379654863977  0.5452051280272769  1.0000
  C   C50       1.0  0.9777236890598642  0.634874497878407  0.5287333785364439  1.0000
  C   C51       1.0  0.05122455845764045  0.5143504083175043  0.5369136123629445  1.0000
  C   C52       1.0  0.9544430257208274  0.492589108332325  0.541383694514856  1.0000
  C   C53       1.0  0.8659674234698541  0.26996086271278597  0.572614781939521  1.0000
  C   C54       1.0  0.8271024842291226  0.2514390288556499  0.6377588778433747  1.0000
  C   C55       1.0  0.767880470072569  0.17391125183539907  0.6541414826234018  1.0000
  C   C56       1.0  0.07626305324937727  0.6555177415466316  0.5304235472740474  1.0000
  C   C57       1.0  0.7459930251193967  0.1140489945798535  0.6052015008299564  1.0000
  C   C58       1.0  0.7826040587356999  0.132070820392677  0.5397154079393333  1.0000
  C   C59       1.0  0.8425521719132403  0.2093703649601366  0.5236645854331102  1.0000
  C   C60       1.0  0.14280530604527555  0.7396548032926945  0.5283445687707626  1.0000
  C   C61       1.0  0.20120743251241904  0.7725955341273476  0.5842988476922033  1.0000
  C   C62       1.0  0.26396767206738764  0.8516206261594874  0.5833022033362667  1.0000
  C   C63       1.0  0.26972828834176005  0.8987853868763266  0.526158198958534  1.0000
  C   C64       1.0  0.21291337282696798  0.8662770962521051  0.46973232010233096  1.0000
  C   C65       1.0  0.14969926820631946  0.7874228773631912  0.4708438256587399  1.0000
  C   C66       1.0  0.5029717631432362  0.567083931968412  0.7434526921102389  1.0000
  C   C67       1.0  0.49549499069629394  0.43200312485814163  0.2533332397603516  1.0000
  C   C68       1.0  0.5036338880501745  0.5673406081141437  0.8142301880359284  1.0000
  N   N1        1.0  0.502344479685121  0.3114231984600552  0.4984470979700363  1.0000
  N   N2        1.0  0.49675480768898694  0.6878212190245209  0.4996798390191303  1.0000
  O   O1        1.0  0.48900562902480255  0.43443477330430363  0.39543382629152296  1.0000
  O   O2        1.0  0.49832390827043593  0.5610472736849631  0.6014952763843127  1.0000
  O   O3        1.0  0.5121384993266603  0.5649742689884009  0.3947827831513494  1.0000
  O   O4        1.0  0.500421499718982  0.4376340969592576  0.6024460550577545  1.0000
  O   O5        1.0  0.3518309345020825  0.3831389448296322  0.5046701498238235  1.0000
  O   O6        1.0  0.6477504788182742  0.6169354334583802  0.5070396437869249  1.0000
  O   O7        1.0  0.36437671335261274  0.51029609386201  0.4924325611560008  1.0000
  O   O8        1.0  0.635947170000982  0.48959799015096916  0.4987347638685051  1.0000
