data_image0
_chemical_formula_structural       Zn4H44C83N20O11F12
_chemical_formula_sum              "Zn4 H44 C83 N20 O11 F12"
_cell_length_a       19.675898625019276
_cell_length_b       19.754858593264842
_cell_length_c       21.79444033198941
_cell_angle_alpha    109.39124726901308
_cell_angle_beta     106.45364516204303
_cell_angle_gamma    109.27310470134732

_space_group_name_H-M_alt    "P 1"
_space_group_IT_number       1

loop_
  _space_group_symop_operation_xyz
  'x, y, z'

loop_
  _atom_site_type_symbol
  _atom_site_label
  _atom_site_symmetry_multiplicity
  _atom_site_fract_x
  _atom_site_fract_y
  _atom_site_fract_z
  _atom_site_occupancy
  Zn  Zn1       1.0  0.6104645841408497  0.5975054693927504  0.4801917983425383  1.0000
  Zn  Zn2       1.0  0.40202587338193035  0.39859736794100087  0.5045160239570734  1.0000
  Zn  Zn3       1.0  0.49617119016227196  0.6116443209037215  0.5883559679333743  1.0000
  Zn  Zn4       1.0  0.526378532504367  0.4013842750605149  0.3731644473404145  1.0000
  H   H1        1.0  0.3587150644829861  0.614455913176009  0.48240218986888556  1.0000
  H   H2        1.0  0.1225426109128449  0.5778053091810593  0.7446222883012794  1.0000
  H   H3        1.0  0.3466192769957742  0.8257150187759306  0.4729318711445671  1.0000
  H   H4        1.0  0.5624297820324244  0.6488454792633219  0.7501211029782269  1.0000
  H   H5        1.0  0.3891256454674518  0.9625259129866635  0.5035305054960374  1.0000
  H   H6        1.0  0.4736486778473291  0.9622993804672503  0.3717693362102565  1.0000
  H   H7        1.0  0.4915596346850676  0.8588908222928782  0.3904443433995369  1.0000
  H   H8        1.0  0.34525221834579156  0.9148299689075401  0.286248884221841  1.0000
  H   H9        1.0  0.26637291328738394  0.7555871998608835  0.2739740523384455  1.0000
  H   H10       1.0  0.2605883132747095  0.7925071524822798  0.3941609560614268  1.0000
  H   H11       1.0  0.6777858107559068  0.37107388231557087  0.4549348403682957  1.0000
  H   H12       1.0  0.24474129368605446  0.3071048414798269  0.3659791938266537  1.0000
  H   H13       1.0  0.35936248225848283  0.798447487528236  0.27213213688804677  1.0000
  H   H14       1.0  0.5273231141649504  0.7191089272520726  0.1679978153568484  1.0000
  H   H15       1.0  0.5597764826453328  0.6887362231036107  0.2713594442676238  1.0000
  H   H16       1.0  0.4233334623982046  0.4653462408199545  0.018845239149335738  1.0000
  H   H17       1.0  0.3150096653963813  0.461762606852858  0.8353537399539234  1.0000
  H   H18       1.0  0.41599260915456426  0.3884286834316341  0.638858028752125  1.0000
  H   H19       1.0  0.13463380869409033  0.9949578014740508  0.07907182123797442  1.0000
  H   H20       1.0  0.9761322466767125  0.8279738418646757  0.8782401961405029  1.0000
  H   H21       1.0  0.8672648227175442  0.7534408241259739  0.7522723593484172  1.0000
  H   H22       1.0  0.14214638424408577  0.24648622414978408  0.2418675696992167  1.0000
  H   H23       1.0  0.5086966605772573  0.6369660611378052  0.3708233536171051  1.0000
  H   H24       1.0  0.8809169311965801  0.9944914902510288  0.9371306660545713  1.0000
  H   H25       1.0  0.015760972070736998  0.13888867909187033  0.1311080809632941  1.0000
  H   H26       1.0  0.7308221302613089  0.6027339729146347  0.620218048531882  1.0000
  H   H27       1.0  0.6475023226625822  0.6615220108930587  0.3582734803283288  1.0000
  H   H28       1.0  0.7890071169060349  0.7131670249609882  0.55167160262598  1.0000
  H   H29       1.0  0.3733297061423996  0.19994734175398315  0.2008394177801449  1.0000
  H   H30       1.0  0.27955549110853184  0.16880731054384773  0.463141236687342  1.0000
  H   H31       1.0  0.9212806557223557  0.44719885241209306  0.47832012233396887  1.0000
  H   H32       1.0  0.11618924814277418  0.48828289105160383  0.8023626736464209  1.0000
  H   H33       1.0  0.5102972115418325  0.05367017438307198  0.5307747550119188  1.0000
  H   H34       1.0  0.4513208438459272  0.41593526468293607  0.2296842700115818  1.0000
  H   H35       1.0  0.19140972545037013  0.8213901638279353  0.29248133334112936  1.0000
  H   H36       1.0  0.28061413252953565  0.998726440711188  0.46578413405476476  1.0000
  H   H37       1.0  0.2566453732253962  0.4021579488763436  0.7199837875845176  1.0000
  H   H38       1.0  0.5095913015167283  0.4084743859081356  0.1524286828362875  1.0000
  H   H39       1.0  0.6419010028848787  0.8166248686081802  0.7730378345765347  1.0000
  H   H40       1.0  0.058243075143586495  0.5405383275802506  0.5575937377773171  1.0000
  H   H41       1.0  0.9607071723511921  0.573066969031302  0.5811359419668206  1.0000
  H   H42       1.0  0.88495186749072  0.36464982323309403  0.5717060823465161  1.0000
  H   H43       1.0  0.0081675648605852  0.39393484499925796  0.5225452050027002  1.0000
  H   H44       1.0  0.007092403503669701  0.36215969240147666  0.5890753239025912  1.0000
  C   C1        1.0  0.7467424851938275  0.7442476668545125  0.6330954794352053  1.0000
  C   C2        1.0  0.4796505682422846  0.626383076625025  0.4046270553219101  1.0000
  C   C3        1.0  0.5037371108593333  0.4732819409966282  0.2704854436041089  1.0000
  C   C4        1.0  0.39775630188543687  0.24012998630956153  0.4721780560592563  1.0000
  C   C5        1.0  0.33518152589243033  0.563001665502959  0.6051735115994958  1.0000
  C   C6        1.0  0.5401924807902958  0.5449871165713629  0.266147535451168  1.0000
  C   C7        1.0  0.26117654866482093  0.49540413120619314  0.5801254046163393  1.0000
  C   C8        1.0  0.4152415382919371  0.6397595057129806  0.4102485772444169  1.0000
  C   C9        1.0  0.28497667212538147  0.2501037774274052  0.2848895345514535  1.0000
  C   C10       1.0  0.998354272242686  0.5686512164572902  0.6261866364907434  1.0000
  C   C11       1.0  0.9264586436107292  0.41465649770598384  0.568241001683333  1.0000
  C   C12       1.0  0.4321743662005487  0.18789087055611015  0.4530351280152161  1.0000
  C   C13       1.0  0.0047905630679779  0.4097211325705458  0.5745952497589002  1.0000
  C   C14       1.0  0.20098276998459133  0.4911169789266837  0.6030588365425161  1.0000
  C   C15       1.0  0.9460439678470108  0.49558733016447587  0.6330492516197879  1.0000
  C   C16       1.0  0.5301199697151446  0.5845363238240893  0.7128148428647593  1.0000
  C   C17       1.0  0.06913860755758348  0.5582013752959796  0.6143897249985102  1.0000
  C   C18       1.0  0.07986514789418919  0.49171626479845537  0.6324378695404604  1.0000
  C   C19       1.0  0.08213482067178997  0.5122186733054476  0.7084009119976429  1.0000
  C   C20       1.0  0.9979560831040569  0.4978581834651548  0.7030054550050907  1.0000
  C   C21       1.0  0.15063727033883367  0.4901237114194998  0.6252925065778426  1.0000
  C   C22       1.0  0.8707342567122324  0.4956897342966257  0.6276237900112918  1.0000
  C   C23       1.0  0.48180124351196707  0.520959165838569  0.7214264785160936  1.0000
  C   C24       1.0  0.8060718296611993  0.4929207291110202  0.5999246824638718  1.0000
  C   C25       1.0  0.3414185233301906  0.9218928459896958  0.44736665758627936  1.0000
  C   C26       1.0  0.45845992346791314  0.9568493663083899  0.41531963385681786  1.0000
  C   C27       1.0  0.4556821081556065  0.8782221544145299  0.4157485216902472  1.0000
  C   C28       1.0  0.6790894533267035  0.42750993026737655  0.48635899550429684  1.0000
  C   C29       1.0  0.3850408593410464  0.6854576926132339  0.38445088423681284  1.0000
  C   C30       1.0  0.3742201535988769  0.9526575404738368  0.3990170509455098  1.0000
  C   C31       1.0  0.3254477880605506  0.8338675311874578  0.42503000529282525  1.0000
  C   C32       1.0  0.3677986719997647  0.81043616393206  0.37765517084018535  1.0000
  C   C33       1.0  0.3265644620283723  0.8084197803965124  0.3046557318349342  1.0000
  C   C34       1.0  0.7336319611759733  0.48793186136894917  0.5582932769376683  1.0000
  C   C35       1.0  0.3206388025940399  0.8877080724109304  0.3166947938822631  1.0000
  C   C36       1.0  0.3686181550975859  0.7349523068977104  0.37130616210304607  1.0000
  C   C37       1.0  0.3840614232099212  0.03341790046052747  0.41370863539629  1.0000
  C   C38       1.0  0.40406984317704087  0.10505727962951986  0.4320823129780038  1.0000
  C   C39       1.0  0.5159013523931363  0.5604444208848136  0.2045004289284121  1.0000
  C   C40       1.0  0.45429189762143807  0.45138657673174987  0.6557601667165613  1.0000
  C   C41       1.0  0.47515570712020855  0.4972057298971677  0.1316883682191019  1.0000
  C   C42       1.0  0.45180908131844427  0.5141439665204927  0.07422086965834745  1.0000
  C   C43       1.0  0.47205306157641047  0.5940476962380287  0.0866363892794126  1.0000
  C   C44       1.0  0.5114793990781265  0.6569516849445876  0.1585410594962582  1.0000
  C   C45       1.0  0.6031206706405426  0.5989126293797326  0.3365620107174294  1.0000
  C   C46       1.0  0.5310486379054494  0.6397227188552604  0.21596813165634637  1.0000
  C   C47       1.0  0.5043742399654362  0.6125375641738342  0.912659842025711  1.0000
  C   C48       1.0  0.5173791598177074  0.5959611925185369  0.8509864072982366  1.0000
  C   C49       1.0  0.4317550574363905  0.5616547752970786  0.9091586120990057  1.0000
  C   C50       1.0  0.46088551613006956  0.531027259645441  0.7817355896201761  1.0000
  C   C51       1.0  0.3844909412545902  0.48402673161648824  0.777211959361111  1.0000
  C   C52       1.0  0.7063596789787852  0.5462470220928068  0.5714637919249839  1.0000
  C   C53       1.0  0.37253686094980754  0.5002999358958107  0.8396527549728675  1.0000
  C   C54       1.0  0.8114343228111948  0.8305018495432887  0.7724830383124868  1.0000
  C   C55       1.0  0.818021337546419  0.8989244548036056  0.8268603736185439  1.0000
  C   C56       1.0  0.2654206326007156  0.43584870189724967  0.5259277163786535  1.0000
  C   C57       1.0  0.8773013928269505  0.9411170376676165  0.8970217192519597  1.0000
  C   C58       1.0  0.9346751541494169  0.9146802376850687  0.9156002428162751  1.0000
  C   C59       1.0  0.9307724512161498  0.8470658350143266  0.8629720246577294  1.0000
  C   C60       1.0  0.8700852707255747  0.8059390702716343  0.7927715898570894  1.0000
  C   C61       1.0  0.13581107407446777  0.049570771850703486  0.1147550549507059  1.0000
  C   C62       1.0  0.20432526002625906  0.10927625104045546  0.17693745235579428  1.0000
  C   C63       1.0  0.06792385572541797  0.06207022694876228  0.0973353363519394  1.0000
  C   C64       1.0  0.5053150290959678  0.24236125141262485  0.4608233809812178  1.0000
  C   C65       1.0  0.21065366990649886  0.18291290728987517  0.2235238974407068  1.0000
  C   C66       1.0  0.13989574914018732  0.19072748566432554  0.20689326374812114  1.0000
  C   C67       1.0  0.4022798295535423  0.6144941746210292  0.461047123940979  1.0000
  C   C68       1.0  0.0695740248029324  0.13142126606332027  0.1453451656336  1.0000
  C   C69       1.0  0.661597133980699  0.754675642082013  0.6797728108256322  1.0000
  C   C70       1.0  0.7449187146546307  0.7831245490695409  0.6997389537651202  1.0000
  C   C71       1.0  0.8115877544888191  0.7493679529396926  0.6116272748071907  1.0000
  C   C72       1.0  0.406684592830416  0.25508583094787696  0.2535738887985275  1.0000
  C   C73       1.0  0.32348844035302443  0.22911432135430224  0.47500672046790976  1.0000
  C   C74       1.0  0.882612385908011  0.4094364869221818  0.49584819515696665  1.0000
  C   C75       1.0  0.11233760574600637  0.4687740633303293  0.7466559690970058  1.0000
  C   C76       1.0  0.5261122382345319  0.031353096768860604  0.485404992388233  1.0000
  C   C77       1.0  0.23472899946278852  0.8741068316887635  0.2913903865058813  1.0000
  C   C78       1.0  0.36591249763907996  0.2792623984339073  0.2949243113835749  1.0000
  C   C79       1.0  0.2702680754030879  0.9350665787290567  0.44994386699967504  1.0000
  C   C80       1.0  0.3115796623522654  0.41671518922462514  0.710851912177425  1.0000
  C   C81       1.0  0.4645956638373646  0.41369371625390977  0.11220047642975571  1.0000
  C   C82       1.0  0.6131055522795918  0.7678617673189195  0.7167838614444622  1.0000
  C   C83       1.0  0.2910919701068905  0.3064872456741624  0.3484263860478265  1.0000
  N   N1        1.0  0.6691331475259757  0.6955394269188985  0.5797292238047689  1.0000
  N   N2        1.0  0.41939958841139446  0.5560303860933188  0.9675333366635998  1.0000
  N   N3        1.0  0.0006864960980763992  0.9560756988992194  0.9843852278722878  1.0000
  N   N4        1.0  0.4494290711208889  0.3165318650139993  0.48889736183060956  1.0000
  N   N5        1.0  0.9980691903865305  0.012812731804338267  0.03129929437601222  1.0000
  N   N6        1.0  0.5276578189237924  0.5561088602926387  0.6464022653945705  1.0000
  N   N7        1.0  0.625633647007234  0.45011527547973873  0.45939213767619685  1.0000
  N   N8        1.0  0.48106094594697874  0.47285906629215896  0.6114990837375487  1.0000
  N   N9        1.0  0.6416727704389942  0.5232165836408099  0.5114963998810823  1.0000
  N   N10       1.0  0.5152418962032853  0.318396973487843  0.48197084677983076  1.0000
  N   N11       1.0  0.6186060990285326  0.7004305217658666  0.6079362768587302  1.0000
  N   N12       1.0  0.3337312991924008  0.4637067475319155  0.5199686632662192  1.0000
  N   N13       1.0  0.6040456555172041  0.5620426045103953  0.378752740202728  1.0000
  N   N14       1.0  0.45651300062014843  0.5904938091397014  0.48486306443806637  1.0000
  N   N15       1.0  0.4137278993083909  0.3478635362708714  0.3602912169244448  1.0000
  N   N16       1.0  0.36880724185190417  0.3636878211678791  0.39305287002694905  1.0000
  N   N17       1.0  0.5041693930900876  0.5978511572941443  0.45005763170394186  1.0000
  N   N18       1.0  0.5420552004295232  0.4840227993204562  0.33714042745722145  1.0000
  N   N19       1.0  0.37778359946143064  0.5459159284583278  0.570720158251909  1.0000
  N   N20       1.0  0.4682530059589424  0.615185947873293  0.030566704820358715  1.0000
  O   O1        1.0  0.8835727990796584  0.7881921365898634  0.6521674392774203  1.0000
  O   O2        1.0  0.4128283002534587  0.35349581236048516  0.0549850847302054  1.0000
  O   O3        1.0  0.5385359726895942  0.725186118637552  0.6855131090113034  1.0000
  O   O4        1.0  0.4813683932202934  0.29617797470496027  0.2770935496732605  1.0000
  O   O5        1.0  0.3069593349415883  0.28695381741848536  0.4902436708695248  1.0000
  O   O6        1.0  0.8111479119632676  0.36614360374675664  0.456587308768114  1.0000
  O   O7        1.0  0.1318744968016716  0.41773011443596175  0.7210781221881177  1.0000
  O   O8        1.0  0.5938758689496736  0.06485298050090181  0.4922151500477412  1.0000
  O   O9        1.0  0.21274168865209478  0.916932812911746  0.27093700437521306  1.0000
  O   O10       1.0  0.20666825159069188  0.8821339893054087  0.43739597200811886  1.0000
  O   O11       1.0  0.30654859902364245  0.3781625410840731  0.6512158532850805  1.0000
  F   F1        1.0  0.20804601894214866  0.35901461724698447  0.48141526449972366  1.0000
  F   F2        1.0  0.2699372751571402  0.09653820148547958  0.1937560106346865  1.0000
  F   F3        1.0  0.7635163281586016  0.9261619033338278  0.8087351682062192  1.0000
  F   F4        1.0  0.5621915865967182  0.22485252699286204  0.4488732600310784  1.0000
  F   F5        1.0  0.363084028971734  0.6385369100165194  0.6570828268877804  1.0000
  F   F6        1.0  0.004291479537862097  0.5554960048785987  0.7642003975430711  1.0000
  F   F7        1.0  0.9585781919696073  0.42368085725584576  0.7016276347784469  1.0000
  F   F8        1.0  0.027420587832246195  0.6407616787209635  0.6889244224137343  1.0000
  F   F9        1.0  0.13925068403469248  0.6323536476628959  0.6573099950177195  1.0000
  F   F10       1.0  0.4910707660205275  0.893024423793378  0.4885572279504871  1.0000
  F   F11       1.0  0.5911091108540275  0.6458417638248051  0.8612920135074659  1.0000
  F   F12       1.0  0.5653467296742675  0.6747092946266093  0.9756117987038097  1.0000
