data_image0
_chemical_formula_structural       Co2H28C36N4O14
_chemical_formula_sum              "Co2 H28 C36 N4 O14"
_cell_length_a       7.244918700467968
_cell_length_b       10.631300063167487
_cell_length_c       10.755779719728112
_cell_angle_alpha    97.6962103331172
_cell_angle_beta     103.85675230162704
_cell_angle_gamma    94.39951124034455

_space_group_name_H-M_alt    "P 1"
_space_group_IT_number       1

loop_
  _space_group_symop_operation_xyz
  'x, y, z'

loop_
  _atom_site_type_symbol
  _atom_site_label
  _atom_site_symmetry_multiplicity
  _atom_site_fract_x
  _atom_site_fract_y
  _atom_site_fract_z
  _atom_site_occupancy
  Co  Co1       1.0  0.6828586370673763  0.6404396600258548  0.8693729657192931  1.0000
  Co  Co2       1.0  0.31714305233577983  0.359561342746538  0.13062705341518213  1.0000
  H   H1        1.0  0.6910931542635056  0.45213002509213845  0.024888784227663104  1.0000
  H   H2        1.0  0.3089058639812592  0.5478719442439726  0.975110937905157  1.0000
  H   H3        1.0  0.8035514121983026  0.43264599580678004  0.9095370699192031  1.0000
  H   H4        1.0  0.19644692863652582  0.5673521510310237  0.09046296131219121  1.0000
  H   H5        1.0  0.4568811758827992  0.5700161424771365  0.38062025115111453  1.0000
  H   H6        1.0  0.5431145981215053  0.42999157684117506  0.6193787940027065  1.0000
  H   H7        1.0  0.6961621822992329  0.7565293801457074  0.6104651948576247  1.0000
  H   H8        1.0  0.3038444992089495  0.24346778312123962  0.3895323175669958  1.0000
  H   H9        1.0  0.7522045337891045  0.9779701994163262  0.5588414860383608  1.0000
  H   H10       1.0  0.24780090051473283  0.022027923379042098  0.4411568855824656  1.0000
  H   H11       1.0  0.8058614082905038  0.16537043254397327  0.7356010793340175  1.0000
  H   H12       1.0  0.19413691939372058  0.8346277198608547  0.2643952315974403  1.0000
  H   H13       1.0  0.8301804794118083  0.24523473251682754  0.9743650995572893  1.0000
  H   H14       1.0  0.16981358627323573  0.754763436818628  0.02563053300553971  1.0000
  H   H15       1.0  0.8047412010120354  0.1982730396389697  0.18736144881694372  1.0000
  H   H16       1.0  0.19525371883264597  0.8017299046879172  0.8126358900413777  1.0000
  H   H17       1.0  0.7394340628746648  0.0345512968660415  0.3296329726223703  1.0000
  H   H18       1.0  0.2605644382716079  0.9654478094236723  0.6703644236281718  1.0000
  H   H19       1.0  0.6712846276764425  0.801837649070009  0.3459654134959109  1.0000
  H   H20       1.0  0.3287165479158745  0.19816048926422522  0.6540332098312689  1.0000
  H   H21       1.0  0.6522050327315937  0.6367503654267921  0.1546470292525655  1.0000
  H   H22       1.0  0.3477979005882545  0.36324967920893403  0.8453512006107147  1.0000
  H   H23       1.0  0.08419625418060413  0.6587781640484137  0.6332766511792158  1.0000
  H   H24       1.0  0.9158038542447217  0.3412218849156119  0.3667257768132259  1.0000
  H   H25       1.0  0.2546698199335324  0.4729564848325509  0.45983472643440854  1.0000
  H   H26       1.0  0.7453336370601062  0.5270464200660568  0.5401676894611214  1.0000
  H   H27       1.0  0.07376835309427321  0.36961669890388993  0.6273135565229567  1.0000
  H   H28       1.0  0.9262317520433925  0.6303833514518898  0.3726879413945028  1.0000
  C   C1        1.0  0.7186083316715611  0.840022922147412  0.6852335545175876  1.0000
  C   C2        1.0  0.2813971026322831  0.15997520064795612  0.3147648171032387  1.0000
  C   C3        1.0  0.7510368899283576  0.9640861264150615  0.6571410654665685  1.0000
  C   C4        1.0  0.2489644525506947  0.0359129685875672  0.3428567830297311  1.0000
  C   C5        1.0  0.7789218772711024  0.06824081601354949  0.7543762351487189  1.0000
  C   C6        1.0  0.22107789080542525  0.9317573223972033  0.24562588235551167  1.0000
  C   C7        1.0  0.7984583293627024  0.1471988501358581  0.9883212622348337  1.0000
  C   C8        1.0  0.20154319315371078  0.8528011959681405  0.011679531730521789  1.0000
  C   C9        1.0  0.785202208120566  0.1206716091460294  0.10696071646383835  1.0000
  C   C10       1.0  0.21479130420832607  0.8793313352573762  0.8930401165715409  1.0000
  C   C11       1.0  0.7283467426363047  0.9592250791829213  0.24758246636450557  1.0000
  C   C12       1.0  0.27165192868436355  0.04077498238343219  0.7524150851301384  1.0000
  C   C13       1.0  0.6932823162004808  0.8315553489499764  0.2571436320240608  1.0000
  C   C14       1.0  0.30671635183253443  0.16844471400813177  0.7428529893956011  1.0000
  C   C15       1.0  0.6803399027788828  0.7375385095442226  0.149402200758658  1.0000
  C   C16       1.0  0.3196612662381285  0.26245963157352753  0.8505945624185572  1.0000
  C   C17       1.0  0.7470370126220159  0.9923233266272998  0.1280201991290824  1.0000
  C   C18       1.0  0.25295614620748097  0.007677712789856597  0.8719766031181564  1.0000
  C   C19       1.0  0.7271177011169174  0.8914509548143811  0.023664922098447564  1.0000
  C   C20       1.0  0.27288080002935544  0.1085481514753326  0.9763324741520948  1.0000
  C   C21       1.0  0.7724121731964786  0.047349316151510806  0.8802192303980689  1.0000
  C   C22       1.0  0.22759485523580028  0.9526497548852004  0.11978045266472748  1.0000
  C   C23       1.0  0.7369012342638186  0.9191475216869449  0.8989711443050794  1.0000
  C   C24       1.0  0.2630955124425753  0.08084967690952279  0.1010275754843448  1.0000
  C   C25       1.0  0.33777397070599585  0.5817882524099003  0.7154282551961799  1.0000
  C   C26       1.0  0.6622252308637756  0.4182146666358264  0.28457534248067873  1.0000
  C   C27       1.0  0.14730168241867153  0.5693248829300188  0.6138133826881571  1.0000
  C   C28       1.0  0.8527026912934801  0.43067514771163223  0.386190653747903  1.0000
  C   C29       1.0  0.17971654498226294  0.5571170262248657  0.477242095903307  1.0000
  C   C30       1.0  0.8202789676703971  0.44288112633300597  0.5227612033822595  1.0000
  C   C31       1.0  0.009274202268507337  0.4599800939741884  0.6310258749043456  1.0000
  C   C32       1.0  0.9907269864744139  0.5400180387930291  0.3689764687227709  1.0000
  C   C33       1.0  0.9533511408937017  0.4867011106605118  0.7606540067798946  1.0000
  C   C34       1.0  0.046653229530804204  0.5132989213728933  0.23934909958118317  1.0000
  C   C35       1.0  0.3015443826259556  0.67763649039307  0.46715858468091653  1.0000
  C   C36       1.0  0.6984557389499743  0.3223635530039388  0.5328475636114619  1.0000
  N   N1        1.0  0.7110330640204197  0.8174940949340554  0.8030788407334554  1.0000
  N   N2        1.0  0.2889695256629849  0.1825040405401523  0.19691814856663833  1.0000
  N   N3        1.0  0.6972809305846325  0.7660620615288353  0.035234161196349575  1.0000
  N   N4        1.0  0.30271740038724454  0.2339360894842386  0.9647630798100906  1.0000
  O   O1        1.0  0.3465740429523478  0.6069253123151555  0.8350381216493971  1.0000
  O   O2        1.0  0.6534292372915971  0.3930766400903352  0.16496227885205883  1.0000
  O   O3        1.0  0.4928196878095861  0.5719012740222809  0.6777807125796188  1.0000
  O   O4        1.0  0.5071796806469279  0.42810260169183323  0.3222221102663596  1.0000
  O   O5        1.0  0.6919441784417301  0.47016759369400757  0.9375545171513978  1.0000
  O   O6        1.0  0.3080532489622456  0.5298334260090058  0.06244482361444173  1.0000
  O   O7        1.0  0.9465466905309511  0.3957723336294166  0.8245880450047594  1.0000
  O   O8        1.0  0.053451303379787915  0.6042239054386299  0.17540981558845914  1.0000
  O   O9        1.0  0.9029061360091719  0.598168632240828  0.7868959824869961  1.0000
  O   O10       1.0  0.0970998351190673  0.40183234525040484  0.21311029546600926  1.0000
  O   O11       1.0  0.2700911678682801  0.7848688319872892  0.5083744303602771  1.0000
  O   O12       1.0  0.7299108947601879  0.21513406742082  0.49163520001223304  1.0000
  O   O13       1.0  0.4434679957061576  0.6623709191200149  0.4079676267140471  1.0000
  O   O14       1.0  0.5565260271459209  0.3376348911133036  0.5920336720536454  1.0000
