data_image0
_chemical_formula_structural       Al2H14C24S2N2O10
_chemical_formula_sum              "Al2 H14 C24 S2 N2 O10"
_cell_length_a       6.658856079116767
_cell_length_b       12.791158166207701
_cell_length_c       17.630020876829352
_cell_angle_alpha    83.25610454834084
_cell_angle_beta     79.02070491412726
_cell_angle_gamma    74.46636650664826

_space_group_name_H-M_alt    "P 1"
_space_group_IT_number       1

loop_
  _space_group_symop_operation_xyz
  'x, y, z'

loop_
  _atom_site_type_symbol
  _atom_site_label
  _atom_site_symmetry_multiplicity
  _atom_site_fract_x
  _atom_site_fract_y
  _atom_site_fract_z
  _atom_site_occupancy
  Al  Al1       1.0  0.4947853172239647  0.5241675645108543  0.4991667214713189  1.0000
  Al  Al2       1.0  0.994406493486743  0.5241190950643356  0.5002409969042745  1.0000
  H   H1        1.0  0.28293330993453475  0.39896951238176825  0.5535859988145403  1.0000
  H   H2        1.0  0.7619745331224049  0.5870547548483245  0.4065208303037835  1.0000
  H   H3        1.0  0.712516269682574  0.4192503063170748  0.27636978478826524  1.0000
  H   H4        1.0  0.790988461277884  0.3870723670055581  0.1353449607865684  1.0000
  H   H5        1.0  0.04998763883390466  0.5308521988199361  0.2641013896610501  1.0000
  H   H6        1.0  0.9109732226100392  0.5451772645718407  0.7371503983593397  1.0000
  H   H7        1.0  0.3374839689393809  0.45820282637002663  0.7257738399352858  1.0000
  H   H8        1.0  0.2847949239617763  0.4139022366403893  0.8693592761468308  1.0000
  H   H9        1.0  0.38954161911875934  0.8726930831826182  0.4766526156299235  1.0000
  H   H10       1.0  0.6010046690764527  0.17139705925607981  0.5240805923137585  1.0000
  H   H11       1.0  0.13215990033897645  0.5091188888518587  0.05487649528713228  1.0000
  H   H12       1.0  0.9471722095171559  0.5486881953201745  0.13571165518950318  1.0000
  H   H13       1.0  0.8311111604672237  0.5162836372095043  0.9492407707997826  1.0000
  H   H14       1.0  0.9804356574851527  0.5608731664884703  0.8674489729057696  1.0000
  C   C1        1.0  0.8508702113200499  0.32612698540754087  0.5016165223175051  1.0000
  C   C2        1.0  0.6653355527645674  0.5237082544738385  0.6382878084112419  1.0000
  C   C3        1.0  0.13893179059367367  0.7185765211422106  0.49948887332289615  1.0000
  C   C4        1.0  0.32900660597444187  0.5042682858405243  0.36062081442793925  1.0000
  C   C5        1.0  0.3764565783024167  0.47944000139850834  0.27750720321833455  1.0000
  C   C6        1.0  0.586395024859975  0.4373509005168685  0.2419275581898788  1.0000
  C   C7        1.0  0.6289786171597315  0.41932721687290814  0.16373054086843547  1.0000
  C   C8        1.0  0.4656586601332793  0.4444489372573414  0.11891295169657207  1.0000
  C   C9        1.0  0.2517652070803679  0.4831788169104954  0.1557509201773826  1.0000
  C   C10       1.0  0.21160458971710477  0.4996656418046683  0.23502146382991637  1.0000
  C   C11       1.0  0.5080153344820671  0.43901434241789167  0.0376613838016411  1.0000
  C   C12       1.0  0.5259186618901025  0.44490790738397834  0.9668369240959219  1.0000
  C   C13       1.0  0.5610188005786088  0.4610171939516547  0.8852635776440819  1.0000
  C   C14       1.0  0.7409687702453526  0.4990875000451283  0.8480280326956658  1.0000
  C   C15       1.0  0.7724598642606042  0.518360878565737  0.7672143857009599  1.0000
  C   C16       1.0  0.6267325274460165  0.5048913734170668  0.7242300888470723  1.0000
  C   C17       1.0  0.44778103777604633  0.46896897311873426  0.7607893908577663  1.0000
  C   C18       1.0  0.41895458247988426  0.4451442365546967  0.8402990367617205  1.0000
  C   C19       1.0  0.2188183644524883  0.9044959467878543  0.4880383767142788  1.0000
  C   C20       1.0  0.7717397462579642  0.1401147621997936  0.5125715620548519  1.0000
  C   C21       1.0  0.08151761203861686  0.8376115225089935  0.5004290766388947  1.0000
  C   C22       1.0  0.908472986798863  0.20724217406703363  0.5002463336637887  1.0000
  C   C23       1.0  0.8841766181989358  0.029998982417296795  0.5082025374454701  1.0000
  C   C24       1.0  0.10627423847715531  0.014647933079999094  0.4924040771293861  1.0000
  S   S1        1.0  0.8161933930816264  0.9076122796931331  0.5176255392120837  1.0000
  S   S2        1.0  0.17386916169049021  0.13719471000933942  0.4830801616692212  1.0000
  N   N1        1.0  0.09055664549745764  0.5025563491990538  0.11335086512903557  1.0000
  N   N2        1.0  0.8823162856325697  0.5131210789516273  0.891342772994058  1.0000
  O   O1        1.0  0.6538667665602915  0.3732944516012964  0.5119284164325677  1.0000
  O   O2        1.0  0.8556734020946875  0.5164494787546019  0.6051852072306119  1.0000
  O   O3        1.0  0.9870360461250987  0.6724773991177314  0.50976391952355  1.0000
  O   O4        1.0  0.48630311591716685  0.5006592400923823  0.39333664087033077  1.0000
  O   O5        1.0  0.33534338941316816  0.6712966879585097  0.48757499046892144  1.0000
  O   O6        1.0  0.13519751123502022  0.5288234127318817  0.39294611515394  1.0000
  O   O7        1.0  0.0033445556092460294  0.3718865001805796  0.4931427917343  1.0000
  O   O8        1.0  0.5063949004823061  0.5424602708877231  0.6038572981631702  1.0000
  O   O9        1.0  0.25277242695708674  0.4746389098771502  0.5341797282529299  1.0000
  O   O10       1.0  0.7413636781903468  0.5688691015016898  0.46190546759916623  1.0000
