data_image0
_chemical_formula_structural       CuH16C16Br2N4O2
_chemical_formula_sum              "Cu1 H16 C16 Br2 N4 O2"
_cell_length_a       7.592320336688972
_cell_length_b       7.6522579127646475
_cell_length_c       8.129386053658166
_cell_angle_alpha    67.13220869557499
_cell_angle_beta     85.43175979923711
_cell_angle_gamma    76.18365492964823

_space_group_name_H-M_alt    "P 1"
_space_group_IT_number       1

loop_
  _space_group_symop_operation_xyz
  'x, y, z'

loop_
  _atom_site_type_symbol
  _atom_site_label
  _atom_site_symmetry_multiplicity
  _atom_site_fract_x
  _atom_site_fract_y
  _atom_site_fract_z
  _atom_site_occupancy
  Cu  Cu1       1.0  0.999999101453895  3.883566961012695e-07  0.5000007370075323  1.0000
  H   H1        1.0  0.22484025482874165  0.28690540802942616  0.37572035756432604  1.0000
  H   H2        1.0  0.7751575225959968  0.7130952878851884  0.6242812490609992  1.0000
  H   H3        1.0  0.0381466382317015  0.2677753521436728  0.9747893570401446  1.0000
  H   H4        1.0  0.9618514492558465  0.7322238877240179  0.025212758872015694  1.0000
  H   H5        1.0  0.9526909495859072  0.05263248569694669  0.8405606995013671  1.0000
  H   H6        1.0  0.04730977908190683  0.9473667609409231  0.1594412273166554  1.0000
  H   H7        1.0  0.31824483436069056  0.5174091862052563  0.4867163921271428  1.0000
  H   H8        1.0  0.6817529430640478  0.4825915097093512  0.5132852144981825  1.0000
  H   H9        1.0  0.28524219584186733  0.8154582046295856  0.8888127823265181  1.0000
  H   H10       1.0  0.7147622054023657  0.18454250953561768  0.1111834291451643  1.0000
  H   H11       1.0  0.5152674731605345  0.7690131667420843  0.823912465944197  1.0000
  H   H12       1.0  0.4847353026479696  0.23098900041625106  0.1760821001831445  1.0000
  H   H13       1.0  0.6427698792271528  0.4292714320452191  0.8071026271182122  1.0000
  H   H14       1.0  0.35723451679987767  0.570729281788708  0.19289481495805214  1.0000
  H   H15       1.0  0.49145812192496413  0.27178958490038946  0.8576832404139269  1.0000
  H   H16       1.0  0.5085452635747386  0.7282096695015172  0.14231480549623396  1.0000
  C   C1        1.0  0.18723366176267586  0.28855438406100115  0.5071287874305241  1.0000
  C   C2        1.0  0.8127644205076622  0.7114448554753992  0.4928745590862108  1.0000
  C   C3        1.0  0.21150381273578484  0.5624776468213213  0.8017195835890335  1.0000
  C   C4        1.0  0.7884939699061635  0.4375230494245769  0.1982807924317171  1.0000
  C   C5        1.0  0.18523084516557725  0.40943067424698387  0.7394535486380037  1.0000
  C   C6        1.0  0.8147695734394275  0.5905700284378099  0.260547868893191  1.0000
  C   C7        1.0  0.0835180608461101  0.27507903427909497  0.8418836930002058  1.0000
  C   C8        1.0  0.9164797165786283  0.7249216616355195  0.1581179136251266  1.0000
  C   C9        1.0  0.03657552604936139  0.1550930136847128  0.7693169943812209  1.0000
  C   C10       1.0  0.9634235719655138  0.8449076856149914  0.23068451769704282  1.0000
  C   C11       1.0  0.24031031584146942  0.4132868966594713  0.5703330322127017  1.0000
  C   C12       1.0  0.7596890922362148  0.586712346593309  0.4296689891523897  1.0000
  C   C13       1.0  0.4105450171043614  0.7026727619135753  0.9112103486387612  1.0000
  C   C14       1.0  0.5894596942026737  0.297326496204711  0.08878637211974905  1.0000
  C   C15       1.0  0.5293635188358863  0.38243788676071216  0.8929312390992621  1.0000
  C   C16       1.0  0.4706398770982291  0.6175613683037608  0.10706434560174233  1.0000
  Br  Br1       1.0  0.313982091068496  0.9127906906432555  0.38879048433145175  1.0000
  Br  Br2       1.0  0.6860131516009178  0.08721582773039667  0.6112030266707364  1.0000
  N   N1        1.0  0.08553200062165442  0.1628833041162991  0.6038043680909341  1.0000
  N   N2        1.0  0.9144660816486907  0.8371159354201012  0.3961989784257939  1.0000
  N   N3        1.0  0.37706850337036  0.5500284110903308  0.8603504004682206  1.0000
  N   N4        1.0  0.6229362079366824  0.44997084702794876  0.13964632029029636  1.0000
  O   O1        1.0  0.07715230919661314  0.6974890298974329  0.793440203819543  1.0000
  O   O2        1.0  0.9228493600940343  0.3025058492622249  0.20656078964981361  1.0000
