data_image0
_chemical_formula_structural       Cd8H80C96N16O40
_chemical_formula_sum              "Cd8 H80 C96 N16 O40"
_cell_length_a       12.535831348012573
_cell_length_b       15.31820454803274
_cell_length_c       18.69241138002095
_cell_angle_alpha    89.99983046920043
_cell_angle_beta     90.0000233725264
_cell_angle_gamma    89.9998367330226

_space_group_name_H-M_alt    "P 1"
_space_group_IT_number       1

loop_
  _space_group_symop_operation_xyz
  'x, y, z'

loop_
  _atom_site_type_symbol
  _atom_site_label
  _atom_site_symmetry_multiplicity
  _atom_site_fract_x
  _atom_site_fract_y
  _atom_site_fract_z
  _atom_site_occupancy
  Cd  Cd1       1.0  0.20097082458534735  0.22396801031110417  0.3132627068536564  1.0000
  Cd  Cd2       1.0  0.7009688101856636  0.27602899831676103  0.6867372587636069  1.0000
  Cd  Cd3       1.0  0.7990315507539519  0.7239713198841218  0.18673489245188785  1.0000
  Cd  Cd4       1.0  0.29903212211637953  0.7760290833318776  0.813259605570039  1.0000
  Cd  Cd5       1.0  0.7990316269509774  0.7760293899738646  0.6867345249676191  1.0000
  Cd  Cd6       1.0  0.2990304504946053  0.7239697076098537  0.31325890310278476  1.0000
  Cd  Cd7       1.0  0.20096770992073226  0.276030650131645  0.8132618043869966  1.0000
  Cd  Cd8       1.0  0.7009655431354176  0.22397092822971845  0.18673816122394268  1.0000
  H   H1        1.0  0.4181392592663329  0.3986563247017473  0.48835068631579037  1.0000
  H   H2        1.0  0.9181497097297465  0.10134344875810095  0.5116546822049415  1.0000
  H   H3        1.0  0.5818521289082595  0.8986509737378726  0.011650769444635499  1.0000
  H   H4        1.0  0.08186300744933558  0.601349275897995  0.9883490251998878  1.0000
  H   H5        1.0  0.5818488334246013  0.6013449924981986  0.5116518952635474  1.0000
  H   H6        1.0  0.08186470751119398  0.8986532986777009  0.4883521791948056  1.0000
  H   H7        1.0  0.4181455363430046  0.10134903782662262  0.9883453924199795  1.0000
  H   H8        1.0  0.9181482189388248  0.39864681872634833  0.011656231270890799  1.0000
  H   H9        1.0  0.5511667564113905  0.4058043461310064  0.5896741648023891  1.0000
  H   H10       1.0  0.05117806922210379  0.09419757657173021  0.41033164889478246  1.0000
  H   H11       1.0  0.44882334732866264  0.9057998192354406  0.9103288047359113  1.0000
  H   H12       1.0  0.9488231689796007  0.5941963227277969  0.0896651949684255  1.0000
  H   H13       1.0  0.4488213362768009  0.5941989295191448  0.4103305566803995  1.0000
  H   H14       1.0  0.948833157160905  0.9058011293276066  0.5896720026434605  1.0000
  H   H15       1.0  0.5511719247884982  0.09419692824072  0.089667892108821  1.0000
  H   H16       1.0  0.05117449628390599  0.4057971606526039  0.9103331068099223  1.0000
  H   H17       1.0  0.6306697125649946  0.14576468601755016  0.5645332710747225  1.0000
  H   H18       1.0  0.13067773081857578  0.35423770673615007  0.4354763069108998  1.0000
  H   H19       1.0  0.36932290492180897  0.6457628623313882  0.9354719336091788  1.0000
  H   H20       1.0  0.8693257799149162  0.8542354208310601  0.06452739640387509  1.0000
  H   H21       1.0  0.36933114353357144  0.8542398952588075  0.4354687755257629  1.0000
  H   H22       1.0  0.8693263161372753  0.6457642632683188  0.5645235997873141  1.0000
  H   H23       1.0  0.63066917633774  0.35423780204208555  0.06453278787725478  1.0000
  H   H24       1.0  0.13067587391782348  0.14575675690775114  0.9354714403529982  1.0000
  H   H25       1.0  0.4979900386501867  0.1273281334528988  0.46403580995838917  1.0000
  H   H26       1.0  0.9979891770023953  0.37267145645530764  0.5359701130769849  1.0000
  H   H27       1.0  0.5020047008504916  0.6273248366648404  0.0359668383539429  1.0000
  H   H28       1.0  0.0020146048574502997  0.8726762493393708  0.9640366815861087  1.0000
  H   H29       1.0  0.5020108174539644  0.8726731837343068  0.5359657016695961  1.0000
  H   H30       1.0  0.0020068928173771  0.6273311663840746  0.46402551380781165  1.0000
  H   H31       1.0  0.4979977506819394  0.37267517488835017  0.9640325333699948  1.0000
  H   H32       1.0  0.9979910375400107  0.1273178868411904  0.03596643498053  1.0000
  H   H33       1.0  0.22142703308952597  0.4285761232030155  0.3390820301284164  1.0000
  H   H34       1.0  0.7214217353180743  0.07142736658149573  0.6609190104391016  1.0000
  H   H35       1.0  0.7785722265320415  0.9285841428046029  0.1609140033400678  1.0000
  H   H36       1.0  0.2785823126961446  0.5714143489673804  0.8390869093964568  1.0000
  H   H37       1.0  0.7785666436020193  0.5714206242691873  0.6609178765748638  1.0000
  H   H38       1.0  0.27857034593052526  0.928577867533598  0.3390771514185005  1.0000
  H   H39       1.0  0.22142384328578393  0.0714197856688941  0.83908269349606  1.0000
  H   H40       1.0  0.7214344976806614  0.4285843569236008  0.16091781209538414  1.0000
  H   H41       1.0  0.11760758268350457  0.5660336388923072  0.3205031884837837  1.0000
  H   H42       1.0  0.6176081965214237  0.9339671813688429  0.6795014296961881  1.0000
  H   H43       1.0  0.8823969458203463  0.0660390383363776  0.17949425860493304  1.0000
  H   H44       1.0  0.38240494145600923  0.433958858855256  0.8205014715954775  1.0000
  H   H45       1.0  0.8823916779982709  0.4339644142143585  0.679494043336305  1.0000
  H   H46       1.0  0.3823870755834164  0.06603674710363801  0.32049633709275577  1.0000
  H   H47       1.0  0.11760630341956357  0.9339635844947555  0.8205013682807374  1.0000
  H   H48       1.0  0.6176134643410832  0.5660424583156498  0.17949790012882968  1.0000
  H   H49       1.0  0.9132159744112014  0.4203710045949621  0.17661458971706875  1.0000
  H   H50       1.0  0.4132180438791479  0.07962943299972383  0.8233966623381334  1.0000
  H   H51       1.0  0.08677932564343387  0.9203669712326958  0.3233884183449902  1.0000
  H   H52       1.0  0.5867835820044717  0.5796306558157555  0.6766092376017524  1.0000
  H   H53       1.0  0.0867721182863974  0.5796270485100409  0.8233906667485085  1.0000
  H   H54       1.0  0.5867812167998209  0.9203712313693659  0.17660591924335725  1.0000
  H   H55       1.0  0.9132183396152839  0.07962912342076583  0.6766093484537378  1.0000
  H   H56       1.0  0.4132268466535577  0.4203739254534683  0.32339066909408126  1.0000
  H   H57       1.0  0.023770617655934193  0.2892384643974993  0.20314733212462235  1.0000
  H   H58       1.0  0.5237697055080233  0.2107667853866388  0.7968595448161437  1.0000
  H   H59       1.0  0.9762099889308827  0.7892383575690476  0.2968592035959219  1.0000
  H   H60       1.0  0.4762298618536532  0.7107616382900519  0.7031524570307113  1.0000
  H   H61       1.0  0.9762087002010559  0.7107569774368018  0.7968627391311429  1.0000
  H   H62       1.0  0.47622476888437143  0.7892371430819339  0.20314089685498254  1.0000
  H   H63       1.0  0.0237717220562885  0.21076165399832555  0.7031455178900359  1.0000
  H   H64       1.0  0.5237845553744265  0.2892422901449621  0.29685386938387376  1.0000
  H   H65       1.0  0.27634369942386167  0.12930362712965862  0.20692663051917035  1.0000
  H   H66       1.0  0.7763446130820881  0.3706919025948779  0.7930701436851135  1.0000
  H   H67       1.0  0.7236614033489487  0.629313254019891  0.2930695932735857  1.0000
  H   H68       1.0  0.22364880549578448  0.8706945034681013  0.7069275611771599  1.0000
  H   H69       1.0  0.723658752124166  0.8706872449741213  0.7930711362864713  1.0000
  H   H70       1.0  0.22364826588648865  0.6293087618008716  0.206921738366475  1.0000
  H   H71       1.0  0.2763458344468929  0.37069589698301547  0.7069281735104906  1.0000
  H   H72       1.0  0.7763432757571707  0.1293087721880894  0.29307127556509727  1.0000
  H   H73       1.0  0.3834741281191753  0.1781988916308634  0.22321608249465894  1.0000
  H   H74       1.0  0.8834752034944485  0.32179704463936093  0.7767791129944042  1.0000
  H   H75       1.0  0.6165284088472518  0.6782049067366601  0.27677948782556416  1.0000
  H   H76       1.0  0.11651918547003959  0.8217985272993507  0.72321924534495  1.0000
  H   H77       1.0  0.6165259302811704  0.8217958973876663  0.7767795444001135  1.0000
  H   H78       1.0  0.11651847319006947  0.6782029669297174  0.22321704886972069  1.0000
  H   H79       1.0  0.3834764358151048  0.3218003273627944  0.7232172090100519  1.0000
  H   H80       1.0  0.8834736934986508  0.1782027899076581  0.27677638154104045  1.0000
  C   C1        1.0  0.36503970113280804  0.2532445742176108  0.41145762000680713  1.0000
  C   C2        1.0  0.8650401172230033  0.24675662696073897  0.5885455956117767  1.0000
  C   C3        1.0  0.634961773113659  0.7532420875021659  0.08853937337597269  1.0000
  C   C4        1.0  0.1349665024490676  0.7467573872324991  0.9114604342645691  1.0000
  C   C5        1.0  0.6349587618353637  0.7467541317031563  0.5885422866946826  1.0000
  C   C6        1.0  0.13495994116016158  0.7532486071393906  0.4114537761055388  1.0000
  C   C7        1.0  0.3650406784071407  0.24676379941999477  0.9114562535056546  1.0000
  C   C8        1.0  0.8650423308043712  0.2532360961186413  0.0885469621148971  1.0000
  C   C9        1.0  0.44767164044238666  0.26181456931830394  0.4695453633582075  1.0000
  C   C10       1.0  0.9476808225911666  0.23818252497314063  0.5304642922037813  1.0000
  C   C11       1.0  0.5523210286972356  0.7618105239435097  0.030457493996585993  1.0000
  C   C12       1.0  0.05232901820446759  0.7381891407589549  0.9695455032808198  1.0000
  C   C13       1.0  0.5523220362441136  0.7381854422401447  0.530456683246932  1.0000
  C   C14       1.0  0.05232242665435649  0.7618181393923253  0.4695377544017418  1.0000
  C   C15       1.0  0.4476830182616069  0.23818883479756187  0.969537597916691  1.0000
  C   C16       1.0  0.9476758264776207  0.261806953868863  0.030461893095001392  1.0000
  C   C17       1.0  0.463864294785992  0.34147656524751824  0.5044792314041189  1.0000
  C   C18       1.0  0.9638753301886563  0.15852310309352902  0.4955282882114743  1.0000
  C   C19       1.0  0.5361292269793267  0.8414721827109023  0.99552389403604  1.0000
  C   C20       1.0  0.036137646542144394  0.6585275192162285  0.004477494349899298  1.0000
  C   C21       1.0  0.5361269887588732  0.6585247519458622  0.4955249551049761  1.0000
  C   C22       1.0  0.03613669390841779  0.8414756028010262  0.5044775032326925  1.0000
  C   C23       1.0  0.46386843827503543  0.15852587040146207  0.004471197878032699  1.0000
  C   C24       1.0  0.9638671981394039  0.34146857541448844  0.9955282970965482  1.0000
  C   C25       1.0  0.5369220860223293  0.3453619531838612  0.5603746457428542  1.0000
  C   C26       1.0  0.03693559822860949  0.15463869662063706  0.4396343743292164  1.0000
  C   C27       1.0  0.46306902888015583  0.8453585933332518  0.9396290052557886  1.0000
  C   C28       1.0  0.963068617379811  0.6546381686988595  0.0603655329101116  1.0000
  C   C29       1.0  0.46306919752156256  0.6546400168265762  0.4396300757419027  1.0000
  C   C30       1.0  0.963073235011869  0.8453613149184563  0.5603687422306933  1.0000
  C   C31       1.0  0.5369286363762525  0.15463880695625684  0.060368761541354794  1.0000
  C   C32       1.0  0.0369282501680388  0.3453566203185049  0.9396327688665522  1.0000
  C   C33       1.0  0.5807862024219616  0.1997345472898076  0.5466029286624233  1.0000
  C   C34       1.0  0.08079522104100077  0.3002673073176467  0.4534071720940175  1.0000
  C   C35       1.0  0.4192038313317424  0.6997325441608029  0.9534021452227036  1.0000
  C   C36       1.0  0.9192116711363736  0.8002682355961996  0.0465993368995328  1.0000
  C   C37       1.0  0.4192098673989974  0.8002687283550358  0.4533996529155147  1.0000
  C   C38       1.0  0.9192080282024689  0.6997340098706744  0.546592199628428  1.0000
  C   C39       1.0  0.5807922384963858  0.30026616176272125  0.0465977614784876  1.0000
  C   C40       1.0  0.08079078040333339  0.19972785904693072  0.95340110478206  1.0000
  C   C41       1.0  0.50851975334389  0.18990525023575341  0.49077064884502875  1.0000
  C   C42       1.0  0.0085263816607437  0.31009415923188755  0.5092388992541571  1.0000
  C   C43       1.0  0.49147556288331623  0.689900115779068  0.0092307778578942  1.0000
  C   C44       1.0  0.9914784189031564  0.8100985393956608  0.990766977115882  1.0000
  C   C45       1.0  0.49147791190607387  0.8100967197712167  0.5092319327346857  1.0000
  C   C46       1.0  0.9914760698722274  0.6899058523184111  0.4907620773991467  1.0000
  C   C47       1.0  0.5085252932253326  0.3100979373247982  0.9907669889388514  1.0000
  C   C48       1.0  0.008520841781035  0.1898988608862169  0.009233999540192899  1.0000
  C   C49       1.0  0.15251894432828547  0.4299236828245868  0.30363822490458847  1.0000
  C   C50       1.0  0.6525168660073674  0.07007865972165922  0.6963665436382199  1.0000
  C   C51       1.0  0.8474787151146899  0.9299281518874309  0.1963599452079521  1.0000
  C   C52       1.0  0.3474879844743268  0.570070834299912  0.8036404494127181  1.0000
  C   C53       1.0  0.8474739346500896  0.5700730646475665  0.6963622167750427  1.0000
  C   C54       1.0  0.3474744175293978  0.9299259215744018  0.303630688172987  1.0000
  C   C55       1.0  0.15251895013310698  0.070073818131128  0.8036362166542901  1.0000
  C   C56       1.0  0.6525264327599486  0.4299291772308322  0.1963637371007891  1.0000
  C   C57       1.0  0.09504116554418118  0.5064529730320403  0.2924592571048378  1.0000
  C   C58       1.0  0.595042385542662  0.99355051037211  0.7075480304322994  1.0000
  C   C59       1.0  0.9049587870943865  0.0064543023906651  0.20753779940854133  1.0000
  C   C60       1.0  0.40496495802468496  0.49354289011525765  0.7924600762191714  1.0000
  C   C61       1.0  0.9049549042857093  0.49354442725833536  0.7075390446685645  1.0000
  C   C62       1.0  0.4049536842785527  0.006452112459541601  0.2924518762641454  1.0000
  C   C63       1.0  0.09504446215402845  0.9935430979001583  0.7924556875776358  1.0000
  C   C64       1.0  0.595049459207722  0.5064577742373757  0.20754197038772298  1.0000
  C   C65       1.0  0.007096447632015698  0.504538442021591  0.2464159649759097  1.0000
  C   C66       1.0  0.5071024781184263  0.9954619794533457  0.7535934409514411  1.0000
  C   C67       1.0  0.9929011186336111  0.004536791608394702  0.25358323608657674  1.0000
  C   C68       1.0  0.49290326326167383  0.4954595459251224  0.7464114512022701  1.0000
  C   C69       1.0  0.9928980267671079  0.4954615695398132  0.7535839417235122  1.0000
  C   C70       1.0  0.492892793993434  0.0045386849222595  0.24640807067665083  1.0000
  C   C71       1.0  0.0071013329026073  0.9954599558653218  0.7464102509002898  1.0000
  C   C72       1.0  0.5071071654007823  0.5045424240729731  0.2535879205202676  1.0000
  C   C73       1.0  0.980940244972565  0.4257376782722845  0.21284587200360505  1.0000
  C   C74       1.0  0.48094230902489693  0.07426456209059752  0.7871648616449674  1.0000
  C   C75       1.0  0.0190558338397864  0.925735237118019  0.28715551812084067  1.0000
  C   C76       1.0  0.5190641220926863  0.5742618927889611  0.7128442611609953  1.0000
  C   C77       1.0  0.0190502408630238  0.5742610276528168  0.7871567095791858  1.0000
  C   C78       1.0  0.5190537607968579  0.9257380607381621  0.21283664998085064  1.0000
  C   C79       1.0  0.9809442245580795  0.07426085753752433  0.7128395737958967  1.0000
  C   C80       1.0  0.4809494974206101  0.4257420356547001  0.2871577854418419  1.0000
  C   C81       1.0  0.0426109081653649  0.3522921341926876  0.22688790822460453  1.0000
  C   C82       1.0  0.5426110004423988  0.1477111138235969  0.7731200432818068  1.0000
  C   C83       1.0  0.957379048306535  0.8522928092495337  0.27311526482365867  1.0000
  C   C84       1.0  0.457390385025647  0.6477052714690077  0.7268883665495094  1.0000
  C   C85       1.0  0.9573755891093539  0.6477039604581452  0.7731184181960555  1.0000
  C   C86       1.0  0.45738347395132434  0.8522921618259788  0.2268809333665658  1.0000
  C   C87       1.0  0.04261303295484709  0.1477058966785663  0.7268846418770493  1.0000
  C   C88       1.0  0.5426208413514216  0.3522966985213998  0.2731147500083182  1.0000
  C   C89       1.0  0.942518903561101  0.5856278353412634  0.23255420620240128  1.0000
  C   C90       1.0  0.4425245395528278  0.9143722379921472  0.7674531663666  1.0000
  C   C91       1.0  0.057479174054712694  0.085625021142441  0.26744533331378756  1.0000
  C   C92       1.0  0.5574814881897153  0.41437166453555113  0.7325492474276771  1.0000
  C   C93       1.0  0.05747716626472509  0.4143721762183077  0.7674457004972124  1.0000
  C   C94       1.0  0.557472327985188  0.08562842638452392  0.23254674033231734  1.0000
  C   C95       1.0  0.9425224797698418  0.9143710735112692  0.7325497586031486  1.0000
  C   C96       1.0  0.44252734504720337  0.585629652646354  0.2674501242954577  1.0000
  N   N1        1.0  0.5937529106503375  0.2756461071543513  0.5816662651607487  1.0000
  N   N2        1.0  0.09376456691124697  0.22435506482471376  0.41834330379331414  1.0000
  N   N3        1.0  0.4062416413036302  0.7756436076786032  0.918336484844218  1.0000
  N   N4        1.0  0.9062433910661909  0.7243526321687526  0.08165857439347227  1.0000
  N   N5        1.0  0.40624395688548265  0.7243565156696193  0.418337386370986  1.0000
  N   N6        1.0  0.9062458617555647  0.7756449467144864  0.5816587428138786  1.0000
  N   N7        1.0  0.5937560239518049  0.22435444542795585  0.0816618169285945  1.0000
  N   N8        1.0  0.093757465049201  0.27564150402793797  0.9183386574315618  1.0000
  N   N9        1.0  0.12646894110203988  0.3537523101347802  0.2720575838509518  1.0000
  N   N10       1.0  0.6264666150165964  0.14625270356556547  0.727948783243562  1.0000
  N   N11       1.0  0.8735234033483434  0.8537552995958961  0.22794291077370588  1.0000
  N   N12       1.0  0.37353637103242926  0.6462449323440681  0.7720612350541884  1.0000
  N   N13       1.0  0.8735215447373647  0.6462444373343247  0.727946067687121  1.0000
  N   N14       1.0  0.37352706166208083  0.8537512249058499  0.2720505884745491  1.0000
  N   N15       1.0  0.126469475623189  0.1462447119721659  0.7720543210432353  1.0000
  N   N16       1.0  0.6264772484875251  0.3537557320046503  0.22794348643488854  1.0000
  O   O1        1.0  0.34429768549946244  0.17697656330856404  0.3882097730032257  1.0000
  O   O2        1.0  0.8443010387377753  0.32302468554885877  0.6117934375401219  1.0000
  O   O3        1.0  0.655703260370302  0.6769759033779155  0.11179061507537819  1.0000
  O   O4        1.0  0.1557116933056051  0.8230228708532439  0.8882091976418707  1.0000
  O   O5        1.0  0.6557047660381201  0.8230208369696471  0.6117912036532474  1.0000
  O   O6        1.0  0.1557030082059043  0.676983159827472  0.3882011193864088  1.0000
  O   O7        1.0  0.34429998886297847  0.32303128917164514  0.8882092916164124  1.0000
  O   O8        1.0  0.8442931513822173  0.17696865406097836  0.11179124404555549  1.0000
  O   O9        1.0  0.31891578631657314  0.32211762115766623  0.389455019209734  1.0000
  O   O10       1.0  0.8189132695721851  0.17788368605913976  0.6105460452160896  1.0000
  O   O11       1.0  0.68108544470374  0.822116254567611  0.11054020232499079  1.0000
  O   O12       1.0  0.1810880093281426  0.6778844197826646  0.8894553367885649  1.0000
  O   O13       1.0  0.6810866652149555  0.6778823904003632  0.6105416776319216  1.0000
  O   O14       1.0  0.18108439566942278  0.8221222008636957  0.38945225654722276  1.0000
  O   O15       1.0  0.31891301824595786  0.17789159081803524  0.8894527496714913  1.0000
  O   O16       1.0  0.818927205625897  0.3221129804654127  0.1105541994927677  1.0000
  O   O17       1.0  0.9874978419638152  0.6596808380374101  0.23853087893986213  1.0000
  O   O18       1.0  0.4875045331624007  0.8403210903526387  0.76147489970392  1.0000
  O   O19       1.0  0.012497580996210898  0.15967880163780995  0.261474900821355  1.0000
  O   O20       1.0  0.5125017560899464  0.3403192930773642  0.7385207388646293  1.0000
  O   O21       1.0  0.012497430150283198  0.34031917351437363  0.7614738425477583  1.0000
  O   O22       1.0  0.512493929800982  0.15968022684118213  0.23852447201794993  1.0000
  O   O23       1.0  0.987500084264738  0.84031664019183  0.7385260758369012  1.0000
  O   O24       1.0  0.48750388629073166  0.6596833297471535  0.2614770279271638  1.0000
  O   O25       1.0  0.8453406762579689  0.5761236031097283  0.21391937092700178  1.0000
  O   O26       1.0  0.3453431003618235  0.9238773464439235  0.7860869079082845  1.0000
  O   O27       1.0  0.154657434920324  0.0761224566434962  0.2860844714328009  1.0000
  O   O28       1.0  0.6546612983939539  0.4238726999912999  0.7139149478781589  1.0000
  O   O29       1.0  0.15465459585468008  0.423876408449786  0.7860810707489632  1.0000
  O   O30       1.0  0.6546529694601091  0.0761252763838698  0.21391513869398435  1.0000
  O   O31       1.0  0.8453434211907406  0.9238749436355748  0.7139170401999309  1.0000
  O   O32       1.0  0.34534833256225267  0.576125353098611  0.28608495882548357  1.0000
  O   O33       1.0  0.3060831484916021  0.18801281587226987  0.21106032609335296  1.0000
  O   O34       1.0  0.8060858621281566  0.3119819926661267  0.7889364553892192  1.0000
  O   O35       1.0  0.6939185560982677  0.6880218732493119  0.2889346854620882  1.0000
  O   O36       1.0  0.19390935920888805  0.8119846469754891  0.7110608567831773  1.0000
  O   O37       1.0  0.6939161122009806  0.8119787090580319  0.7889347658288272  1.0000
  O   O38       1.0  0.19390701684132233  0.6880186717247911  0.21105810154465127  1.0000
  O   O39       1.0  0.3060862885594772  0.31198597212222995  0.7110620113703661  1.0000
  O   O40       1.0  0.8060843174708409  0.18801797586664298  0.2889347701013207  1.0000
