data_image0
_chemical_formula_structural       Al2H12C48Br12O12
_chemical_formula_sum              "Al2 H12 C48 Br12 O12"
_cell_length_a       3.9919441086366825
_cell_length_b       29.032096941453
_cell_length_c       29.033961205648815
_cell_angle_alpha    120.00053302258088
_cell_angle_beta     89.99638078340195
_cell_angle_gamma    90.00112455105528

_space_group_name_H-M_alt    "P 1"
_space_group_IT_number       1

loop_
  _space_group_symop_operation_xyz
  'x, y, z'

loop_
  _atom_site_type_symbol
  _atom_site_label
  _atom_site_symmetry_multiplicity
  _atom_site_fract_x
  _atom_site_fract_y
  _atom_site_fract_z
  _atom_site_occupancy
  Al  Al1       1.0  0.0007231915620735998  0.4999964424243827  0.49999120860373125  1.0000
  Al  Al2       1.0  0.0001675068969077999  0.16667439050839047  0.8333555657800673  1.0000
  H   H1        1.0  0.27588118130177725  0.17236660609108148  0.6925745277923098  1.0000
  H   H2        1.0  0.7242264534793676  0.30739805319672076  0.8275930406666986  1.0000
  H   H3        1.0  0.7248483469450164  0.35929736377650573  0.5057709349745353  1.0000
  H   H4        1.0  0.2757211401039754  0.4942812419891497  0.640748439096356  1.0000
  H   H5        1.0  0.27546453477933136  0.020210912751956342  0.8276489973955493  1.0000
  H   H6        1.0  0.7240154078554896  0.02018087831475405  0.6926107144874578  1.0000
  H   H7        1.0  0.7247387635578806  0.6464951983861198  0.6407001817199146  1.0000
  H   H8        1.0  0.27547393909574674  0.6464521874320897  0.5057090611163845  1.0000
  H   H9        1.0  0.27546849005010904  0.3074378420499926  0.9797979192712772  1.0000
  H   H10       1.0  0.7239794488744521  0.17243055875385951  0.9798390748679252  1.0000
  H   H11       1.0  0.7248197980717065  0.49419536602032116  0.3534849409479506  1.0000
  H   H12       1.0  0.27537730704242586  0.3592586409908947  0.35355213588135104  1.0000
  C   C1        1.0  0.5006184324636108  0.4591424210104762  0.41838981030108596  1.0000
  C   C2        1.0  0.5005782557550872  0.45924462300380486  0.5408440156380081  1.0000
  C   C3        1.0  0.5006056030968935  0.5815997974297602  0.5407466634418369  1.0000
  C   C4        1.0  0.50016611823726  0.20744140112545026  0.7925177941259206  1.0000
  C   C5        1.0  0.5001237500161223  0.08506988073123266  0.7925825391075562  1.0000
  C   C6        1.0  0.5000558016719623  0.20751110708059162  0.914951483985554  1.0000
  C   C7        1.0  0.5000684116590223  0.23702996021255984  0.7629333161300309  1.0000
  C   C8        1.0  0.3741901620835293  0.2126772010722106  0.711004016020233  1.0000
  C   C9        1.0  0.3818920237520231  0.2400708039905836  0.683208907021381  1.0000
  C   C10       1.0  0.5000064940523571  0.29321104015760097  0.7067659195928754  1.0000
  C   C11       1.0  0.6181435236402067  0.3167700038396075  0.7599007760034623  1.0000
  C   C12       1.0  0.6259028769174505  0.2889665010598678  0.7872859452375067  1.0000
  C   C13       1.0  0.49999050450333743  0.3211968953626254  0.6787843528037953  1.0000
  C   C14       1.0  0.4999948478562075  0.3454588532810162  0.6545436613006358  1.0000
  C   C15       1.0  0.5000464936365532  0.37344864706203407  0.6265664231592041  1.0000
  C   C16       1.0  0.6184658805775952  0.34990641662323435  0.5734446627021085  1.0000
  C   C17       1.0  0.6263179668838604  0.37771514791573674  0.5460659023883564  1.0000
  C   C18       1.0  0.5003177441061267  0.42964292144720423  0.5704133887150391  1.0000
  C   C19       1.0  0.3741458741004493  0.4539777091984831  0.6223267695838289  1.0000
  C   C20       1.0  0.38172228381084483  0.42657682986458667  0.6501146136488173  1.0000
  C   C21       1.0  0.4997600552836232  0.02589708728446269  0.7629842242016662  1.0000
  C   C22       1.0  0.37363581506289023  0.9983278305088348  0.7873321066552565  1.0000
  C   C23       1.0  0.3809826005193102  0.9431329949614379  0.7599282414918632  1.0000
  C   C24       1.0  0.49897992503922245  0.9135570033378785  0.7067850650825563  1.0000
  C   C25       1.0  0.6173935475207061  0.9431243317931433  0.6832318442689314  1.0000
  C   C26       1.0  0.6254952153533748  0.9983151409477385  0.7110437423935778  1.0000
  C   C27       1.0  0.49891435174464493  0.8575829804592486  0.6787969624700095  1.0000
  C   C28       1.0  0.49899162874041997  0.8090892180891559  0.654539804966987  1.0000
  C   C29       1.0  0.4991565192945586  0.753115142748591  0.6265524446636662  1.0000
  C   C30       1.0  0.6177878029700564  0.7235490083696874  0.6500957012050107  1.0000
  C   C31       1.0  0.6260040002539711  0.6683591092530676  0.6222807358342024  1.0000
  C   C32       1.0  0.5001451358934688  0.6407722294725743  0.5703501806425776  1.0000
  C   C33       1.0  0.37377567065207273  0.6683379642618802  0.5460157843197918  1.0000
  C   C34       1.0  0.3810408144850398  0.7235335155940208  0.5734167859123006  1.0000
  C   C35       1.0  0.4997681989219558  0.2370873898634542  0.9741187904011852  1.0000
  C   C36       1.0  0.37364031796980157  0.2890068577921525  0.0016825296043450697  1.0000
  C   C37       1.0  0.38104439036558096  0.31679457262066535  0.0568735709803221  1.0000
  C   C38       1.0  0.4990257330750366  0.29323148314312425  0.08645130605754056  1.0000
  C   C39       1.0  0.6174374587270747  0.24010595805167873  0.056887874212684236  1.0000
  C   C40       1.0  0.625489596431308  0.21273165260755894  0.0017017939666104415  1.0000
  C   C41       1.0  0.4989695171717869  0.3212098236290188  0.14241911346996267  1.0000
  C   C42       1.0  0.4989981230750118  0.34545695675676313  0.19091398465133116  1.0000
  C   C43       1.0  0.49911726013579744  0.37343633109102836  0.24688282398098954  1.0000
  C   C44       1.0  0.6178080505134176  0.42654543569332753  0.2764429479658972  1.0000
  C   C45       1.0  0.6260412097878073  0.45391273653942227  0.3316283920950839  1.0000
  C   C46       1.0  0.5001620390723218  0.42957400281019176  0.35922081759814967  1.0000
  C   C47       1.0  0.3737025699025338  0.37767462371557775  0.33166050630143934  1.0000
  C   C48       1.0  0.3809755573044454  0.3498878654504908  0.27646843108790625  1.0000
  Br  Br1       1.0  0.7763605966678355  0.38773876012844977  0.7944384057237883  1.0000
  Br  Br2       1.0  0.22367398414970555  0.20553441624840474  0.6122446980207457  1.0000
  Br  Br3       1.0  0.22313478904113276  0.4610955568257749  0.7210608376067994  1.0000
  Br  Br4       1.0  0.7769065467988623  0.2789491770825661  0.5389153091870184  1.0000
  Br  Br5       1.0  0.7754621217933532  0.9066919765945726  0.6122553968899352  1.0000
  Br  Br6       1.0  0.22259030599650492  0.9067075713402061  0.79445885498653  1.0000
  Br  Br7       1.0  0.22238958814310905  0.7599459033062247  0.5388890951655867  1.0000
  Br  Br8       1.0  0.7760738639887208  0.7599771021083868  0.7210555366572606  1.0000
  Br  Br9       1.0  0.7754846049277901  0.20556269875931585  0.09332296453197843  1.0000
  Br  Br10      1.0  0.22268565562846018  0.38775130900086213  0.09328904895638603  1.0000
  Br  Br11      1.0  0.22225319876584848  0.2789521095406116  0.24006519362506398  1.0000
  Br  Br12      1.0  0.7761831667554375  0.46107325616783623  0.24000869832440946  1.0000
  O   O1        1.0  0.7355124774490704  0.5582761669253387  0.5510411054747522  1.0000
  O   O2        1.0  0.735554322311117  0.4927601386893485  0.4417048788474531  1.0000
  O   O3        1.0  0.7354622985573513  0.44895289683636014  0.5072196855202195  1.0000
  O   O4        1.0  0.26608164095583936  0.5582063465480472  0.5070688600149679  1.0000
  O   O5        1.0  0.26599612603159534  0.49291557270340286  0.5511302621407452  1.0000
  O   O6        1.0  0.26608240546234907  0.448862293674921  0.4417867805152156  1.0000
  O   O7        1.0  0.7348810009389554  0.17387423474199434  0.891618825521185  1.0000
  O   O8        1.0  0.7349329348691215  0.21773950881712512  0.8261575730632842  1.0000
  O   O9        1.0  0.7349904886936968  0.10840384446047577  0.782289212097055  1.0000
  O   O10       1.0  0.26543445116926984  0.21779417084712785  0.891574590864515  1.0000
  O   O11       1.0  0.2654953537704615  0.10845021487293137  0.8262488993708459  1.0000
  O   O12       1.0  0.2654856682184246  0.17378555697131048  0.7822331752826273  1.0000
