data_image0
_chemical_formula_structural       Ba4H40C40N48O8
_chemical_formula_sum              "Ba4 H40 C40 N48 O8"
_cell_length_a       9.570429358051552
_cell_length_b       11.551327073055969
_cell_length_c       15.790581893493556
_cell_angle_alpha    89.99996314199241
_cell_angle_beta     89.99838772723234
_cell_angle_gamma    90.00038097555553

_space_group_name_H-M_alt    "P 1"
_space_group_IT_number       1

loop_
  _space_group_symop_operation_xyz
  'x, y, z'

loop_
  _atom_site_type_symbol
  _atom_site_label
  _atom_site_symmetry_multiplicity
  _atom_site_fract_x
  _atom_site_fract_y
  _atom_site_fract_z
  _atom_site_occupancy
  Ba  Ba1       1.0  0.5000003973237739  0.03834756761458639  0.7500180184458429  1.0000
  Ba  Ba2       1.0  1.3803293981599997e-05  0.4616516667564666  0.24998872177752665  1.0000
  Ba  Ba3       1.0  0.5000109895580067  0.9616528416297713  0.2500126807667087  1.0000
  Ba  Ba4       1.0  7.966366908399997e-06  0.5383457804451055  0.7499924341428252  1.0000
  H   H1        1.0  0.4262893733292116  0.7824281256310428  0.5776650244740081  1.0000
  H   H2        1.0  0.07364963466371681  0.7175186262256898  0.0776048535753446  1.0000
  H   H3        1.0  0.5736803726100205  0.7824717751932366  0.922350846921624  1.0000
  H   H4        1.0  0.926266046680787  0.7175505134963555  0.4223193577912453  1.0000
  H   H5        1.0  0.5736843975389263  0.21752120711978762  0.4223637752182015  1.0000
  H   H6        1.0  0.9262990605717789  0.28248178284648157  0.9223612507175714  1.0000
  H   H7        1.0  0.4263080272671544  0.2175468137161118  0.07766212039606299  1.0000
  H   H8        1.0  0.07369309736225199  0.2824611497241492  0.5776505461398357  1.0000
  H   H9        1.0  0.49333266018451377  0.5826755276199832  0.5310012533458206  1.0000
  H   H10       1.0  0.006653395258801701  0.9172937521280529  0.030961106546037294  1.0000
  H   H11       1.0  0.5066711299008587  0.5826953866540093  0.9689944958176253  1.0000
  H   H12       1.0  0.9932878004744623  0.9173138970364718  0.46898132666336056  1.0000
  H   H13       1.0  0.5066818617019776  0.41729891059581803  0.4690098138932797  1.0000
  H   H14       1.0  0.9933130624043045  0.08272137391427489  0.9690347621643197  1.0000
  H   H15       1.0  0.4933172701709124  0.4173136795420688  0.031008338881313994  1.0000
  H   H16       1.0  0.006660894478528699  0.08269170624131308  0.5309980766942815  1.0000
  H   H17       1.0  0.7132384647942516  0.49595539368281294  0.5952477909725289  1.0000
  H   H18       1.0  0.7867870060323909  0.004045136139467299  0.09524105314118708  1.0000
  H   H19       1.0  0.2867949835941275  0.4959575285961079  0.9047378875286398  1.0000
  H   H20       1.0  0.2131912969981542  0.0040442380702643  0.4047362325070977  1.0000
  H   H21       1.0  0.2868209877983218  0.5040450157130607  0.40473921088785386  1.0000
  H   H22       1.0  0.21320452835837503  0.9959777812846934  0.9047788803253524  1.0000
  H   H23       1.0  0.7132184939985534  0.5040446120658472  0.09525164788754378  1.0000
  H   H24       1.0  0.786766801747845  0.9959726193515619  0.5952526700977854  1.0000
  H   H25       1.0  0.32060574256109214  0.0065862192118402  0.5784584686548013  1.0000
  H   H26       1.0  0.1794381865590182  0.49344338655943426  0.0784355198459679  1.0000
  H   H27       1.0  0.6794303428143635  0.0065499851599711  0.9215573254831142  1.0000
  H   H28       1.0  0.8205959921728478  0.49342876563217436  0.4215515468529531  1.0000
  H   H29       1.0  0.6794129589585083  0.9934479524116353  0.4215582981263921  1.0000
  H   H30       1.0  0.820598278339517  0.5065907851197053  0.921566681135985  1.0000
  H   H31       1.0  0.32059671770063153  0.9934106018711264  0.07845120849609087  1.0000
  H   H32       1.0  0.17941539558163558  0.5065396126695845  0.5784354554380187  1.0000
  H   H33       1.0  0.4626475603423401  0.9595412236223381  0.5446443281706406  1.0000
  H   H34       1.0  0.0373566841377908  0.5403717798861223  0.044583017949022995  1.0000
  H   H35       1.0  0.5373590247211907  0.9596201378331061  0.9554341114316429  1.0000
  H   H36       1.0  0.9626464971589357  0.5404419594617877  0.45537931705730716  1.0000
  H   H37       1.0  0.53733456835144  0.04036395837186999  0.45543260141979397  1.0000
  H   H38       1.0  0.9626494797727788  0.4595637017535239  0.9553729532439303  1.0000
  H   H39       1.0  0.4626408678914942  0.040446064676324084  0.0446307854573291  1.0000
  H   H40       1.0  0.0373408593426063  0.45960779470765806  0.5445722212364572  1.0000
  C   C1        1.0  0.7759372165049425  0.8013672059200302  0.7650287183549975  1.0000
  C   C2        1.0  0.7240675413684913  0.6986170578855845  0.2650172349023946  1.0000
  C   C3        1.0  0.22406297193553834  0.8013837572384546  0.7349700403983163  1.0000
  C   C4        1.0  0.27593367902387195  0.6986347821926486  0.2349608188384522  1.0000
  C   C5        1.0  0.22407626068824274  0.19862021781497674  0.2349760159997061  1.0000
  C   C6        1.0  0.2759260833010515  0.30136084307827815  0.7349729339844728  1.0000
  C   C7        1.0  0.7759348321510587  0.19863050319413839  0.2650315276389961  1.0000
  C   C8        1.0  0.7240683046163737  0.3013829410579163  0.7650407491611729  1.0000
  C   C9        1.0  0.7041926010077756  0.7443216144499945  0.6948007934822653  1.0000
  C   C10       1.0  0.7957871324676091  0.7556687385708968  0.19477598569657317  1.0000
  C   C11       1.0  0.29579671512298944  0.7443368299825364  0.8052037058902143  1.0000
  C   C12       1.0  0.20418420986496238  0.7556782172181041  0.3051899948906466  1.0000
  C   C13       1.0  0.29581251697125305  0.2556649435576546  0.3052096405455984  1.0000
  C   C14       1.0  0.20418454965295035  0.24432387925161683  0.8052148166652273  1.0000
  C   C15       1.0  0.7042073582284872  0.25567656476683004  0.19479976195940193  1.0000
  C   C16       1.0  0.7958083698786352  0.2443351774984066  0.6948077734592175  1.0000
  C   C17       1.0  0.5189041187008455  0.7399795921891223  0.603518884176715  1.0000
  C   C18       1.0  0.9810599050510973  0.7599874250359872  0.10347184355549638  1.0000
  C   C19       1.0  0.48107889581230967  0.7400105841216484  0.8964919512488192  1.0000
  C   C20       1.0  0.018881168342929293  0.7600070219375252  0.39646563619401576  1.0000
  C   C21       1.0  0.4810863705830855  0.2599835918354572  0.3965010493203635  1.0000
  C   C22       1.0  0.018904463239074697  0.24002250679561135  0.8965056597972775  1.0000
  C   C23       1.0  0.5189105490841328  0.2600054076879204  0.10351468317183789  1.0000
  C   C24       1.0  0.9810894692057063  0.24000031280804277  0.6035137669716802  1.0000
  C   C25       1.0  0.5553666128875747  0.6289353215839383  0.5774195045486576  1.0000
  C   C26       1.0  0.944617402997366  0.8710377665249638  0.07738568572692368  1.0000
  C   C27       1.0  0.44463334082026756  0.6289574296271425  0.9225819110611013  1.0000
  C   C28       1.0  0.05533494299385919  0.8710558370335449  0.4225662799028313  1.0000
  C   C29       1.0  0.4446458192892138  0.371039982327602  0.42258902955281735  1.0000
  C   C30       1.0  0.055357413795192704  0.1289747624384674  0.9226076497559388  1.0000
  C   C31       1.0  0.5553623734511177  0.37105250229200243  0.0774209235737544  1.0000
  C   C32       1.0  0.9446304700665564  0.12895409480008618  0.577416289751909  1.0000
  C   C33       1.0  0.6755953473620264  0.5819653095036584  0.612977643970325  1.0000
  C   C34       1.0  0.8244048174393868  0.9180250778026887  0.11296362003333367  1.0000
  C   C35       1.0  0.32441679658479217  0.5819754660857868  0.8870143058999529  1.0000
  C   C36       1.0  0.17556668462797378  0.9180291584817725  0.38700984354829154  1.0000
  C   C37       1.0  0.3244358930138063  0.4180273084934144  0.38702202391655044  1.0000
  C   C38       1.0  0.17558253762427256  0.08198571979190211  0.8870449142740637  1.0000
  C   C39       1.0  0.6755893666885625  0.4180284059561075  0.11298092917935067  1.0000
  C   C40       1.0  0.8244049974817713  0.0819799076666428  0.6129841252520264  1.0000
  N   N1        1.0  0.5920564765624262  0.798983406924364  0.6616395791688416  1.0000
  N   N2        1.0  0.9078986400064936  0.7009870487660661  0.1616001895272632  1.0000
  N   N3        1.0  0.4079196616125174  0.7990113926779114  0.8383705807001148  1.0000
  N   N4        1.0  0.09204513000945269  0.7010097005128911  0.33834683185716585  1.0000
  N   N5        1.0  0.40793192296090547  0.2009901655105395  0.3383816209205007  1.0000
  N   N6        1.0  0.09206259357820559  0.2990055690284095  0.838376680570164  1.0000
  N   N7        1.0  0.592075007660398  0.20100286774393789  0.16163795354226096  1.0000
  N   N8        1.0  0.9079390908631948  0.2989984999725904  0.6616408039452819  1.0000
  N   N9        1.0  0.7391475407997206  0.9053629337908684  0.7958125412465548  1.0000
  N   N10       1.0  0.7608735831968048  0.5946343027080304  0.29579669095280536  1.0000
  N   N11       1.0  0.2608555090036048  0.9053771188376912  0.704191842477172  1.0000
  N   N12       1.0  0.23913940433287453  0.5946457619718258  0.20417383781721546  1.0000
  N   N13       1.0  0.26088160959488954  0.0946270870939614  0.2041959927038661  1.0000
  N   N14       1.0  0.23912526610009618  0.4053513895854906  0.7041858784190891  1.0000
  N   N15       1.0  0.7391454296461148  0.09464320151290906  0.2958147918417139  1.0000
  N   N16       1.0  0.7608761628580962  0.4053719613193749  0.7958258301973158  1.0000
  N   N17       1.0  0.9049269824407561  0.8301417483683693  0.8736036960803373  1.0000
  N   N18       1.0  0.5951000145151752  0.6698390072759394  0.3736109480088459  1.0000
  N   N19       1.0  0.0950911827589422  0.8301567153010155  0.6263868091187348  1.0000
  N   N20       1.0  0.40493547314808603  0.6698653324440258  0.12638549145285785  1.0000
  N   N21       1.0  0.09509485379869888  0.16983615267601238  0.12640103820488946  1.0000
  N   N22       1.0  0.4049134626918658  0.3301250425222335  0.626389353332044  1.0000
  N   N23       1.0  0.9049128906261785  0.16986187365687036  0.3736160254401283  1.0000
  N   N24       1.0  0.595071735033457  0.3301679734477148  0.8736135433400773  1.0000
  N   N25       1.0  0.8208748886410006  0.9213933544521421  0.8637789191796725  1.0000
  N   N26       1.0  0.679164048217487  0.5785934652495114  0.3637746380792989  1.0000
  N   N27       1.0  0.17914186379756808  0.921410546610893  0.6362184867456974  1.0000
  N   N28       1.0  0.3208759871005498  0.5786114969978653  0.13620540129333136  1.0000
  N   N29       1.0  0.17915426177254548  0.07858627801643789  0.1362270816189337  1.0000
  N   N30       1.0  0.3208556986938405  0.4213835700913933  0.6362104642690268  1.0000
  N   N31       1.0  0.8208580299605187  0.07860804233381909  0.36378814758291605  1.0000
  N   N32       1.0  0.6791437596105964  0.4214122862151015  0.8637961665492353  1.0000
  N   N33       1.0  0.8782782921116165  0.7534448668688826  0.8122908259712884  1.0000
  N   N34       1.0  0.6217243206184192  0.7465419742622855  0.31228995890222677  1.0000
  N   N35       1.0  0.1217267651932445  0.7534582345825522  0.6877048006752843  1.0000
  N   N36       1.0  0.37828665908529047  0.7465611903698031  0.18770135943873353  1.0000
  N   N37       1.0  0.12173622995864972  0.24653649695956392  0.1877132750875958  1.0000
  N   N38       1.0  0.37826616919264916  0.25343159818358163  0.6877084427690291  1.0000
  N   N39       1.0  0.8782773082206174  0.24656035437560322  0.3122967673058098  1.0000
  N   N40       1.0  0.6217048758038715  0.2534721154753754  0.8122983087797521  1.0000
  N   N41       1.0  0.7507078986599324  0.6389806138978925  0.6712667774274761  1.0000
  N   N42       1.0  0.7492969350095322  0.8610175403521011  0.17125283764035967  1.0000
  N   N43       1.0  0.24929526432774193  0.638989484154628  0.8287289313526924  1.0000
  N   N44       1.0  0.25069295182908746  0.8610160305093968  0.32872509970177777  1.0000
  N   N45       1.0  0.2493118480010068  0.3610102726625967  0.3287316239824705  1.0000
  N   N46       1.0  0.25068833036825566  0.13898892873023527  0.828751263664614  1.0000
  N   N47       1.0  0.7507077643650817  0.3610152535800424  0.17126313730920364  1.0000
  N   N48       1.0  0.7492923136334041  0.1389939013791945  0.6712758351575302  1.0000
  O   O1        1.0  0.41932576286534134  0.028944118048656296  0.568390206453337  1.0000
  O   O2        1.0  0.0807384754420752  0.471025758594763  0.06838229414844219  1.0000
  O   O3        1.0  0.5807282518699707  0.028960968492860707  0.9316167054254902  1.0000
  O   O4        1.0  0.9193112100578842  0.47105500328876093  0.4316187208371857  1.0000
  O   O5        1.0  0.5807138364176296  0.9710285888400847  0.43161389438999  1.0000
  O   O6        1.0  0.9193126174458965  0.5289616652500726  0.9316300393448953  1.0000
  O   O7        1.0  0.41931448234399926  0.9710472321638194  0.06838106248892467  1.0000
  O   O8        1.0  0.08071376101181468  0.5289506002103225  0.5683828469663581  1.0000
