data_image0
_chemical_formula_structural       Na3P8H45C20N8O32
_chemical_formula_sum              "Na3 P8 H45 C20 N8 O32"
_cell_length_a       8.919694907038608
_cell_length_b       11.323230890562128
_cell_length_c       12.55250392009073
_cell_angle_alpha    116.01770854938604
_cell_angle_beta     98.3000853302219
_cell_angle_gamma    100.68372671244835

_space_group_name_H-M_alt    "P 1"
_space_group_IT_number       1

loop_
  _space_group_symop_operation_xyz
  'x, y, z'

loop_
  _atom_site_type_symbol
  _atom_site_label
  _atom_site_symmetry_multiplicity
  _atom_site_fract_x
  _atom_site_fract_y
  _atom_site_fract_z
  _atom_site_occupancy
  Na  Na1       1.0  0.5000002522229252  0.4999998463122994  0.5000008094046038  1.0000
  Na  Na2       1.0  0.6022692485564322  0.14088446676253602  0.019528374810882137  1.0000
  Na  Na3       1.0  0.397729794989246  0.8591141960807253  0.9804734813759809  1.0000
  P   P1        1.0  0.8103139441977092  0.8750535310613972  0.8486610510633954  1.0000
  P   P2        1.0  0.18968656582670454  0.12494615806729573  0.1513397702995505  1.0000
  P   P3        1.0  0.7772962785343435  0.5781424688943205  0.7826217004720918  1.0000
  P   P4        1.0  0.2227034035461274  0.42185824100680974  0.21738102568801315  1.0000
  P   P5        1.0  0.2342942183347745  0.6534638749196164  0.6648807589457066  1.0000
  P   P6        1.0  0.7657054804813652  0.3465368244937964  0.3351195748756198  1.0000
  P   P7        1.0  0.353210898873165  0.9575333254978206  0.7315395652954281  1.0000
  P   P8        1.0  0.6467895944155797  0.04246637411858962  0.2684636484062963  1.0000
  H   H1        1.0  0.8835040236202687  0.05619301770364162  0.03388162610835368  1.0000
  H   H2        1.0  0.11649616155818172  0.9438056513920259  0.9661195577142295  1.0000
  H   H3        1.0  0.5725996152287037  0.4179835675346481  0.7482009437212724  1.0000
  H   H4        1.0  0.4273994394740869  0.5820150883168014  0.2517993175730668  1.0000
  H   H5        1.0  0.09485284246983387  0.6586367966591455  0.8020418163791732  1.0000
  H   H6        1.0  0.905147034598329  0.34136084191577254  0.19795733756426165  1.0000
  H   H7        1.0  9.071144902492567e-07  0.4999993633595282  0.5000000310528137  1.0000
  H   H8        1.0  0.5775845704557626  0.9048368986973546  0.6985172577240847  1.0000
  H   H9        1.0  0.42241479235731544  0.09516278767483752  0.3014850334493957  1.0000
  H   H10       1.0  0.5106686281910271  0.6882162912722622  0.7900156954693929  1.0000
  H   H11       1.0  0.48933155698742326  0.31178237782340557  0.20998548835319045  1.0000
  H   H12       1.0  0.03527384048046403  0.8342109706808858  0.724988542548914  1.0000
  H   H13       1.0  0.9647252142223266  0.16578768517056375  0.2750117187454252  1.0000
  H   H14       1.0  0.9433444811131863  0.8415059738123037  0.040886968818263536  1.0000
  H   H15       1.0  0.05665489285700431  0.15849370556808404  0.9591137274627003  1.0000
  H   H16       1.0  0.7657424111643393  0.8749806603491521  0.0802221707049142  1.0000
  H   H17       1.0  0.23425809886006727  0.12501902877953341  0.9197786506580313  1.0000
  H   H18       1.0  0.04508056887181776  0.6789882323371614  0.08397572832017637  1.0000
  H   H19       1.0  0.9549199411525959  0.3210114567915241  0.9160250930427695  1.0000
  H   H20       1.0  0.9455945667397497  0.5019608685869202  0.15141401820478254  1.0000
  H   H21       1.0  0.054403676754773825  0.49803879754925634  0.84858575554793  1.0000
  H   H22       1.0  0.6500067151724523  0.4776830650326789  0.15495892802101718  1.0000
  H   H23       1.0  0.34999347558455446  0.5223156005670833  0.8450414583553042  1.0000
  H   H24       1.0  0.56539562651691  0.6620605370007344  0.0808464389303867  1.0000
  H   H25       1.0  0.4346040722992369  0.3379401624126786  0.9191538948909398  1.0000
  H   H26       1.0  0.31349367654236465  0.7365636248831822  0.47883083925545844  1.0000
  H   H27       1.0  0.6865066552300192  0.2634391250840054  0.5211711619853716  1.0000
  H   H28       1.0  0.11881375185889453  0.6315221617136261  0.4376296784165278  1.0000
  H   H29       1.0  0.8811885383330986  0.3684795807253352  0.5623713405553943  1.0000
  H   H30       1.0  0.864606170197078  0.9160896351339078  0.3307818143921396  1.0000
  H   H31       1.0  0.1353935174619494  0.08391107127131653  0.6692201143217035  1.0000
  H   H32       1.0  0.3505280910658756  0.9274373416806232  0.42767801059729765  1.0000
  H   H33       1.0  0.6494736960281385  0.07256644156380793  0.5723245507121462  1.0000
  H   H34       1.0  0.14263780097709136  0.0280630699904165  0.32649834779955  1.0000
  H   H35       1.0  0.8573622059493432  0.971938659943746  0.6735040159009246  1.0000
  H   H36       1.0  0.8827855307141871  0.7564927509948306  0.42755234132145153  1.0000
  H   H37       1.0  0.11721529299907024  0.24350796515869902  0.5724497124743806  1.0000
  H   H38       1.0  0.7663796693138352  0.6181555938583828  0.48135778993438555  1.0000
  H   H39       1.0  0.2336239240272917  0.3818431044822078  0.5186437691341511  1.0000
  H   H40       1.0  0.7096187716556841  0.7361410657941223  0.5703290893784186  1.0000
  H   H41       1.0  0.2903831769546911  0.2638596670995312  0.4296746843919196  1.0000
  H   H42       1.0  0.6837827875138346  0.31648610364915447  0.8639722071910683  1.0000
  H   H43       1.0  0.3162165697206874  0.6835135862189505  0.13603088142867392  1.0000
  H   H44       1.0  0.6429086742899769  0.1581309756266904  0.8073397349033868  1.0000
  H   H45       1.0  0.35709004440973763  0.8418666671835456  0.19266248374310646  1.0000
  C   C1        1.0  0.7333239491846439  0.7384098001066023  0.8888877530777108  1.0000
  C   C2        1.0  0.2666731470985368  0.2615898632730734  0.11111349048554334  1.0000
  C   C3        1.0  0.8173163015665209  0.7956987192172067  0.024192467510395894  1.0000
  C   C4        1.0  0.18268452772528582  0.20430199344041716  0.9758087888391741  1.0000
  C   C5        1.0  0.9260380862938218  0.6467907994393799  0.09148016928453734  1.0000
  C   C6        1.0  0.07396211562029723  0.3532078591685633  0.90851862219926  1.0000
  C   C7        1.0  0.7174498229661807  0.5468357873312187  0.12967722238256132  1.0000
  C   C8        1.0  0.2825484149497868  0.45316388230086363  0.8703233488164132  1.0000
  C   C9        1.0  0.6745466450205058  0.6349804429634464  0.09173158563687178  1.0000
  C   C10       1.0  0.325453545736508  0.36501822263630873  0.9082688007394495  1.0000
  C   C11       1.0  0.19760564795912222  0.7892114941140989  0.6281708465353122  1.0000
  C   C12       1.0  0.8023945427978915  0.21078717148566284  0.37182953984100925  1.0000
  C   C13       1.0  0.19493612751933406  0.7366971495295831  0.4917949896943769  1.0000
  C   C14       1.0  0.8050650266184362  0.2633045831610659  0.5082059041955561  1.0000
  C   C15       1.0  0.22355235527231818  0.9063100594485933  0.41052238489182713  1.0000
  C   C16       1.0  0.7764502374514137  0.09369271700701631  0.589481461405498  1.0000
  C   C17       1.0  0.1206910013454987  0.9555982261019977  0.3607958918332201  1.0000
  C   C18       1.0  0.8793119162241891  0.04440557038664392  0.6392075920044746  1.0000
  C   C19       1.0  0.9810113864161066  0.8133530511652726  0.41087605072083033  1.0000
  C   C20       1.0  0.018988809919456204  0.18664561093857665  0.5891235382092362  1.0000
  N   N1        1.0  0.8059817397360902  0.6953075447527725  0.0680334095727489  1.0000
  N   N2        1.0  0.19401845659947978  0.3046911173510837  0.9319661793573175  1.0000
  N   N3        1.0  0.8741675072544765  0.5567708182838518  0.1290265488627968  1.0000
  N   N4        1.0  0.12583218598310708  0.4432298846254668  0.8709745824047842  1.0000
  N   N5        1.0  0.13419632056527322  0.8174061990711154  0.44071732094536753  1.0000
  N   N6        1.0  0.8658043248959613  0.18259757792090886  0.559285912728356  1.0000
  N   N7        1.0  0.9717927915617179  0.8964189948837245  0.36204483069777643  1.0000
  N   N8        1.0  0.028207545789229016  0.10358375158755714  0.6379563730967988  1.0000
  O   O1        1.0  0.9849465920200656  0.8839981275322234  0.8546158718463206  1.0000
  O   O2        1.0  0.015052787528681213  0.11600154835225855  0.1453840269883813  1.0000
  O   O3        1.0  0.7942563376739996  0.013333118894479405  0.9533131152253133  1.0000
  O   O4        1.0  0.20574303071762762  0.9866665639818138  0.04668837850191226  1.0000
  O   O5        1.0  0.7109747138126464  0.846953835798523  0.7278310885644216  1.0000
  O   O6        1.0  0.289024660157537  0.15304584358185744  0.2721696077165419  1.0000
  O   O7        1.0  0.7155826418551073  0.543524286442356  0.6526948051388005  1.0000
  O   O8        1.0  0.28441963160121725  0.45647746648432286  0.34730860617190024  1.0000
  O   O9        1.0  0.9498233802945393  0.5904702569058957  0.8305223348843286  1.0000
  O   O10       1.0  0.0501771297298745  0.4095294322227972  0.16947848647861727  1.0000
  O   O11       1.0  0.6763271499416633  0.45828967404102644  0.8067959411291384  1.0000
  O   O12       1.0  0.32367189918256406  0.5417089853063289  0.19320511761146272  1.0000
  O   O13       1.0  0.40210761599145434  0.6485968421905072  0.6667587780784744  1.0000
  O   O14       1.0  0.5978932077217962  0.3514038739630224  0.33324327571735785  1.0000
  O   O15       1.0  0.2069521091274211  0.6949354134980937  0.7979437581157856  1.0000
  O   O16       1.0  0.7930469455753695  0.30506324235336285  0.20205650317854668  1.0000
  O   O17       1.0  0.1111427389474144  0.5154723122925162  0.5754230884244151  1.0000
  O   O18       1.0  0.8888600599211073  0.48452738584507665  0.4245755907637232  1.0000
  O   O19       1.0  0.3985010071487168  0.9720276025857831  0.8584848388576632  1.0000
  O   O20       1.0  0.6014947953291951  0.027967977165872113  0.14151705709787177  1.0000
  O   O21       1.0  0.5031044635023534  0.9526908018137805  0.6738329299316348  1.0000
  O   O22       1.0  0.4968952241566809  0.04730990459144381  0.3261689987822152  1.0000
  O   O23       1.0  0.2908363762891141  0.06793304876263313  0.7198781663859819  1.0000
  O   O24       1.0  0.7091615312023408  0.932065604332323  0.28012356471889205  1.0000
  O   O25       1.0  0.5678179593575833  0.7137763530092659  0.87729109735605  1.0000
  O   O26       1.0  0.4321799537124277  0.2862222965897844  0.12270983630256187  1.0000
  O   O27       1.0  0.044984669007632906  0.8033152509214221  0.6388530524797321  1.0000
  O   O28       1.0  0.9550152024819738  0.19668239114940186  0.361146898909965  1.0000
  O   O29       1.0  0.6919761436069791  0.672528705287249  0.4821363005477011  1.0000
  O   O30       1.0  0.30802662736876835  0.32747101032986603  0.51786636587174  1.0000
  O   O31       1.0  0.6899746666712475  0.24345830290398857  0.8850073823057087  1.0000
  O   O32       1.0  0.31002324082020744  0.7565403501909673  0.11499434879916502  1.0000
