data_image0
_chemical_formula_structural       Mg4H32C52N4O20
_chemical_formula_sum              "Mg4 H32 C52 N4 O20"
_cell_length_a       12.522541992511494
_cell_length_b       12.522524576419022
_cell_length_c       13.42452819549767
_cell_angle_alpha    63.16835585485534
_cell_angle_beta     63.16824019946681
_cell_angle_gamma    88.10420029267218

_space_group_name_H-M_alt    "P 1"
_space_group_IT_number       1

loop_
  _space_group_symop_operation_xyz
  'x, y, z'

loop_
  _atom_site_type_symbol
  _atom_site_label
  _atom_site_symmetry_multiplicity
  _atom_site_fract_x
  _atom_site_fract_y
  _atom_site_fract_z
  _atom_site_occupancy
  Mg  Mg1       1.0  0.30778730434003165  0.6922131095385777  0.7499997635404586  1.0000
  Mg  Mg2       1.0  0.6922139057329134  0.30778711160558453  0.24999882829497017  1.0000
  Mg  Mg3       1.0  0.4999999310701709  0.9999997053596699  0.4999999008677992  1.0000
  Mg  Mg4       1.0  5.888109839805059e-07  0.500000491354875  0.9999990595697171  1.0000
  H   H1        1.0  0.3976325321186351  0.654086887655744  0.008003965261039627  1.0000
  H   H2        1.0  0.3459149871623453  0.6023684162663017  0.4919963195543957  1.0000
  H   H3        1.0  0.6023681860191629  0.34591517983778164  0.9919977774841727  1.0000
  H   H4        1.0  0.6540864195917065  0.39763272449306425  0.5080025443894984  1.0000
  H   H5        1.0  0.5188938549770581  0.5410437828493355  0.11362829616562942  1.0000
  H   H6        1.0  0.4589592813596681  0.481107989987322  0.38637083918111864  1.0000
  H   H7        1.0  0.4811081383932532  0.45896011332755643  0.8863706420934465  1.0000
  H   H8        1.0  0.5410421253943909  0.518893150772051  0.6136280247627752  1.0000
  H   H9        1.0  0.8524775468518797  0.7446017375012771  0.759631589819442  1.0000
  H   H10       1.0  0.25539847386978204  0.14752276235053327  0.7403675085574124  1.0000
  H   H11       1.0  0.14752385990217218  0.2553994032580888  0.24036727412444497  1.0000
  H   H12       1.0  0.744603631781807  0.852477461958955  0.25963070261582283  1.0000
  H   H13       1.0  0.730433272383614  0.8623066840459331  0.6563824284072274  1.0000
  H   H14       1.0  0.13769402206272469  0.26956766474203414  0.8436157216938653  1.0000
  H   H15       1.0  0.26956723879179384  0.1376944535481144  0.34361681619886053  1.0000
  H   H16       1.0  0.8623071845831306  0.7304325529740365  0.15638212813134092  1.0000
  H   H17       1.0  0.25530924956134976  0.7933793985533765  0.5075702762201718  1.0000
  H   H18       1.0  0.2066189413217216  0.7446893087322977  0.9924310896339038  1.0000
  H   H19       1.0  0.7446908785330991  0.2066199100945311  0.49243065019964416  1.0000
  H   H20       1.0  0.7933774077770153  0.2553090676390966  0.007571087326226828  1.0000
  H   H21       1.0  0.0922789535168462  0.8500225946343034  0.44690862076396365  1.0000
  H   H22       1.0  0.14997579150669782  0.9077194423512152  0.053093301976602635  1.0000
  H   H23       1.0  0.9077202789989514  0.14997671084827857  0.5530926863180455  1.0000
  H   H24       1.0  0.8500214497436004  0.09227893375741297  0.9469077523111125  1.0000
  H   H25       1.0  0.0447077496478983  0.1056085396331952  0.591761027410378  1.0000
  H   H26       1.0  0.8943910907217685  0.9552895244423709  0.9082405390628456  1.0000
  H   H27       1.0  0.9552896882835142  0.8943907560906366  0.40824029898580283  1.0000
  H   H28       1.0  0.10560921349125611  0.04471068325218399  0.09175620740412428  1.0000
  H   H29       1.0  0.21502073635677016  0.0402026419899286  0.639560632529822  1.0000
  H   H30       1.0  0.9597967135319575  0.784978765835987  0.860439094162317  1.0000
  H   H31       1.0  0.784978685985962  0.959797576251674  0.3604394626402086  1.0000
  H   H32       1.0  0.04020359068106669  0.21502144185856759  0.13955765230465292  1.0000
  C   C1        1.0  0.5575087687777652  0.7674255959314069  0.8262115349249372  1.0000
  C   C2        1.0  0.2325759382050805  0.4424915539919922  0.6737881030893932  1.0000
  C   C3        1.0  0.44249174925182183  0.23257554851881673  0.17378919370159462  1.0000
  C   C4        1.0  0.7674261674465085  0.5575086703174961  0.3262101080838421  1.0000
  C   C5        1.0  0.4974535482008874  0.676811712591423  0.9554715900767975  1.0000
  C   C6        1.0  0.3231899126587478  0.5025468106628921  0.5445294491991748  1.0000
  C   C7        1.0  0.502548062088465  0.32319035463933676  0.044529029995999454  1.0000
  C   C8        1.0  0.6768112974141972  0.4974534104812632  0.45546914263624694  1.0000
  C   C9        1.0  0.5643585009912329  0.613362155885234  0.013917932556580777  1.0000
  C   C10       1.0  0.3866404262361555  0.4356425661991422  0.4860817668841834  1.0000
  C   C11       1.0  0.43564310587103  0.3866399079174344  0.9860819455059938  1.0000
  C   C12       1.0  0.6133623885942328  0.5643567519447428  0.5139180175490453  1.0000
  C   C13       1.0  0.6926561210901029  0.6374646750691753  0.9435323611057529  1.0000
  C   C14       1.0  0.362538110349682  0.30734399746722824  0.55646802232598  1.0000
  C   C15       1.0  0.3073445867664191  0.36253738214007564  0.05646715560880009  1.0000
  C   C16       1.0  0.6374647044807062  0.6926553206766569  0.4435317621072487  1.0000
  C   C17       1.0  0.752939606243288  0.7286428920524272  0.8144431436644908  1.0000
  C   C18       1.0  0.27135790603986004  0.24706103707219998  0.6855571493922383  1.0000
  C   C19       1.0  0.2470620006189748  0.27135917175023383  0.18555673439808382  1.0000
  C   C20       1.0  0.7286433108872644  0.7529391909281457  0.3144429264636275  1.0000
  C   C21       1.0  0.685706762464882  0.793474952338549  0.7570163710825639  1.0000
  C   C22       1.0  0.2065252730703335  0.3142942312042365  0.7429826762215087  1.0000
  C   C23       1.0  0.3142946477162596  0.20652619184891555  0.24298323487155232  1.0000
  C   C24       1.0  0.7934759404297009  0.6857059933680174  0.2570166576241351  1.0000
  C   C25       1.0  0.486068174209798  0.8275088543373313  0.7586342567990201  1.0000
  C   C26       1.0  0.17249113466129978  0.5139325751832403  0.7413667491680087  1.0000
  C   C27       1.0  0.5139321471386752  0.17249137049768845  0.24136619971903883  1.0000
  C   C28       1.0  0.8275091866871732  0.4860676496517797  0.2586337073500503  1.0000
  C   C29       1.0  0.7624580578492581  0.5606006721635665  0.005692905756191872  1.0000
  C   C30       1.0  0.43940147864616824  0.2375417093073082  0.49430575241321145  1.0000
  C   C31       1.0  0.2375413610663912  0.4393995426499444  0.9943064474036234  1.0000
  C   C32       1.0  0.5605997348538664  0.7624585152649459  0.505693581432432  1.0000
  C   C33       1.0  0.2045374598302843  0.8618808939857843  0.5217841270748312  1.0000
  C   C34       1.0  0.13811970049474806  0.7954610867021045  0.9782141894704923  1.0000
  C   C35       1.0  0.7954619659395449  0.13811932768390278  0.4782167101054286  1.0000
  C   C36       1.0  0.8618800273832861  0.204536375859206  0.021784708711955175  1.0000
  C   C37       1.0  0.1126282845545248  0.8947313421239115  0.4913351388925948  1.0000
  C   C38       1.0  0.10526666604662438  0.8873703877021981  0.00866685452353989  1.0000
  C   C39       1.0  0.8873705614532242  0.1052661309844396  0.5086671079929276  1.0000
  C   C40       1.0  0.8947305683494946  0.11262798155024707  0.991332715743738  1.0000
  C   C41       1.0  0.04885513874787503  0.9820885181004967  0.516275247760952  1.0000
  C   C42       1.0  0.017909704593634446  0.9511423581338433  0.9837270658334706  1.0000
  C   C43       1.0  0.9511415295945299  0.0179071163029718  0.4837287002524635  1.0000
  C   C44       1.0  0.9820895142138111  0.04885693363636529  0.016271273207664354  1.0000
  C   C45       1.0  0.0859378408856273  0.034856814140937296  0.5717456001320258  1.0000
  C   C46       1.0  0.9651418158193505  0.9140598239087933  0.9282560974650028  1.0000
  C   C47       1.0  0.9140601095434704  0.9651406558020879  0.4282570274156899  1.0000
  C   C48       1.0  0.0348575962421123  0.08594038404852708  0.07174177167437534  1.0000
  C   C49       1.0  0.17829547353065317  0.00045849469412219976  0.6011704148960177  1.0000
  C   C50       1.0  0.9995414500644415  0.821702354547696  0.8988305127801941  1.0000
  C   C51       1.0  0.8217039488120862  0.9995417235474804  0.3988296802740197  1.0000
  C   C52       1.0  0.0004586677487381852  0.17829694381592986  0.10116818760896254  1.0000
  N   N1        1.0  0.2346884761492163  0.9130110814310443  0.5783577546641399  1.0000
  N   N2        1.0  0.08698907050016653  0.7653096842824211  0.9216416815819034  1.0000
  N   N3        1.0  0.7653109496206056  0.08698914023864998  0.42164308251611254  1.0000
  N   N4        1.0  0.9130110473130131  0.23468961408121197  0.07835701880725324  1.0000
  O   O1        1.0  0.37277755200646107  0.7771734608609715  0.8168177789098937  1.0000
  O   O2        1.0  0.22282636558203708  0.6272234805789408  0.6831832474223276  1.0000
  O   O3        1.0  0.6272225760879876  0.22282584778693598  0.18318314750992232  1.0000
  O   O4        1.0  0.7771739523393465  0.3727767408279873  0.31681646708550937  1.0000
  O   O5        1.0  0.5420680882652744  0.9200966282658595  0.6475698153585868  1.0000
  O   O6        1.0  0.0799033621423177  0.45793177307123756  0.8524308627631074  1.0000
  O   O7        1.0  0.4579313340774647  0.07990358997573567  0.3524302798114434  1.0000
  O   O8        1.0  0.9200978513577169  0.5420684515010166  0.1475684710825363  1.0000
  O   O9        1.0  0.6994290740829996  0.47601460650983524  0.12040964535826519  1.0000
  O   O10       1.0  0.5239880922201365  0.30057152220536654  0.3795884050934932  1.0000
  O   O11       1.0  0.3005705415137641  0.5239865279188791  0.8795899799100156  1.0000
  O   O12       1.0  0.47601221884706757  0.6994286923453713  0.6204098253939068  1.0000
  O   O13       1.0  0.8791147084927003  0.584701694510258  0.9391017520564376  1.0000
  O   O14       1.0  0.41529960446131037  0.12088441517756365  0.5608986658870807  1.0000
  O   O15       1.0  0.1208847172771215  0.4152985271594289  0.06089908512382181  1.0000
  O   O16       1.0  0.5847009067140972  0.8791167224164766  0.43910057871900693  1.0000
  O   O17       1.0  0.3199277946915444  0.8785197430200637  0.6110119776599704  1.0000
  O   O18       1.0  0.12148120199539386  0.6800716211388931  0.8889879448755806  1.0000
  O   O19       1.0  0.6800705456726989  0.12147956272528401  0.38899045209445415  1.0000
  O   O20       1.0  0.8785200080775437  0.3199286000052624  0.11101064695984793  1.0000
