data_image0
_chemical_formula_structural       U2H22C26S2N4O12
_chemical_formula_sum              "U2 H22 C26 S2 N4 O12"
_cell_length_a       7.560672038990112
_cell_length_b       8.832216684817778
_cell_length_c       12.291707789953389
_cell_angle_alpha    86.38151291665443
_cell_angle_beta     73.41746148166472
_cell_angle_gamma    75.99949422444021

_space_group_name_H-M_alt    "P 1"
_space_group_IT_number       1

loop_
  _space_group_symop_operation_xyz
  'x, y, z'

loop_
  _atom_site_type_symbol
  _atom_site_label
  _atom_site_symmetry_multiplicity
  _atom_site_fract_x
  _atom_site_fract_y
  _atom_site_fract_z
  _atom_site_occupancy
  U   U1        1.0  0.4405788744090702  0.425650286244931  0.1544222071302954  1.0000
  U   U2        1.0  0.5594171969331257  0.5743580859001511  0.8455771229710367  1.0000
  H   H1        1.0  0.7636605298347378  0.37081850588509724  0.9742702915177193  1.0000
  H   H2        1.0  0.23632361285497455  0.629182956083504  0.025729916682095684  1.0000
  H   H3        1.0  0.38540015504486297  0.8842231515369079  0.0674948493588943  1.0000
  H   H4        1.0  0.6145952624088125  0.11577817854212917  0.9325106020938919  1.0000
  H   H5        1.0  0.3027195798800548  0.09329491539871529  0.06964816846103625  1.0000
  H   H6        1.0  0.6972692510500951  0.9067052853114461  0.9303585502023639  1.0000
  H   H7        1.0  0.11618479342903504  0.7817102239812144  0.1699655278619971  1.0000
  H   H8        1.0  0.883820176017679  0.21829109356868057  0.8300340888368397  1.0000
  H   H9        1.0  0.8791337531065369  0.9822660147115982  0.2986654785342964  1.0000
  H   H10       1.0  0.12087861131267628  0.017738734448897696  0.7013350628539784  1.0000
  H   H11       1.0  0.8324575819150939  0.9506239330427775  0.5116553749831  1.0000
  H   H12       1.0  0.16755190536599676  0.0493761791802996  0.4883450855228589  1.0000
  H   H13       1.0  0.11526018857176021  0.5619940452916194  0.7373090637513755  1.0000
  H   H14       1.0  0.8847442956964998  0.43800380316174886  0.26268835172788835  1.0000
  H   H15       1.0  0.9194480905421757  0.7969846695769647  0.6691426589258782  1.0000
  H   H16       1.0  0.08055839842757712  0.20302128441729647  0.3308581034836565  1.0000
  H   H17       1.0  0.3550633856045451  0.3094118517183091  0.6954756570790082  1.0000
  H   H18       1.0  0.6449383590898279  0.6905860037392058  0.3045230785346646  1.0000
  H   H19       1.0  0.5769545446494321  0.11537484418222017  0.5521653309400848  1.0000
  H   H20       1.0  0.4230530754943942  0.8846218064415226  0.44783318365232117  1.0000
  H   H21       1.0  0.5979133797310611  0.16465592740747328  0.3452549451019707  1.0000
  H   H22       1.0  0.40208502753584713  0.8353442527833222  0.6547467483298348  1.0000
  C   C1        1.0  0.4283330182020751  0.9958186141525044  0.05705440571063747  1.0000
  C   C2        1.0  0.5716564994584202  0.004183928750535399  0.942950457241061  1.0000
  C   C3        1.0  0.09332827997031504  0.7685997811593239  0.2611457310971304  1.0000
  C   C4        1.0  0.9066725679437085  0.23140155089189562  0.7388554610421426  1.0000
  C   C5        1.0  0.9601147701250031  0.8835272288428299  0.3348748849860073  1.0000
  C   C6        1.0  0.03989791756471562  0.11647635346285769  0.6651256470827607  1.0000
  C   C7        1.0  0.9345828559452657  0.8660879422773035  0.4501272780338468  1.0000
  C   C8        1.0  0.06541785440452232  0.13390874583236465  0.5498725130886869  1.0000
  C   C9        1.0  0.0428997612094691  0.7336869575266503  0.4911048584209184  1.0000
  C   C10       1.0  0.9570978376084723  0.2663109204224128  0.5088946431108284  1.0000
  C   C11       1.0  0.17309193479344745  0.6218165766175543  0.4103997152051307  1.0000
  C   C12       1.0  0.8269085009732823  0.3781812623664536  0.589601704281627  1.0000
  C   C13       1.0  0.28106534613000633  0.4835414462125484  0.4501003768342288  1.0000
  C   C14       1.0  0.7189342325003167  0.516454106510203  0.5498972317077604  1.0000
  C   C15       1.0  0.26003288457854984  0.4647493858550291  0.5686962156865293  1.0000
  C   C16       1.0  0.7399622249048434  0.5352473562140714  0.43130216809304767  1.0000
  C   C17       1.0  0.12923286716889498  0.5807068079902251  0.6471587702526024  1.0000
  C   C18       1.0  0.870768441034457  0.41928756239030923  0.35283938318620767  1.0000
  C   C19       1.0  0.023355849842246926  0.7102055106857248  0.6097421276084705  1.0000
  C   C20       1.0  0.9766442139665302  0.2897935111335457  0.3902576821530915  1.0000
  C   C21       1.0  0.3692187507749837  0.3286954972583657  0.6051659781689837  1.0000
  C   C22       1.0  0.6307781369688927  0.6713000464880565  0.3948345695521239  1.0000
  C   C23       1.0  0.49215759684040716  0.22094141331809422  0.5251150982895184  1.0000
  C   C24       1.0  0.5078451176654752  0.7790529415750171  0.4748836093656126  1.0000
  C   C25       1.0  0.5034172619883746  0.2479373618160423  0.41004128831885117  1.0000
  C   C26       1.0  0.4965826399124539  0.7520570240519076  0.5899563109036309  1.0000
  S   S1        1.0  0.5259676843235397  0.0032606548344560004  0.17320675110946843  1.0000
  S   S2        1.0  0.47402736117218325  0.9967418580798437  0.8267970906181221  1.0000
  N   N1        1.0  0.19752277759102552  0.6408970678782709  0.296424843838011  1.0000
  N   N2        1.0  0.8024762031857336  0.3591008025736143  0.7035744023877086  1.0000
  N   N3        1.0  0.3996880729360726  0.37407992232154896  0.37256049366097704  1.0000
  N   N4        1.0  0.6003085158810182  0.6259167802894439  0.6274408729019926  1.0000
  O   O1        1.0  0.23638069054464952  0.36410736799651733  0.14053929064023413  1.0000
  O   O2        1.0  0.7636138703180182  0.6359021145787055  0.8594667802654643  1.0000
  O   O3        1.0  0.6386986924977408  0.49638179641627994  0.16816134541667083  1.0000
  O   O4        1.0  0.36130843396952633  0.503616076993879  0.8318315118387789  1.0000
  O   O5        1.0  0.579029253348537  0.16116622379978196  0.1630057660308211  1.0000
  O   O6        1.0  0.4209629710440199  0.8388410119722848  0.8369935111467229  1.0000
  O   O7        1.0  0.3736130811888504  0.9984693562082186  0.27693813397629446  1.0000
  O   O8        1.0  0.626394499311033  0.0015330572704854986  0.7230666480864728  1.0000
  O   O9        1.0  0.697151271890043  0.8793857988160881  0.1576144718598869  1.0000
  O   O10       1.0  0.30284993948381367  0.1206190422828115  0.8423848738871842  1.0000
  O   O11       1.0  0.6400944101091924  0.36909438530089034  0.9650101346096066  1.0000
  O   O12       1.0  0.35989333609293794  0.6309082929430332  0.03498203129045409  1.0000
