data_image0
_chemical_formula_structural       Al6H8C84I10N10O28
_chemical_formula_sum              "Al6 H8 C84 I10 N10 O28"
_cell_length_a       13.010171195287413
_cell_length_b       13.412445554278348
_cell_length_c       28.444929844633148
_cell_angle_alpha    90.38512951641306
_cell_angle_beta     90.35188160859391
_cell_angle_gamma    60.78551921466973

_space_group_name_H-M_alt    "P 1"
_space_group_IT_number       1

loop_
  _space_group_symop_operation_xyz
  'x, y, z'

loop_
  _atom_site_type_symbol
  _atom_site_label
  _atom_site_symmetry_multiplicity
  _atom_site_fract_x
  _atom_site_fract_y
  _atom_site_fract_z
  _atom_site_occupancy
  Al  Al1       1.0  0.5819057726807771  0.5865310176052461  0.5002547605515915  1.0000
  Al  Al2       1.0  0.33695143422711754  0.5832523345379529  0.5014008300860341  1.0000
  Al  Al3       1.0  0.5600991513938709  0.3570956355270809  0.5006959087347695  1.0000
  Al  Al4       1.0  0.09204471688536131  0.07516070855585613  0.9991438203385032  1.0000
  Al  Al5       1.0  0.08967962684049982  0.31654645860150055  0.00016210325527060002  1.0000
  Al  Al6       1.0  0.32377279020428773  0.1019464440763045  0.9994657776362461  1.0000
  H   H1        1.0  0.19932216383190862  0.5491873559564199  0.21264026124331545  1.0000
  H   H2        1.0  0.13315498312515223  0.41527115058774916  0.7871724236886595  1.0000
  H   H3        1.0  0.14912846327640497  0.4246764097435687  0.7000273799627479  1.0000
  H   H4        1.0  0.013123293246678719  0.1584805230114057  0.7852159943239486  1.0000
  H   H5        1.0  0.2687029055720842  0.7568452242601611  0.805397390154326  1.0000
  H   H6        1.0  0.817770408891619  0.489629587630475  0.2111577896418169  1.0000
  H   H7        1.0  0.6820600640000908  0.677521467358453  0.4698236424645473  1.0000
  H   H8        1.0  0.9780757870516654  0.9959367284508571  0.026468272167470306  1.0000
  C   C1        1.0  0.3803827113829501  0.7050434490432167  0.4325260094910349  1.0000
  C   C2        1.0  0.348318892364219  0.3937653009945309  0.38685813190056006  1.0000
  C   C3        1.0  0.2716363419202422  0.2930207541280439  0.23971601034317305  1.0000
  C   C4        1.0  0.312146050191494  0.3492313782124513  0.19976924945705582  1.0000
  C   C5        1.0  0.3897641268801237  0.25590915901334915  0.2676065934764367  1.0000
  C   C6        1.0  0.32909501614860676  0.37296914023111344  0.2958317979180265  1.0000
  C   C7        1.0  0.430840320575804  0.3105291959414203  0.2282698787726432  1.0000
  C   C8        1.0  0.3707619438032881  0.4282653038527542  0.25592061876326266  1.0000
  C   C9        1.0  0.30460778610836314  0.33288455421757135  0.15104495172142415  1.0000
  C   C10       1.0  0.33895352860696454  0.38510318906863733  0.34463941830549766  1.0000
  C   C11       1.0  0.7509264197834611  0.34506040802993  0.3884325989911872  1.0000
  C   C12       1.0  0.37192534435938296  0.4128730408476074  0.4345539201030988  1.0000
  C   C13       1.0  0.8328162223390267  0.22254893476809914  0.2720920858141298  1.0000
  C   C14       1.0  0.8596926533877964  0.21854860720810623  0.2239746525095754  1.0000
  C   C15       1.0  0.8211084418232635  0.4155167639345122  0.2280426380257339  1.0000
  C   C16       1.0  0.7969804235227046  0.4188120498498266  0.2758675217347601  1.0000
  C   C17       1.0  0.8021122012651176  0.3226738021253227  0.2987504616620811  1.0000
  C   C18       1.0  0.852735816472908  0.31608795241663773  0.2016426576031947  1.0000
  C   C19       1.0  0.8810109619856521  0.31076574824656694  0.15366718790870246  1.0000
  C   C20       1.0  0.7762999111317584  0.3294692876141171  0.3469432150025185  1.0000
  C   C21       1.0  0.9093736228071448  0.3011651717682399  0.1125456782446292  1.0000
  C   C22       1.0  0.3522418120407595  0.7511220349530844  0.3855608102083893  1.0000
  C   C23       1.0  0.7011091185820248  0.37699217319588757  0.434774074618936  1.0000
  C   C24       1.0  0.42695451023985964  0.8275095522527922  0.2780482393126249  1.0000
  C   C25       1.0  0.4299781257513402  0.847048235271004  0.22955346879276564  1.0000
  C   C26       1.0  0.2746898065053431  0.7977044968209555  0.21497729472957164  1.0000
  C   C27       1.0  0.27160567559647586  0.7784097689773121  0.26337136818501966  1.0000
  C   C28       1.0  0.3459043812598851  0.7950811709817175  0.2955500981007688  1.0000
  C   C29       1.0  0.35113228050277506  0.8363943881394248  0.19775375893018324  1.0000
  C   C30       1.0  0.34634513144560947  0.8688211496299163  0.150431331777682  1.0000
  C   C31       1.0  0.3450120687621948  0.7734075135509502  0.3438480687198791  1.0000
  C   C32       1.0  0.33391206315989314  0.9057369574567603  0.1105749319608336  1.0000
  C   C33       1.0  0.35051301056277856  0.37218202478315743  0.6095871169641855  1.0000
  C   C34       1.0  0.37366992417272377  0.7166658946417642  0.5655147517047823  1.0000
  C   C35       1.0  0.4421064173681444  0.29741628758500144  0.7289696275091941  1.0000
  C   C36       1.0  0.4327879736053505  0.29455948708772445  0.7779458441250355  1.0000
  C   C37       1.0  0.21871071104033754  0.38319212492861254  0.7704655831337421  1.0000
  C   C38       1.0  0.22758871352069582  0.387900526030194  0.7221879324435535  1.0000
  C   C39       1.0  0.33857039503374875  0.3455998898011928  0.700623047528417  1.0000
  C   C40       1.0  0.3203983363218655  0.3363845995927832  0.7991418321664838  1.0000
  C   C41       1.0  0.3075185014181088  0.3258471194619192  0.847890275352924  1.0000
  C   C42       1.0  0.3454265290011167  0.35655392688543236  0.6515080010869241  1.0000
  C   C43       1.0  0.29072643323776515  0.31364132081947105  0.889076264966782  1.0000
  C   C44       1.0  0.7658461463644956  0.35449391251427204  0.6100794600787863  1.0000
  C   C45       1.0  0.37771808971997695  0.3995472742299385  0.5643102999655129  1.0000
  C   C46       1.0  0.7500639418467898  0.42265666750461867  0.7276128947920952  1.0000
  C   C47       1.0  0.7659157212081668  0.42015883464257103  0.7767047509281966  1.0000
  C   C48       1.0  0.9402294910583464  0.23222409929094576  0.7686292692497361  1.0000
  C   C49       1.0  0.9245498267955696  0.23519659342816376  0.7201451037768437  1.0000
  C   C50       1.0  0.8287979158835841  0.3302295357218413  0.6986302721076073  1.0000
  C   C51       1.0  0.8620923224788728  0.3236161733583814  0.7974098537167579  1.0000
  C   C52       1.0  0.882565019036875  0.31659594026762516  0.8462775421989195  1.0000
  C   C53       1.0  0.8033571568876001  0.33652914317861626  0.6502149022885961  1.0000
  C   C54       1.0  0.9081295094580711  0.3031084921750917  0.8878292514819678  1.0000
  C   C55       1.0  0.3458438054099419  0.7748958244216766  0.6100158159730996  1.0000
  C   C56       1.0  0.7029588685785914  0.3887726752176874  0.5660460982182727  1.0000
  C   C57       1.0  0.2997426094749542  0.7755800588825893  0.7323849541139111  1.0000
  C   C58       1.0  0.3006817507712751  0.795924791216422  0.7801740902014132  1.0000
  C   C59       1.0  0.3893976247416618  0.9167572269699705  0.7649012914356419  1.0000
  C   C60       1.0  0.38401128485482183  0.8996485787994788  0.7165331807369739  1.0000
  C   C61       1.0  0.3394515201550094  0.8280781602910069  0.6993881751841543  1.0000
  C   C62       1.0  0.3447132035758572  0.8667715294118707  0.7970924099408877  1.0000
  C   C63       1.0  0.3396066662974563  0.8895896364072089  0.8458151627808947  1.0000
  C   C64       1.0  0.3404299179197779  0.8041255330292078  0.651013943943525  1.0000
  C   C65       1.0  0.327820431630123  0.9130417043922705  0.8876060493658642  1.0000
  C   C66       1.0  0.9609910307364731  0.27731538474532164  0.0664576855850854  1.0000
  C   C67       1.0  0.21129961435715938  0.4106169731599821  0.26686105468026267  1.0000
  C   C68       1.0  0.27606306328138436  0.2819521537625391  0.0636724358269731  1.0000
  C   C69       1.0  0.2975248329425356  0.9641979247395798  0.0660877122683132  1.0000
  C   C70       1.0  0.9600073935030979  0.27286599692390473  0.933969464948305  1.0000
  C   C71       1.0  0.26530040164627183  0.2865447876002349  0.9346620213215716  1.0000
  C   C72       1.0  0.29924774109584734  0.9632719815935078  0.933632812076894  1.0000
  C   C73       1.0  0.2529241054386589  0.4650461362524681  0.22816351524875245  1.0000
  C   C74       1.0  0.29749321015622604  0.3134062076723866  0.1096368294083305  1.0000
  C   C75       1.0  0.7714931609694916  0.5181073323034014  0.30277523493809616  1.0000
  C   C76       1.0  0.5034500879499434  0.841336156917514  0.31002717292744114  1.0000
  C   C77       1.0  0.5125156477580789  0.8775005945132509  0.2113323145888657  1.0000
  C   C78       1.0  0.20083356066710695  0.733377136149251  0.28118652294663354  1.0000
  C   C79       1.0  0.6517468399361307  0.5178480368475321  0.706801547540856  1.0000
  C   C80       1.0  0.6846404401368674  0.5132331047039003  0.8048617283362987  1.0000
  C   C81       1.0  0.43316404688002325  0.4893368239464166  0.2635180536929411  1.0000
  C   C82       1.0  0.5433970212519696  0.26452866983400725  0.20710785443054655  1.0000
  C   C83       1.0  0.8351701015049005  0.1263009341068226  0.29399168813443316  1.0000
  C   C84       1.0  0.895702759772611  0.11649447996632031  0.19756116215582156  1.0000
  I   I1        1.0  0.1699118400672077  0.7681281254807504  0.1678321673915733  1.0000
  I   I2        1.0  0.6041696248109787  0.23191622700213096  0.6946840175934313  1.0000
  I   I3        1.0  0.5805140925069877  0.22711514608528924  0.8222903217550341  1.0000
  I   I4        1.0  0.043291487645156314  0.48771093826763223  0.2967887106129865  1.0000
  I   I5        1.0  0.04200334961286252  0.097066437494334  0.6790557042765644  1.0000
  I   I6        1.0  0.24356527715697512  0.6607851694202083  0.7099764189109053  1.0000
  I   I7        1.0  0.4633404876198526  0.012576957840934704  0.7926243955518333  1.0000
  I   I8        1.0  0.4398588697867184  0.9775665281761408  0.6668555802072406  1.0000
  I   I9        1.0  0.49733476067574883  0.09993918027968361  0.299881047721172  1.0000
  I   I10       1.0  0.19770880378648314  0.18753672772048455  0.22549121788025422  1.0000
  N   N1        1.0  0.756320292417641  0.5980637279070323  0.3247332669578782  1.0000
  N   N2        1.0  0.5633153596412158  0.8569490453290884  0.336417317306868  1.0000
  N   N3        1.0  0.5809634814731481  0.9005791914759914  0.1956269670811537  1.0000
  N   N4        1.0  0.14966270937105008  0.6898931527026735  0.2967213852116189  1.0000
  N   N5        1.0  0.5700656398220759  0.5961915225863237  0.6903941574973234  1.0000
  N   N6        1.0  0.6166378212788713  0.5902980009259837  0.8273382450862456  1.0000
  N   N7        1.0  0.49191542014089884  0.5322535981969595  0.2688621549805816  1.0000
  N   N8        1.0  0.6338912449810225  0.23290711891553437  0.18856021665175865  1.0000
  N   N9        1.0  0.8355188591577517  0.0478071860842704  0.3116796328547764  1.0000
  N   N10       1.0  0.9278962244822184  0.03262642617591641  0.1756767511900108  1.0000
  O   O1        1.0  0.6827695049969906  0.4720729919398608  0.4506000092030717  1.0000
  O   O2        1.0  0.3063726932644429  0.49664596517667553  0.546768391100251  1.0000
  O   O3        1.0  0.4760445290063872  0.3259332393859538  0.5461805306107622  1.0000
  O   O4        1.0  0.6759377880626902  0.3172518633065807  0.5470669950240464  1.0000
  O   O5        1.0  0.49248979504675844  0.5075495154567093  0.500517558893705  1.0000
  O   O6        1.0  0.1945530477293857  0.9903886771336662  0.0530208775630427  1.0000
  O   O7        1.0  0.9822293309768785  0.18407366937970693  0.047444535574470606  1.0000
  O   O8        1.0  0.9852332288382898  0.3526676746520749  0.049793421095643005  1.0000
  O   O9        1.0  0.1793709084487248  0.3516567596628235  0.043643070751983315  1.0000
  O   O10       1.0  0.3521726845887586  0.184421561197226  0.047664141246478706  1.0000
  O   O11       1.0  0.3702417625175588  0.9875382608252963  0.044893288358054  1.0000
  O   O12       1.0  0.48371172992539624  0.674894501603639  0.44635119673228735  1.0000
  O   O13       1.0  0.205489636063213  0.9765837007361926  0.9523342358336822  1.0000
  O   O14       1.0  0.997227257436059  0.17089059055265926  0.9462624281268646  1.0000
  O   O15       1.0  0.9684035033759674  0.3512455360437912  0.9573183939226553  1.0000
  O   O16       1.0  0.16215681009883554  0.35288213083676123  0.9510191189157169  1.0000
  O   O17       1.0  0.34427532221430834  0.196223867199997  0.9546839938541751  1.0000
  O   O18       1.0  0.3701260846646905  0.9955157377620623  0.951414573145158  1.0000
  O   O19       1.0  0.16883783956163972  0.16599205795508712  8.401151315240005e-05  1.0000
  O   O20       1.0  0.3009019541424962  0.6943253318827732  0.4549602126611489  1.0000
  O   O21       1.0  0.2985338591989121  0.5075430046969416  0.4536960177447966  1.0000
  O   O22       1.0  0.46754029740380804  0.33655670962655654  0.45300686183069433  1.0000
  O   O23       1.0  0.6748639756910962  0.3062256522350354  0.4547608833380608  1.0000
  O   O24       1.0  0.6766068065099945  0.4868980799431811  0.5515789138742379  1.0000
  O   O25       1.0  0.47205177760319156  0.6909824137723958  0.5475695262627553  1.0000
  O   O26       1.0  0.29686521987158454  0.6911549826258465  0.5484245965666547  1.0000
  O   O27       1.0  0.6652194514264312  0.6561463619762692  0.5000294165297704  1.0000
  O   O28       1.0  0.020431516600673792  0.99390828505166  0.9983398669667239  1.0000
