data_image0
_chemical_formula_structural       Zn4H44C32N20Cl8
_chemical_formula_sum              "Zn4 H44 C32 N20 Cl8"
_cell_length_a       6.875464511000827
_cell_length_b       13.023765646846702
_cell_length_c       13.845218232974066
_cell_angle_alpha    108.24530625813328
_cell_angle_beta     89.99997824155334
_cell_angle_gamma    90.00005578194032

_space_group_name_H-M_alt    "P 1"
_space_group_IT_number       1

loop_
  _space_group_symop_operation_xyz
  'x, y, z'

loop_
  _atom_site_type_symbol
  _atom_site_label
  _atom_site_symmetry_multiplicity
  _atom_site_fract_x
  _atom_site_fract_y
  _atom_site_fract_z
  _atom_site_occupancy
  Zn  Zn1       1.0  0.12360178997901268  0.18486141509242063  0.5520414015427306  1.0000
  Zn  Zn2       1.0  0.6236014306601092  0.31513974222878016  0.9479578829458859  1.0000
  Zn  Zn3       1.0  0.8763966364550485  0.815139041502775  0.447958458337503  1.0000
  Zn  Zn4       1.0  0.37639699577330527  0.6848599059364133  0.052041731372277356  1.0000
  H   H1        1.0  0.4269840865304886  0.9976999579918908  0.9022061018859802  1.0000
  H   H2        1.0  0.9269906919232793  0.5023083744790213  0.5977956638997455  1.0000
  H   H3        1.0  0.5730157943501907  0.002300481878044999  0.09779519753313079  1.0000
  H   H4        1.0  0.07301209785262588  0.49769209048008634  0.40220347621094277  1.0000
  H   H5        1.0  0.5824461637884041  0.005312857298150699  0.8033738570911026  1.0000
  H   H6        1.0  0.08244843623604227  0.49469228804171905  0.6966295359825594  1.0000
  H   H7        1.0  0.41755517153974603  0.9946875909349587  0.19662672255851993  1.0000
  H   H8        1.0  0.9175543535380015  0.5053065433317556  0.3033705525428942  1.0000
  H   H9        1.0  0.8885974661308536  0.0758097477117303  0.0517419600204008  1.0000
  H   H10       1.0  0.38859796291446697  0.424191901046065  0.44825724258585353  1.0000
  H   H11       1.0  0.11140096030321439  0.924190708883465  0.9482578998598327  1.0000
  H   H12       1.0  0.611401917967065  0.575808563912318  0.5517418975249058  1.0000
  H   H13       1.0  0.7716003900955569  0.1981831007804473  0.0580748087785636  1.0000
  H   H14       1.0  0.2715992125693916  0.30181848918577003  0.44192439865177857  1.0000
  H   H15       1.0  0.22839803633786454  0.8018165473847534  0.9419248055395996  1.0000
  H   H16       1.0  0.7283992138649535  0.6981819757722435  0.5580747414590093  1.0000
  H   H17       1.0  0.41158870669618597  0.8446888176092034  0.6815487726855594  1.0000
  H   H18       1.0  0.911583789278474  0.6553137979356974  0.8184555934174041  1.0000
  H   H19       1.0  0.5884111741844931  0.1553116222607258  0.3184525267335445  1.0000
  H   H20       1.0  0.08841754604838312  0.3446850334374076  0.18154449510808485  1.0000
  H   H21       1.0  0.24636201421002105  0.8441010511600597  0.7795444171747263  1.0000
  H   H22       1.0  0.746360081452451  0.6559023065146408  0.7204587617640215  1.0000
  H   H23       1.0  0.7536378666709496  0.15589939707268746  0.22045616247493172  1.0000
  H   H24       1.0  0.2536412538746831  0.34409653322128264  0.2795406069920148  1.0000
  H   H25       1.0  0.7259310654087302  0.9002259875319824  0.9177772040426788  1.0000
  H   H26       1.0  0.2259370632942961  0.5997854107269021  0.582231310436825  1.0000
  H   H27       1.0  0.2740702699187665  0.099773652271125  0.0822231300448735  1.0000
  H   H28       1.0  0.7740671809295208  0.40021665436695025  0.4177697603368813  1.0000
  H   H29       1.0  0.7269157120355842  0.8298737719204257  0.7853336996633971  1.0000
  H   H30       1.0  0.22691737480958096  0.6701335595936936  0.714675746273592  1.0000
  H   H31       1.0  0.273084168845017  0.17012587624513745  0.21466591465473073  1.0000
  H   H32       1.0  0.773085414964541  0.3298660634841468  0.2853260273528306  1.0000
  H   H33       1.0  0.5519078403607979  0.798673978895174  0.8669796998514627  1.0000
  H   H34       1.0  0.05191253154232809  0.7013364983980779  0.633030735549724  1.0000
  H   H35       1.0  0.44809204052016577  0.2013264693375731  0.1330208797981882  1.0000
  H   H36       1.0  0.9480902582324403  0.2986639331097649  0.36697128363876885  1.0000
  H   H37       1.0  0.8303627469113408  0.24789476442808223  0.7507886816304321  1.0000
  H   H38       1.0  0.3303587160885542  0.25210650515261085  0.7492098745635758  1.0000
  H   H39       1.0  0.16963567952207367  0.7521048837371109  0.24921093268773115  1.0000
  H   H40       1.0  0.6696353470048848  0.7478947682343106  0.2507895111093674  1.0000
  H   H41       1.0  0.3529310073026649  0.9735688528807815  0.5838265840380217  1.0000
  H   H42       1.0  0.8529315965594719  0.5264297495796485  0.9161715182869088  1.0000
  H   H43       1.0  0.6470703280261317  0.026432403782330003  0.41617424117367097  1.0000
  H   H44       1.0  0.1470697387666533  0.4735674816590888  0.08382663957553403  1.0000
  C   C1        1.0  0.4984221509290379  0.94890575029104  0.8317878687323629  1.0000
  C   C2        1.0  0.9984244289001154  0.5511001593352133  0.668216036499487  1.0000
  C   C3        1.0  0.5015791843988352  0.05109468957925149  0.1682134306867127  1.0000
  C   C4        1.0  0.0015783608748520996  0.44889948883107417  0.3317835778185838  1.0000
  C   C5        1.0  0.0860957381193614  0.0403972445362939  0.7874043496408658  1.0000
  C   C6        1.0  0.5860929145337719  0.4596047023674572  0.7125951819563312  1.0000
  C   C7        1.0  0.9139055972091583  0.9596040037639992  0.21259719534027963  1.0000
  C   C8        1.0  0.41390551189992647  0.5403949541605543  0.2874037125923792  1.0000
  C   C9        1.0  0.3445867079302046  0.8954991281002764  0.7523107010671879  1.0000
  C   C10       1.0  0.844586114492806  0.6045042872955905  0.7476917540520488  1.0000
  C   C11       1.0  0.6554146273979454  0.1045013201328402  0.2476898785824417  1.0000
  C   C12       1.0  0.1554166752821615  0.3954953608706973  0.252307860266022  1.0000
  C   C13       1.0  0.6326966301617745  0.8646843845129625  0.8515195613144826  1.0000
  C   C14       1.0  0.1327026428045386  0.6353229163826911  0.6484884489683934  1.0000
  C   C15       1.0  0.3673032507185425  0.13531525528978253  0.1484807727731052  1.0000
  C   C16       1.0  0.867300146970514  0.3646775234879698  0.35151285045065345  1.0000
  C   C17       1.0  0.8944702316354948  0.1185905813037706  0.921674796419758  1.0000
  C   C18       1.0  0.3944694773598981  0.3814115289218307  0.578324002692959  1.0000
  C   C19       1.0  0.10552819479857328  0.8814098752914248  0.07832506346047553  1.0000
  C   C20       1.0  0.6055304035216339  0.6185889360365453  0.42167513741780027  1.0000
  C   C21       1.0  0.027803036329174805  0.11411456049587801  0.7369129100985106  1.0000
  C   C22       1.0  0.5278014933573871  0.38588655704887037  0.7630856585706809  1.0000
  C   C23       1.0  0.9721982989989755  0.8858858877372313  0.263087669551112  1.0000
  C   C24       1.0  0.47219838752312887  0.6141122994123194  0.23691227064647785  1.0000
  C   C25       1.0  0.8891412544629205  0.1896170158468848  0.7849377045321121  1.0000
  C   C26       1.0  0.3891388111161333  0.31038347484047085  0.7150606036762214  1.0000
  C   C27       1.0  0.11085862641739647  0.8103826239558604  0.21506262955547584  1.0000
  C   C28       1.0  0.6108581608703787  0.6896161816871711  0.28493829087251743  1.0000
  C   C29       1.0  0.24902730283425709  0.010975083455292595  0.643651810801572  1.0000
  C   C30       1.0  0.7490287870523246  0.48902452839563904  0.85634625762183  1.0000
  C   C31       1.0  0.7509740324945399  0.9890261732078259  0.3563490144101209  1.0000
  C   C32       1.0  0.2509740027212644  0.5109727112062784  0.14365118047113157  1.0000
  N   N1        1.0  0.822284647537799  0.1915981862725432  0.8768249913560738  1.0000
  N   N2        1.0  0.3222822705841041  0.30840307924931665  0.6231735651709798  1.0000
  N   N3        1.0  0.17771377889561532  0.8084014618926576  0.12317462296208963  1.0000
  N   N4        1.0  0.6777147014030617  0.6915973857083275  0.3768255749398294  1.0000
  N   N5        1.0  0.8304109123330292  0.12642766964828675  0.015541450899071708  1.0000
  N   N6        1.0  0.3304069252469333  0.37357475829957565  0.48445799966850694  1.0000
  N   N7        1.0  0.16959042299447447  0.8735719701548205  0.9844588831884876  1.0000
  N   N8        1.0  0.6695900467408791  0.6264265150880775  0.5155413860043724  1.0000
  N   N9        1.0  0.1331748413462748  0.09356529568003683  0.6470037275116525  1.0000
  N   N10       1.0  0.6331747220276468  0.4064334495244993  0.8529941001265796  1.0000
  N   N11       1.0  0.8668250395340422  0.9064343441227083  0.35299660657593535  1.0000
  N   N12       1.0  0.3668251588522152  0.5935645985066812  0.14700358352850879  1.0000
  N   N13       1.0  0.2252828523125103  0.9757570479112445  0.7263232693379748  1.0000
  N   N14       1.0  0.7252820917070507  0.5242439073327035  0.7736762947058793  1.0000
  N   N15       1.0  0.7747199374631888  0.0242442003894183  0.2736782756431424  1.0000
  N   N16       1.0  0.27471924362036754  0.47575494076603764  0.22632235428070394  1.0000
  N   N17       1.0  0.0221334783081488  0.03850695282734049  0.8772684033397339  1.0000
  N   N18       1.0  0.5221321811279438  0.4614941535056902  0.622730885332679  1.0000
  N   N19       1.0  0.977864948125351  0.961493487042226  0.12273289607939826  1.0000
  N   N20       1.0  0.47786769975257215  0.5385047029554926  0.377267043884487  1.0000
  Cl  Cl1       1.0  0.25505616496829475  0.10403473045109733  0.39928089334100036  1.0000
  Cl  Cl2       1.0  0.7550533098016601  0.39596603440838146  0.10071878897891647  1.0000
  Cl  Cl3       1.0  0.7449451703598554  0.8959657177820122  0.6007196863086293  1.0000
  Cl  Cl4       1.0  0.24494657107958764  0.6040344221871762  0.8992810709012886  1.0000
  Cl  Cl5       1.0  0.8169862643191833  0.23911165200609472  0.5507525682626024  1.0000
  Cl  Cl6       1.0  0.3169850060625804  0.260888785697965  0.9492471824597288  1.0000
  Cl  Cl7       1.0  0.18301216211236945  0.7608863625734587  0.44924799447031927  1.0000
  Cl  Cl8       1.0  0.6830134203714804  0.7391116708972303  0.050752677420511746  1.0000
