data_image0
_chemical_formula_structural       Zn4H48C48O16
_chemical_formula_sum              "Zn4 H48 C48 O16"
_cell_length_a       8.768959723443952
_cell_length_b       9.258117276102158
_cell_length_c       17.301
_cell_angle_alpha    83.76737750675102
_cell_angle_beta     76.74757670699456
_cell_angle_gamma    61.732948255511864

_space_group_name_H-M_alt    "P 1"
_space_group_IT_number       1

loop_
  _space_group_symop_operation_xyz
  'x, y, z'

loop_
  _atom_site_type_symbol
  _atom_site_label
  _atom_site_symmetry_multiplicity
  _atom_site_fract_x
  _atom_site_fract_y
  _atom_site_fract_z
  _atom_site_occupancy
  Zn  Zn1       1.0  0.22230372666211218  0.8754875341312669  0.2736876871110567  1.0000
  Zn  Zn2       1.0  0.9023440372903908  0.8754495163782039  0.2263421220705197  1.0000
  Zn  Zn3       1.0  0.7776986722266415  0.1245118204253899  0.7263149038647327  1.0000
  Zn  Zn4       1.0  0.09765367525447742  0.12454983817846  0.7736598574108626  1.0000
  H   H1        1.0  0.5730801754535904  0.4040171145804194  0.4306991766053089  1.0000
  H   H2        1.0  0.022826603527526888  0.404072301641321  0.06925704977445692  1.0000
  H   H3        1.0  0.42692512500429564  0.5959834663553707  0.5693001159825002  1.0000
  H   H4        1.0  0.9771770217387827  0.5959246001570762  0.930742651195999  1.0000
  H   H5        1.0  0.784994772766595  0.3661036037415286  0.44072370952989104  1.0000
  H   H6        1.0  0.848744376904733  0.3662041668302791  0.05928962081818419  1.0000
  H   H7        1.0  0.21501610118189515  0.633883487023823  0.5592716731817333  1.0000
  H   H8        1.0  0.15125556922890132  0.633800093242904  0.9407077681440867  1.0000
  H   H9        1.0  0.7626755366723046  0.2201951466153105  0.3927559936082475  1.0000
  H   H10       1.0  0.017044160332893906  0.2202515600553383  0.10719556052704599  1.0000
  H   H11       1.0  0.23732223066415511  0.7798017551830938  0.6072380299833995  1.0000
  H   H12       1.0  0.9829511542484467  0.7797502472595852  0.8928007750676201  1.0000
  H   H13       1.0  0.6472518447844849  0.652441056036082  0.4430502391088568  1.0000
  H   H14       1.0  0.700368079861363  0.6525440718830993  0.05696167028191469  1.0000
  H   H15       1.0  0.3527489337042836  0.3475521666249222  0.5569482723674782  1.0000
  H   H16       1.0  0.2996366074077486  0.3474577354318242  0.9430353103002885  1.0000
  H   H17       1.0  0.43792514267690313  0.6919341431958729  0.4272509034355068  1.0000
  H   H18       1.0  0.870202796958779  0.6920163105976584  0.07278864976385077  1.0000
  H   H19       1.0  0.5620778694006321  0.3080639849816578  0.5727459075280734  1.0000
  H   H20       1.0  0.12980016032716432  0.3079842703381388  0.9272120710805682  1.0000
  H   H21       1.0  0.5209656948341179  0.8337881909145821  0.39359978430317  1.0000
  H   H22       1.0  0.6453182995362141  0.8338458307337433  0.10645263766919302  1.0000
  H   H23       1.0  0.4790444015508299  0.1662074845046888  0.6063998140338998  1.0000
  H   H24       1.0  0.35469352683189476  0.16615107106466104  0.8935484224171049  1.0000
  H   H25       1.0  0.8047974411564808  0.8946080111647206  0.5748799365992171  1.0000
  H   H26       1.0  0.30063703863937985  0.8947134797699974  0.925246520905823  1.0000
  H   H27       1.0  0.19519129272304533  0.1053999280458626  0.4251231653879587  1.0000
  H   H28       1.0  0.6993641886634023  0.1052858747866665  0.07475389419190756  1.0000
  H   H29       1.0  0.6685531261876108  0.9049660093062502  0.5111020478369213  1.0000
  H   H30       1.0  0.4268757469344778  0.9048212965687767  0.9889118702120855  1.0000
  H   H31       1.0  0.3314360017143514  0.0950505145582525  0.4888964636295939  1.0000
  H   H32       1.0  0.5731268163290437  0.0951706997131012  0.011087661140272993  1.0000
  H   H33       1.0  0.8660467159422893  0.9188412627958584  0.4710222975929526  1.0000
  H   H34       1.0  0.21550007491407544  0.9188719222741357  0.029129028249123185  1.0000
  H   H35       1.0  0.1339484890558751  0.0811654500355914  0.5289818577633838  1.0000
  H   H36       1.0  0.7845017107859036  0.0811286586616617  0.9708735627261404  1.0000
  H   H37       1.0  0.28914755782815854  0.4362684329708841  0.31625365509776776  1.0000
  H   H38       1.0  0.27454611570483684  0.4362144722891159  0.1837241019763027  1.0000
  H   H39       1.0  0.7108435192233173  0.563739506239699  0.6837485966340681  1.0000
  H   H40       1.0  0.7254581775418388  0.5637787503718954  0.816279203130371  1.0000
  H   H41       1.0  0.21474724226912664  0.2860848181935438  0.32175342167613513  1.0000
  H   H42       1.0  0.4990913579362015  0.285892276669955  0.1781826535614712  1.0000
  H   H43       1.0  0.7852409332132168  0.713921894637906  0.6782486604360471  1.0000
  H   H44       1.0  0.5009098693665807  0.7141070778867089  0.8218166055337193  1.0000
  H   H45       1.0  0.3864140374368006  0.2519350649080891  0.36898294507712853  1.0000
  H   H46       1.0  0.3614344990629803  0.2519681771446329  0.13094704173981603  1.0000
  H   H47       1.0  0.6135764264258938  0.7480741006816203  0.6310210406580055  1.0000
  H   H48       1.0  0.6385697941837022  0.7480250455163784  0.8690551073643108  1.0000
  C   C1        1.0  0.9134461686834005  0.1732113357225771  0.24999160501656081  1.0000
  C   C2        1.0  0.08655388703341056  0.8267880188340868  0.7500066342031247  1.0000
  C   C3        1.0  0.8219189733646459  0.3562214407028819  0.2499946923337575  1.0000
  C   C4        1.0  0.1780858782792265  0.6437730083372557  0.7500050086377358  1.0000
  C   C5        1.0  0.7303623518838761  0.4395109793935958  0.32279353659384924  1.0000
  C   C6        1.0  0.8301640776503091  0.4395293750805607  0.17720421130281494  1.0000
  C   C7        1.0  0.2696424449684046  0.5604859224048084  0.6772060282495715  1.0000
  C   C8        1.0  0.1698389892188105  0.5604663003387103  0.8227950477939246  1.0000
  C   C9        1.0  0.6474379534393789  0.6119864876374947  0.3229015317635274  1.0000
  C   C10       1.0  0.7406407486218853  0.6120036569453262  0.17711316993681692  1.0000
  C   C11       1.0  0.35256801499888013  0.3880104141609095  0.6770967409503186  1.0000
  C   C12       1.0  0.25935869390615107  0.3879969239904639  0.82288564728362  1.0000
  C   C13       1.0  0.6526244817621958  0.6948553782862277  0.2500110373037502  1.0000
  C   C14       1.0  0.34738265826202763  0.3051415235121766  0.749988833286878  1.0000
  C   C15       1.0  0.5608991378471088  0.8783180171659168  0.2500166373941823  1.0000
  C   C16       1.0  0.43910683059114314  0.12167888463248033  0.7499822133209407  1.0000
  C   C17       1.0  0.7126548985814978  0.3517991175560269  0.40027783558618785  1.0000
  C   C18       1.0  0.9354768513621394  0.3518616628917145  0.0997014652778745  1.0000
  C   C19       1.0  0.2873475550988475  0.6481977842423774  0.5997196895062231  1.0000
  C   C20       1.0  0.06452019320236256  0.6481413708023425  0.9002974880685602  1.0000
  C   C21       1.0  0.5585063552075411  0.7029556124473402  0.40053791810390754  1.0000
  C   C22       1.0  0.738603075185047  0.7030107995082417  0.0994907129372748  1.0000
  C   C23       1.0  0.4414966568699938  0.2970425157301904  0.5994600488622198  1.0000
  C   C24       1.0  0.26140350644197957  0.2969848759110292  0.9005081377783597  1.0000
  C   C25       1.0  0.05576466704387431  0.7042445369141603  0.3707882421778734  1.0000
  C   C26       1.0  0.240124681170478  0.7041734069245535  0.12924781963221227  1.0000
  C   C27       1.0  0.9442251288384542  0.2957683078129492  0.6292127174223127  1.0000
  C   C28       1.0  0.759874980523911  0.2958173629781911  0.8707532761043099  1.0000
  C   C29       1.0  0.0313235411796029  0.5971791860082263  0.4389134579190497  1.0000
  C   C30       1.0  0.3715858429223787  0.5971374891177632  0.0611065813464151  1.0000
  C   C31       1.0  0.9686674262886967  0.4028336587188832  0.5610867875528385  1.0000
  C   C32       1.0  0.6284155487551644  0.4028545071641076  0.9388936641342481  1.0000
  C   C33       1.0  0.9055287772453086  0.6731999755887301  0.5077270849101083  1.0000
  C   C34       1.0  0.42140110645915024  0.6731840326600251  0.9923178200990606  1.0000
  C   C35       1.0  0.09446648254444774  0.3268042844844601  0.49227373856666656  1.0000
  C   C36       1.0  0.5786019604099694  0.326811642759246  0.0076837510027658856  1.0000
  C   C37       1.0  0.8072477451701944  0.85708571526866  0.5163040419526084  1.0000
  C   C38       1.0  0.3359006212986769  0.8570562821695162  0.9837837417046132  1.0000
  C   C39       1.0  0.19274093391774733  0.1429246767001828  0.4836977679039621  1.0000
  C   C40       1.0  0.6641019419648373  0.1429357141123617  0.016218101652832207  1.0000
  C   C41       1.0  0.1272781434308428  0.4259177931041478  0.42989130942426357  1.0000
  C   C42       1.0  0.44674457502812703  0.4258859072467374  0.07008941550858344  1.0000
  C   C43       1.0  0.8727171163589063  0.5740864669690424  0.570110092053781  1.0000
  C   C44       1.0  0.5532591598213655  0.5741060890351406  0.929912291721827  1.0000
  C   C45       1.0  0.2602323510547961  0.3473927373378771  0.3553731035181614  1.0000
  C   C46       1.0  0.392273244512225  0.3473301920021896  0.14458198974253386  1.0000
  C   C47       1.0  0.7397587807882644  0.6526127491144467  0.6446287063404696  1.0000
  C   C48       1.0  0.6077268659961776  0.6526667097962147  0.8554192756115739  1.0000
  O   O1        1.0  0.025453724101886597  0.0999695212532146  0.2948142999709162  1.0000
  O   O2        1.0  0.8747659916668484  0.0999032967801341  0.20516864651531108  1.0000
  O   O3        1.0  0.9745468900121143  0.9000310596825827  0.7051849591237556  1.0000
  O   O4        1.0  0.12524226515175488  0.9000960577765298  0.7948263278100356  1.0000
  O   O5        1.0  0.3926817800185347  0.9574538097394907  0.26689901178127684  1.0000
  O   O6        1.0  0.6499558724952836  0.9574685262890625  0.23314664225330262  1.0000
  O   O7        1.0  0.6073206736618105  0.0425430920589065  0.7330979353098572  1.0000
  O   O8        1.0  0.3500423984467815  0.0425320546467276  0.7668528890954462  1.0000
  O   O9        1.0  0.19180733891135304  0.7275629097134697  0.3588818846021625  1.0000
  O   O10       1.0  0.08076411521067686  0.7274979116195226  0.141153171176029  1.0000
  O   O11       1.0  0.8081944467886261  0.2724376712223275  0.6411178163667444  1.0000
  O   O12       1.0  0.9192355464837051  0.2724928582832291  0.8588513925681198  1.0000
  O   O13       1.0  0.9358325172443216  0.7653182176444489  0.3297994541619289  1.0000
  O   O14       1.0  0.29899031372234935  0.7652262392096105  0.17024734818414802  1.0000
  O   O15       1.0  0.06415231833618407  0.23470689087397295  0.6702071493187775  1.0000
  O   O16       1.0  0.7010110231636161  0.234768209830527  0.82975276116845  1.0000
