data_image0
_chemical_formula_structural       Cd4H40C48N8O20
_chemical_formula_sum              "Cd4 H40 C48 N8 O20"
_cell_length_a       7.118476592004886
_cell_length_b       11.029603710019966
_cell_length_c       16.20469579702035
_cell_angle_alpha    89.9998236156186
_cell_angle_beta     90.00004473100167
_cell_angle_gamma    89.99987286796609

_space_group_name_H-M_alt    "P 1"
_space_group_IT_number       1

loop_
  _space_group_symop_operation_xyz
  'x, y, z'

loop_
  _atom_site_type_symbol
  _atom_site_label
  _atom_site_symmetry_multiplicity
  _atom_site_fract_x
  _atom_site_fract_y
  _atom_site_fract_z
  _atom_site_occupancy
  Cd  Cd1       1.0  0.45129365087850454  0.13265092356220984  0.7767254105286696  1.0000
  Cd  Cd2       1.0  0.5487035871181334  0.6326501215132366  0.2232742165646258  1.0000
  Cd  Cd3       1.0  0.04870480009311249  0.6326521707388364  0.276725304034521  1.0000
  Cd  Cd4       1.0  0.9512938426947953  0.13265068763877244  0.7232737059520389  1.0000
  H   H1        1.0  0.6771321367882803  0.8764997175897872  0.005521051884976201  1.0000
  H   H2        1.0  0.32286144981988935  0.3764979067502239  0.9944792973644425  1.0000
  H   H3        1.0  0.8228668732971227  0.37650046687698346  0.505519263076394  1.0000
  H   H4        1.0  0.17713233248774427  0.8764989707607922  0.4944810861720796  1.0000
  H   H5        1.0  0.1902713035804382  0.6712542380972834  0.010793729760457903  1.0000
  H   H6        1.0  0.809724396357872  0.17125357001093278  0.9892070504800614  1.0000
  H   H7        1.0  0.3097293504652896  0.17125591277000038  0.5107931706612591  1.0000
  H   H8        1.0  0.690274778233821  0.6712564285894371  0.4892063753657894  1.0000
  H   H9        1.0  0.0452518450068169  0.8818675734348885  0.7949057040530009  1.0000
  H   H10       1.0  0.9547459374567991  0.3818657040663636  0.2050958681354658  1.0000
  H   H11       1.0  0.45474718278103404  0.38186857790014284  0.2949043181480846  1.0000
  H   H12       1.0  0.5452548140595396  0.8818683262058398  0.7050954027220727  1.0000
  H   H13       1.0  0.5709019057460196  0.31843599725164035  0.9101680371632314  1.0000
  H   H14       1.0  0.42909750048428913  0.8184350613739397  0.0898318169083367  1.0000
  H   H15       1.0  0.9290994296877385  0.8184367019257193  0.4101680609517757  1.0000
  H   H16       1.0  0.07090278613146239  0.31843526334734656  0.5898324102243961  1.0000
  H   H17       1.0  0.8783282782635807  0.44776352782497497  0.7563279787937347  1.0000
  H   H18       1.0  0.12166927671069058  0.9477650560405521  0.24367222080704212  1.0000
  H   H19       1.0  0.6216723369377418  0.9477655775904594  0.2563278972892675  1.0000
  H   H20       1.0  0.3783294324177077  0.44776481957523373  0.743671685205257  1.0000
  H   H21       1.0  0.034560656765407295  0.4942406862265685  0.8365841517003076  1.0000
  H   H22       1.0  0.9654381425582768  0.9942413733013564  0.1634147160947208  1.0000
  H   H23       1.0  0.4654394620603668  0.9942422457238747  0.3365841879343847  1.0000
  H   H24       1.0  0.5345607420535785  0.4942425337557096  0.6634146798580363  1.0000
  H   H25       1.0  0.8519937809910728  0.5940787617066475  0.8029618340034261  1.0000
  H   H26       1.0  0.14800499495332534  0.09407989254768981  0.19703725698014551  1.0000
  H   H27       1.0  0.6480053285810071  0.09408020363293453  0.3029615772511534  1.0000
  H   H28       1.0  0.35199204256475974  0.5940802639255692  0.6970368966251996  1.0000
  H   H29       1.0  0.6356627708198131  0.4659578403690644  0.9914289066217351  1.0000
  H   H30       1.0  0.3643361261429162  0.9659573635925084  0.008570637670338502  1.0000
  H   H31       1.0  0.8643367951636733  0.9659586374039363  0.4914289082297146  1.0000
  H   H32       1.0  0.13566491138684708  0.4659574732079149  0.5085700189568101  1.0000
  H   H33       1.0  0.6926887336642552  0.6038169028064785  0.9402004110247546  1.0000
  H   H34       1.0  0.3073114134595301  0.1038166125265292  0.0597980424064914  1.0000
  H   H35       1.0  0.8073119913168582  0.10381721088443636  0.4402008259399324  1.0000
  H   H36       1.0  0.19268956060344064  0.603815397796687  0.5597976274925074  1.0000
  H   H37       1.0  0.8749090973303878  0.5136339206936283  0.9852374823266317  1.0000
  H   H38       1.0  0.12509136111998487  0.0136331868930952  0.014762394689185504  1.0000
  H   H39       1.0  0.6250920191219437  0.0136344886485631  0.4852372177272741  1.0000
  H   H40       1.0  0.3749098441228397  0.5136326189385443  0.5147620421837049  1.0000
  C   C1        1.0  0.7106117997480509  0.9718330286858434  0.8530814530773156  1.0000
  C   C2        1.0  0.28938848173428516  0.4718296508288091  0.1469199301960415  1.0000
  C   C3        1.0  0.7893917141412031  0.4718297357250307  0.3530793934379304  1.0000
  C   C4        1.0  0.2106085673441811  0.9718302238411312  0.6469201385230648  1.0000
  C   C5        1.0  0.8465596075146138  0.8891072882531359  0.8958457106377153  1.0000
  C   C6        1.0  0.15343674516187628  0.38910520393348946  0.1041558463481635  1.0000
  C   C7        1.0  0.6534414584637886  0.3891069091304116  0.3958436044336366  1.0000
  C   C8        1.0  0.34655910859490285  0.8891064897068761  0.6041567183418624  1.0000
  C   C9        1.0  0.8064135196174077  0.8477575099184019  0.9755707859062639  1.0000
  C   C10       1.0  0.19358297579874767  0.3477584481070721  0.024430240801173408  1.0000
  C   C11       1.0  0.693587830981613  0.3477588868424064  0.4755686934501568  1.0000
  C   C12       1.0  0.30641287881415735  0.8477597911341234  0.524431716150076  1.0000
  C   C13       1.0  0.9279851633081008  0.7684639006313104  0.0165531956831728  1.0000
  C   C14       1.0  0.0720102010428221  0.26846612394138697  0.9834467633200534  1.0000
  C   C15       1.0  0.5720156441583909  0.268465914323933  0.5165519380631665  1.0000
  C   C16       1.0  0.42798533936875327  0.7684668301946471  0.4834492551483152  1.0000
  C   C17       1.0  0.8753293982347755  0.7160674896279389  0.0994545202240218  1.0000
  C   C18       1.0  0.12467176617600018  0.21607001198078996  0.9005461659114007  1.0000
  C   C19       1.0  0.6246745472323952  0.21606942822263867  0.5994532806388762  1.0000
  C   C20       1.0  0.3753252123797494  0.7160698866902634  0.4005467883893274  1.0000
  C   C21       1.0  0.0953079197251157  0.7327121723139524  0.9785964511009412  1.0000
  C   C22       1.0  0.9046889728432885  0.23271301665900515  0.0214035829785146  1.0000
  C   C23       1.0  0.4046933546546611  0.23271506146887325  0.478594430945492  1.0000
  C   C24       1.0  0.5953091570836192  0.7327155674067994  0.5214049860241448  1.0000
  C   C25       1.0  0.13702456731756735  0.7746576192527997  0.898831263646116  1.0000
  C   C26       1.0  0.8629707756614379  0.2746545364984954  0.1011692994616524  1.0000
  C   C27       1.0  0.3629736107223919  0.27465966125376434  0.3988292292033506  1.0000
  C   C28       1.0  0.637030161012177  0.7746597477028062  0.6011694825830247  1.0000
  C   C29       1.0  0.3089785235635389  0.7378375829074884  0.8609453999395384  1.0000
  C   C30       1.0  0.6910323992652819  0.23783548104604083  0.13905400627756143  1.0000
  C   C31       1.0  0.19102954773307348  0.23783805682695908  0.3609463921324051  1.0000
  C   C32       1.0  0.8089757559075537  0.7378395403864031  0.6390523969739021  1.0000
  C   C33       1.0  0.011501754157457399  0.8512580171354427  0.8568272877534611  1.0000
  C   C34       1.0  0.9884933243818208  0.3512572857492414  0.14317311449975284  1.0000
  C   C35       1.0  0.48849889428719706  0.35125988011870385  0.3568252963020342  1.0000
  C   C36       1.0  0.5115060178078394  0.8512599560161931  0.6431738717379575  1.0000
  C   C37       1.0  0.6635087043783017  0.3469447762421679  0.859427792584448  1.0000
  C   C38       1.0  0.3364920082281983  0.8469464633858906  0.1405744700397236  1.0000
  C   C39       1.0  0.8364910375462741  0.8469456129911348  0.35942716755030096  1.0000
  C   C40       1.0  0.16350967505803024  0.3469456266424941  0.6405726266535795  1.0000
  C   C41       1.0  0.8890931848368949  0.4989610592885684  0.8138779118798213  1.0000
  C   C42       1.0  0.11090419339661389  0.9989619559376662  0.1861215631075765  1.0000
  C   C43       1.0  0.6109059512453285  0.9989622177567339  0.31387782668912934  1.0000
  C   C44       1.0  0.3890942365759713  0.49896170411978585  0.6861210311927268  1.0000
  C   C45       1.0  0.7400375188306468  0.5108597394531457  0.9523099696011244  1.0000
  C   C46       1.0  0.25996154439957303  0.010859571352533199  0.0476886790291715  1.0000
  C   C47       1.0  0.7599621438069091  0.010860115058925097  0.4523103682994076  1.0000
  C   C48       1.0  0.2400383242203787  0.5108582890934699  0.547688897437155  1.0000
  N   N1        1.0  0.451476737952312  0.7064547323167146  0.8322000858370799  1.0000
  N   N2        1.0  0.5485188404785788  0.20644998399792053  0.1678037060160804  1.0000
  N   N3        1.0  0.0485215569569988  0.20645722277613737  0.3321985608011673  1.0000
  N   N4        1.0  0.9514824502230254  0.7064565600539011  0.6677996770982447  1.0000
  N   N5        1.0  0.7615168744622877  0.4470897029976584  0.8744338483076248  1.0000
  N   N6        1.0  0.2384820876334572  0.9470906909975266  0.12556573560384274  1.0000
  N   N7        1.0  0.7384853580441016  0.9470897728681537  0.3744338068126396  1.0000
  N   N8        1.0  0.26151641364256756  0.44708971447553125  0.6255651599951906  1.0000
  O   O1        1.0  0.5705189092852693  0.012222860434277994  0.8922044298978379  1.0000
  O   O2        1.0  0.4294773396592716  0.5122182163341761  0.107796684294577  1.0000
  O   O3        1.0  0.9294876656673239  0.5122163113568732  0.3922019854057694  1.0000
  O   O4        1.0  0.07051279767608779  0.012215698903872902  0.6077972774816587  1.0000
  O   O5        1.0  0.7369558071462804  0.9972003690664479  0.7759883453667344  1.0000
  O   O6        1.0  0.2630443867560999  0.49720302740009  0.2240154530520684  1.0000
  O   O7        1.0  0.7630446723801327  0.4972016469302929  0.2759875109095305  1.0000
  O   O8        1.0  0.23695692631547152  0.9972008428927098  0.7240125848800149  1.0000
  O   O9        1.0  0.7057987378943338  0.7306664524874336  0.12189179925229611  1.0000
  O   O10       1.0  0.29420097132454254  0.23066883432412064  0.8781094733319534  1.0000
  O   O11       1.0  0.7942037923098936  0.2306681493048472  0.62189061773028  1.0000
  O   O12       1.0  0.20579732170283901  0.7306671375084902  0.3781094206440585  1.0000
  O   O13       1.0  0.0032693467896933994  0.6597378045647061  0.13811050897405863  1.0000
  O   O14       1.0  0.9967306072840998  0.15974016433103339  0.8618896783421235  1.0000
  O   O15       1.0  0.49673438317081775  0.159741025844589  0.6381087797105353  1.0000
  O   O16       1.0  0.5032655708961684  0.6597405696560938  0.3618907904967656  1.0000
  O   O17       1.0  0.6685351021835187  0.2884469016299107  0.7925435385172082  1.0000
  O   O18       1.0  0.33146159798371855  0.7884455741418532  0.2074557614228922  1.0000
  O   O19       1.0  0.8314661274543127  0.7884468388939964  0.2925435288678244  1.0000
  O   O20       1.0  0.16853478709521139  0.2884474501751484  0.7074563881761693  1.0000
