data_image0
_chemical_formula_structural       ZnH14C24N6
_chemical_formula_sum              "Zn1 H14 C24 N6"
_cell_length_a       7.469546400245247
_cell_length_b       10.578494908786082
_cell_length_c       10.17200632826351
_cell_angle_alpha    97.43502160064291
_cell_angle_beta     90.00440873525831
_cell_angle_gamma    89.99958022773237

_space_group_name_H-M_alt    "P 1"
_space_group_IT_number       1

loop_
  _space_group_symop_operation_xyz
  'x, y, z'

loop_
  _atom_site_type_symbol
  _atom_site_label
  _atom_site_symmetry_multiplicity
  _atom_site_fract_x
  _atom_site_fract_y
  _atom_site_fract_z
  _atom_site_occupancy
  Zn  Zn1       1.0  0.9999872239691994  0.9999995126908844  0.999999946630872  1.0000
  H   H1        1.0  0.21215003216608608  0.615799014471747  0.032763609513366966  1.0000
  H   H2        1.0  0.2121475268172617  0.3842171155237962  0.9672257028425545  1.0000
  H   H3        1.0  0.7878089875689084  0.3842079620036997  0.9672121977447359  1.0000
  H   H4        1.0  0.7878141705081062  0.6157877807558234  0.032751593797229354  1.0000
  H   H5        1.0  3.386096381769997e-05  0.9851496005692512  0.6986050001030718  1.0000
  H   H6        1.0  5.475307501969997e-05  0.818767396709269  0.49807771434956266  1.0000
  H   H7        1.0  0.9999645933189851  0.5339761189073754  0.767904350218984  1.0000
  H   H8        1.0  0.9999574941985114  0.712049449738103  0.9521735870220379  1.0000
  H   H9        1.0  0.9999894213765684  0.014840224756518692  0.3013984055712625  1.0000
  H   H10       1.0  2.6952587859299995e-05  0.18122591627503937  0.5019237920559689  1.0000
  H   H11       1.0  5.139248770499983e-06  0.4660266286405415  0.23210602339960212  1.0000
  H   H12       1.0  0.9999725580195857  0.2879505765215952  0.04784084036230495  1.0000
  H   H13       1.0  4.9090881823599966e-05  0.6010420785737479  0.40346291750182656  1.0000
  H   H14       1.0  4.868089540369997e-05  0.39895421000817777  0.5965481726492781  1.0000
  C   C1        1.0  0.3412460224645031  0.8434078743049868  0.08424096872485622  1.0000
  C   C2        1.0  0.3395069704510476  0.5656150161573307  0.018245933287914767  1.0000
  C   C3        1.0  0.34123455001727615  0.1565881264296394  0.9157533283494883  1.0000
  C   C4        1.0  0.3395075284769717  0.4343927172827831  0.9817480909129727  1.0000
  C   C5        1.0  0.6587464683943053  0.15660591120040834  0.9157551940212298  1.0000
  C   C6        1.0  0.6604600822790727  0.4343915046323731  0.9817347057023936  1.0000
  C   C7        1.0  0.6587445530285618  0.8434126850639315  0.08424671709313705  1.0000
  C   C8        1.0  0.6604608630241771  0.5656107743725086  0.018233815793003337  1.0000
  C   C9        1.0  1.1090600608599971e-05  0.8835156695149066  0.7075036035777271  1.0000
  C   C10       1.0  3.112674033189998e-05  0.7906157354789157  0.5975083746493225  1.0000
  C   C11       1.0  2.680445216189998e-05  0.6605642554999348  0.6144986225846835  1.0000
  C   C12       1.0  3.285607197509996e-05  0.5637595074672602  0.49879549872812823  1.0000
  C   C13       1.0  5.761042821499962e-06  0.6319425352772609  0.7457854699527358  1.0000
  C   C14       1.0  0.9999872205670354  0.7305037867281214  0.8494576914624259  1.0000
  C   C15       1.0  0.9999800615760817  0.1164768211676233  0.2925023994046611  1.0000
  C   C16       1.0  0.9999997059875267  0.2093802432504005  0.4024957288819379  1.0000
  C   C17       1.0  2.812660331839998e-05  0.3394331651434682  0.3855107561410519  1.0000
  C   C18       1.0  3.1446320846799985e-05  0.43623393490903334  0.5012149261384166  1.0000
  C   C19       1.0  3.578259448739999e-05  0.36805859040484273  0.2542257615855589  1.0000
  C   C20       1.0  0.9999990598393038  0.2694953805043951  0.15055554848508015  1.0000
  C   C21       1.0  0.4999925541434535  0.774754950272218  0.07080522033700018  1.0000
  C   C22       1.0  0.49998910866155905  0.6354075119791387  0.03672760032466722  1.0000
  C   C23       1.0  0.4999892262363588  0.2252511526206789  0.9291901354117583  1.0000
  C   C24       1.0  0.49998463872476134  0.364596017492829  0.9632641913945289  1.0000
  N   N1        1.0  0.20337698150886743  0.8980307521484363  0.09588238292475638  1.0000
  N   N2        1.0  0.2033679741970431  0.10198527067326067  0.9041323265917283  1.0000
  N   N3        1.0  0.7966208651769477  0.10199726774070678  0.9041171046683374  1.0000
  N   N4        1.0  0.7966271941378906  0.8980043730271349  0.0958730114707507  1.0000
  N   N5        1.0  0.999985929659388  0.8541564902278294  0.8319387442521843  1.0000
  N   N6        1.0  0.9999722360612253  0.1458402862074806  0.16806899880877774  1.0000
