data_image0
_chemical_formula_structural       Cd4H36C20Br8N4O8
_chemical_formula_sum              "Cd4 H36 C20 Br8 N4 O8"
_cell_length_a       7.413004580201592
_cell_length_b       10.139762420087091
_cell_length_c       12.886691818332908
_cell_angle_alpha    89.99968599264778
_cell_angle_beta     89.9992313991843
_cell_angle_gamma    90.00034585177286

_space_group_name_H-M_alt    "P 1"
_space_group_IT_number       1

loop_
  _space_group_symop_operation_xyz
  'x, y, z'

loop_
  _atom_site_type_symbol
  _atom_site_label
  _atom_site_symmetry_multiplicity
  _atom_site_fract_x
  _atom_site_fract_y
  _atom_site_fract_z
  _atom_site_occupancy
  Cd  Cd1       1.0  0.30921904132256367  0.24274252926971224  0.9976748035621839  1.0000
  Cd  Cd2       1.0  0.8092195050340293  0.2572641647417555  0.0023266050770161  1.0000
  Cd  Cd3       1.0  0.6907860754772627  0.7427380454551553  0.5023216783229856  1.0000
  Cd  Cd4       1.0  0.19079189567202087  0.7572600123646537  0.49767461105362554  1.0000
  H   H1        1.0  0.7822002457461252  0.997562806136777  0.2029918163712239  1.0000
  H   H2        1.0  0.28219968173439003  0.5024356436251692  0.7970091933226656  1.0000
  H   H3        1.0  0.21780914841381355  0.4975702647673259  0.2970068090387912  1.0000
  H   H4        1.0  0.7178101395346559  0.0024291337902795  0.7029906552818872  1.0000
  H   H5        1.0  0.8233169826853481  0.8812245472799065  0.2938003182181319  1.0000
  H   H6        1.0  0.32331006249788885  0.6187750649919151  0.7061995954063179  1.0000
  H   H7        1.0  0.17668332976550255  0.38122950191567645  0.2061995861106212  1.0000
  H   H8        1.0  0.6766886057388672  0.11876774786419017  0.7938013023434324  1.0000
  H   H9        1.0  0.11662015120588617  0.9343416937541277  0.2765254401317847  1.0000
  H   H10       1.0  0.6166144608963435  0.5656570322414254  0.7234714266762623  1.0000
  H   H11       1.0  0.8833846592640667  0.43435251725409074  0.22347035459092277  1.0000
  H   H12       1.0  0.3833891521346757  0.06563772908567958  0.7765351326485259  1.0000
  H   H13       1.0  0.22119930588812045  0.8858612066236802  0.0748379991400867  1.0000
  H   H14       1.0  0.7211947615325015  0.6141340229443343  0.9251549495359868  1.0000
  H   H15       1.0  0.7787969990138564  0.3858613043126696  0.4251580052006076  1.0000
  H   H16       1.0  0.2787998202948571  0.11413342462536487  0.5748537282199849  1.0000
  H   H17       1.0  0.16631986525203496  0.7548813877371429  0.1614821446416386  1.0000
  H   H18       1.0  0.6663224825339711  0.7451155789480596  0.8385151112156848  1.0000
  H   H19       1.0  0.8336915153665032  0.2548921849902328  0.3385120978074312  1.0000
  H   H20       1.0  0.3336840031570745  0.24510771038438153  0.6615007602723963  1.0000
  H   H21       1.0  0.9547884136028911  0.7141183197356752  0.0185720446845679  1.0000
  H   H22       1.0  0.45479004074267937  0.7858818563041298  0.981422965417309  1.0000
  H   H23       1.0  0.045203735147879294  0.21412277065329727  0.48142237405547655  1.0000
  H   H24       1.0  0.5452006034367045  0.28588279126338995  0.5185857459480232  1.0000
  H   H25       1.0  0.9165228135846774  0.8863994557912348  0.0009466616845728003  1.0000
  H   H26       1.0  0.4165225704817884  0.6136025285767773  0.9990548542764233  1.0000
  H   H27       1.0  0.08346809987158109  0.3864029620602096  0.4990586522752736  1.0000
  H   H28       1.0  0.5834679600377298  0.11360276396357699  0.5009414098813991  1.0000
  H   H29       1.0  0.78730786928768  0.7104683951773011  0.1811419681687738  1.0000
  H   H30       1.0  0.2873078889199546  0.7895310627005755  0.8188597777517332  1.0000
  H   H31       1.0  0.21268559742377138  0.2104786386970899  0.3188571222968619  1.0000
  H   H32       1.0  0.7126935781213319  0.28952468276105486  0.6811434858528002  1.0000
  H   H33       1.0  0.6600450042441324  0.8297216547054804  0.1105732799029653  1.0000
  H   H34       1.0  0.1600410312314082  0.6702733126025676  0.8894310087837881  1.0000
  H   H35       1.0  0.3399562198642768  0.329731953566089  0.38943072700877224  1.0000
  H   H36       1.0  0.8399580743380355  0.1702679687530306  0.6105642343933013  1.0000
  C   C1        1.0  0.05528644885325209  0.08506860594768992  0.1631702602256127  1.0000
  C   C2        1.0  0.5552891980609331  0.4149399579022131  0.8368269173328641  1.0000
  C   C3        1.0  0.9446978590422999  0.5850707762930939  0.33684256425000575  1.0000
  C   C4        1.0  0.44472412582457804  0.9149244254340874  0.6631571802886215  1.0000
  C   C5        1.0  0.0453462996844536  0.941983004023804  0.20214897089334022  1.0000
  C   C6        1.0  0.5453509662874721  0.5580124577485677  0.7978430187940618  1.0000
  C   C7        1.0  0.9546531796913199  0.44200051981224664  0.2978537747544578  1.0000
  C   C8        1.0  0.45465797790527057  0.057992004555877885  0.7021503816529915  1.0000
  C   C9        1.0  0.1129846994409505  0.8423282341192577  0.12156656604042841  1.0000
  C   C10       1.0  0.6129829537212074  0.6576714625154025  0.878429553058119  1.0000
  C   C11       1.0  0.8870112359295133  0.3423409551202353  0.3784257464782712  1.0000
  C   C12       1.0  0.38701199769807454  0.15765719649044735  0.6215804885197543  1.0000
  C   C13       1.0  0.9434555661830827  0.8090513467871434  0.05869699930491381  1.0000
  C   C14       1.0  0.44345866364132286  0.6909497668700268  0.9413004269994403  1.0000
  C   C15       1.0  0.05653334163036308  0.30905809751466506  0.4413024410458065  1.0000
  C   C16       1.0  0.5565352215016899  0.19094849922285556  0.5587017107622573  1.0000
  C   C17       1.0  0.794177754463952  0.8046808194356528  0.1399915335885851  1.0000
  C   C18       1.0  0.29417467408826065  0.6953157092545296  0.8600070548902822  1.0000
  C   C19       1.0  0.20582190804118028  0.30468976134444853  0.36001258157364907  1.0000
  C   C20       1.0  0.7058219461149021  0.195310572005873  0.6399911840251848  1.0000
  Br  Br1       1.0  0.06608278168545918  0.4510145632517747  0.0260372583000077  1.0000
  Br  Br2       1.0  0.5661183744784991  0.0489930607106785  0.9739699230087808  1.0000
  Br  Br3       1.0  0.9338938414891798  0.9510068584758218  0.47397476038361935  1.0000
  Br  Br4       1.0  0.43391207684505406  0.548988296899516  0.5260273962796163  1.0000
  Br  Br5       1.0  0.551466258824675  0.3854279440505408  0.1193829746329129  1.0000
  Br  Br6       1.0  0.051511928889851795  0.11458356216269291  0.8806134564982955  1.0000
  Br  Br7       1.0  0.4485030628406932  0.8854158480470814  0.3806037197798346  1.0000
  Br  Br8       1.0  0.9485339181158705  0.6145843011179153  0.6193874591685855  1.0000
  N   N1        1.0  0.8485155867235006  0.9087097298714683  0.21790170565385134  1.0000
  N   N2        1.0  0.3485120748834305  0.5912909766866008  0.7820941318099415  1.0000
  N   N3        1.0  0.1514863081011697  0.40872193881070734  0.2820988558399904  1.0000
  N   N4        1.0  0.6514877089803406  0.09127717534597929  0.7179037807747832  1.0000
  O   O1        1.0  0.21121956847827045  0.12947438207373102  0.1452821115865035  1.0000
  O   O2        1.0  0.7111958964856412  0.3705190708744439  0.854716180137821  1.0000
  O   O3        1.0  0.7887853514674744  0.6294836493593152  0.3547072410147862  1.0000
  O   O4        1.0  0.28878602356934385  0.8705187735448943  0.6452828534792374  1.0000
  O   O5        1.0  0.9056235348747846  0.14589239929747316  0.1538432467165833  1.0000
  O   O6        1.0  0.4055776064814863  0.35411174932185924  0.8461620675575361  1.0000
  O   O7        1.0  0.09439906109547279  0.6459056520647053  0.3461584507483337  1.0000
  O   O8        1.0  0.5944095701614813  0.8541038270722934  0.6538362609834678  1.0000
