data_image0
_chemical_formula_structural       Cd2H30C40N10O18
_chemical_formula_sum              "Cd2 H30 C40 N10 O18"
_cell_length_a       7.900901161818849
_cell_length_b       8.640748911843808
_cell_length_c       15.809371986465612
_cell_angle_alpha    94.96804687907195
_cell_angle_beta     99.71048209484933
_cell_angle_gamma    100.14787988032548

_space_group_name_H-M_alt    "P 1"
_space_group_IT_number       1

loop_
  _space_group_symop_operation_xyz
  'x, y, z'

loop_
  _atom_site_type_symbol
  _atom_site_label
  _atom_site_symmetry_multiplicity
  _atom_site_fract_x
  _atom_site_fract_y
  _atom_site_fract_z
  _atom_site_occupancy
  Cd  Cd1       1.0  0.8819981055906185  0.04590741640887331  0.34659032252481126  1.0000
  Cd  Cd2       1.0  0.11800238586759798  0.9540955830710302  0.6534069401689777  1.0000
  H   H1        1.0  0.13344015486537594  0.3533654740703156  0.19156726230308854  1.0000
  H   H2        1.0  0.8665654954856948  0.6466336192363047  0.8084377427207271  1.0000
  H   H3        1.0  0.4903261916018665  0.745939027915142  0.15960386873170046  1.0000
  H   H4        1.0  0.5096797763273457  0.25406136954218544  0.8404006638676761  1.0000
  H   H5        1.0  0.3224399000732206  0.16387702317761213  0.25052434666136486  1.0000
  H   H6        1.0  0.6775541603421334  0.8360984255244833  0.7494777521277314  1.0000
  H   H7        1.0  0.7512194607189644  0.856156061558238  0.4645945337472239  1.0000
  H   H8        1.0  0.24877649271780206  0.14385078502004228  0.5354071332200832  1.0000
  H   H9        1.0  0.6103649965166372  0.9509387706179737  0.41618904132198503  1.0000
  H   H10       1.0  0.38963165693012775  0.04906491774515593  0.5838104626438464  1.0000
  H   H11       1.0  0.8144653549381433  0.9849430500704911  0.03378884330220439  1.0000
  H   H12       1.0  0.1855389922695353  0.015060601563412553  0.9662114079844526  1.0000
  H   H13       1.0  0.18333739097325727  0.5032476868692227  0.488092470160474  1.0000
  H   H14       1.0  0.8166639297357536  0.49675897160996374  0.5119046102027481  1.0000
  H   H15       1.0  0.2958816421161643  0.9319019596602018  0.33798249647218626  1.0000
  H   H16       1.0  0.7041145733806717  0.06809427785639603  0.6620181141796238  1.0000
  H   H17       1.0  0.8089414206621444  0.6334900141137821  0.3299807594338303  1.0000
  H   H18       1.0  0.19105280677406009  0.36650282397791056  0.670018674052322  1.0000
  H   H19       1.0  0.37348619783249876  0.5168460089962535  0.32993696091543967  1.0000
  H   H20       1.0  0.6265274607457628  0.4831602449748332  0.670068919685981  1.0000
  H   H21       1.0  0.4736663005043199  0.709909165800461  0.3111360915322762  1.0000
  H   H22       1.0  0.5263311413013058  0.2900935026297873  0.6888684767580527  1.0000
  H   H23       1.0  0.4274359742249915  0.700928903206979  0.966233148639759  1.0000
  H   H24       1.0  0.5725641467822559  0.2990733359144143  0.03376781888230341  1.0000
  H   H25       1.0  0.24892986893654276  0.5158905949321095  0.8404246334437531  1.0000
  H   H26       1.0  0.7510846811009486  0.48410109451710787  0.15957603037961823  1.0000
  H   H27       1.0  0.048990498327938864  0.27242669157111277  0.8623152863165371  1.0000
  H   H28       1.0  0.9510308016050291  0.727561719215373  0.13769015703343968  1.0000
  H   H29       1.0  0.007172940191068693  0.21383565901714968  0.008723905242483496  1.0000
  H   H30       1.0  0.9928414183971985  0.7861674367387865  0.9912798123574615  1.0000
  C   C1        1.0  0.6803473238146011  0.005469044651732707  0.17611337453971027  1.0000
  C   C2        1.0  0.3196486944758661  0.9945320354099819  0.8238870742750064  1.0000
  C   C3        1.0  0.6767273994774144  0.9930556694789342  0.01890767129955146  1.0000
  C   C4        1.0  0.32326861616778774  0.006932953578193237  0.9810889612202798  1.0000
  C   C5        1.0  0.5857731949409059  0.01181394241834251  0.0863155331214855  1.0000
  C   C6        1.0  0.4142275794272764  0.9881738957941266  0.9136853024405054  1.0000
  C   C7        1.0  0.4069752827385998  0.020067618672619903  0.06742646373345448  1.0000
  C   C8        1.0  0.5930191330349643  0.9799197063553394  0.9325705166573427  1.0000
  C   C9        1.0  0.3007602818707938  0.049829376504305904  0.1352300552399441  1.0000
  C   C10       1.0  0.6992300249622477  0.9501685759499452  0.8647676078059376  1.0000
  C   C11       1.0  0.23507647858207295  0.2484900284809015  0.3973542751249325  1.0000
  C   C12       1.0  0.7649239422653056  0.7515121737539585  0.6026409901077796  1.0000
  C   C13       1.0  0.32227750077520767  0.501071025387219  0.493839433496447  1.0000
  C   C14       1.0  0.6777201613906957  0.4989301383928507  0.5061548201110071  1.0000
  C   C15       1.0  0.37613731562564123  0.37478716528714534  0.45125904639220227  1.0000
  C   C16       1.0  0.623865213654142  0.6252245830684515  0.5487367617446351  1.0000
  C   C17       1.0  0.5550990184141326  0.3720319918949002  0.4580708559948404  1.0000
  C   C18       1.0  0.4448976053137273  0.6279755781553648  0.5419214038548432  1.0000
  C   C19       1.0  0.6148764065786027  0.22893116718342543  0.42085549584933085  1.0000
  C   C20       1.0  0.38511932304475494  0.7710785103841146  0.579138164483517  1.0000
  C   C21       1.0  0.18908883328290224  0.8299765880999458  0.3297490313353393  1.0000
  C   C22       1.0  0.8109090526964094  0.1700217446908567  0.6702532289065815  1.0000
  C   C23       1.0  0.9447831938757363  0.6742618767501583  0.32592536752441953  1.0000
  C   C24       1.0  0.055212633432105925  0.325732259370703  0.674073718090767  1.0000
  C   C25       1.0  0.35596300767304717  0.6161437944402764  0.2928547883350774  1.0000
  C   C26       1.0  0.6440360371160879  0.3838542787761554  0.7071488314030743  1.0000
  C   C27       1.0  0.3198377113997709  0.5608546786131682  0.1985532011914941  1.0000
  C   C28       1.0  0.6801652388997823  0.4391493962080589  0.8014507754169029  1.0000
  C   C29       1.0  0.314077752395427  0.5613740757518784  0.05788211357964459  1.0000
  C   C30       1.0  0.6859248594760814  0.43863324712438617  0.9421177062695064  1.0000
  C   C31       1.0  0.3367810678523712  0.596276165413329  0.975469691831023  1.0000
  C   C32       1.0  0.6632207267492234  0.403722275739284  0.0245323245999245  1.0000
  C   C33       1.0  0.23757091867415886  0.49108922672207467  0.9058758981955606  1.0000
  C   C34       1.0  0.7624458223874698  0.5089075833685399  0.09412932024424948  1.0000
  C   C35       1.0  0.12190622418362557  0.35425824776937287  0.9181491999267661  1.0000
  C   C36       1.0  0.8781058110278437  0.6457388033737032  0.08184858306704965  1.0000
  C   C37       1.0  0.0978852147677927  0.3190307556211706  0.0001719649465456846  1.0000
  C   C38       1.0  0.90212179159947  0.6809632355659617  0.9998345614106083  1.0000
  C   C39       1.0  0.19533100056510483  0.4256241330507321  0.07001379139876457  1.0000
  C   C40       1.0  0.8046695823538459  0.5743751114684486  0.9299900979397931  1.0000
  N   N1        1.0  0.02327822640396702  0.8307522252654848  0.33685897802009623  1.0000
  N   N2        1.0  0.9767154156368891  0.16924335397557405  0.6631387685923185  1.0000
  N   N3        1.0  0.05176176891422562  0.5768005754298429  0.311652525536033  1.0000
  N   N4        1.0  0.9482354112979438  0.4231943518145087  0.6883486820936894  1.0000
  N   N5        1.0  0.20674518997135047  0.6781105110772215  0.31490745097129746  1.0000
  N   N6        1.0  0.7932544313441312  0.32188415047122027  0.6850952407081294  1.0000
  N   N7        1.0  0.3882448271021914  0.6405412803086673  0.13948221810419878  1.0000
  N   N8        1.0  0.6117552499012506  0.35946217312353923  0.8605245967541534  1.0000
  N   N9        1.0  0.203904527480411  0.4305988783671495  0.1588858151550809  1.0000
  N   N10       1.0  0.7960929054562131  0.5694031195444823  0.8411161382027998  1.0000
  O   O1        1.0  0.8042568889643323  0.11759596681022091  0.211278433885461  1.0000
  O   O2        1.0  0.19571266571988843  0.8824147042061624  0.7887261374177398  1.0000
  O   O3        1.0  0.63313380960129  0.8801513175679502  0.2103788700361803  1.0000
  O   O4        1.0  0.36687753758106123  0.11984366906591504  0.7896230902103482  1.0000
  O   O5        1.0  0.3971800393390482  0.13612596164342247  0.20680887578158294  1.0000
  O   O6        1.0  0.6028146651016187  0.8638527658787043  0.7931948930910834  1.0000
  O   O7        1.0  0.14102269871374776  0.00360219520236171  0.12310473366633798  1.0000
  O   O8        1.0  0.8589723775486818  0.9964218832741024  0.8768890586265882  1.0000
  O   O9        1.0  0.13213347729759312  0.1700627018144445  0.4395730291479366  1.0000
  O   O10       1.0  0.8678655377726375  0.8299392530891225  0.5604233464740602  1.0000
  O   O11       1.0  0.21326557860814432  0.23414447008404696  0.3154593306895207  1.0000
  O   O12       1.0  0.7867377306280972  0.76584723757248  0.684534509863262  1.0000
  O   O13       1.0  0.5069719186299296  0.0978187997107653  0.4111236578619711  1.0000
  O   O14       1.0  0.4930179552024471  0.9021920490022309  0.5888638224611071  1.0000
  O   O15       1.0  0.7696298371325914  0.25014674224137684  0.40539363415273744  1.0000
  O   O16       1.0  0.23037437772242708  0.7498559854210781  0.594605237144222  1.0000
  O   O17       1.0  0.6886001570848492  0.8728312097954429  0.40677869008501927  1.0000
  O   O18       1.0  0.3113980931216815  0.12717966983984044  0.5932210666910578  1.0000
