data_image0
_chemical_formula_structural       Zn2H28C34N2O8
_chemical_formula_sum              "Zn2 H28 C34 N2 O8"
_cell_length_a       9.613232555091516
_cell_length_b       15.383463992116761
_cell_length_c       15.386583110211731
_cell_angle_alpha    89.98921197191171
_cell_angle_beta     90.01066439352466
_cell_angle_gamma    89.99709792178008

_space_group_name_H-M_alt    "P 1"
_space_group_IT_number       1

loop_
  _space_group_symop_operation_xyz
  'x, y, z'

loop_
  _atom_site_type_symbol
  _atom_site_label
  _atom_site_symmetry_multiplicity
  _atom_site_fract_x
  _atom_site_fract_y
  _atom_site_fract_z
  _atom_site_occupancy
  Zn  Zn1       1.0  0.647481842909656  0.0060690928913090005  0.9932194244239556  1.0000
  Zn  Zn2       1.0  0.35294824362642885  0.006060103742285603  0.9932366681585949  1.0000
  H   H1        1.0  0.7176399534942137  0.9748759713075047  0.7151635255075136  1.0000
  H   H2        1.0  0.7179667305991091  0.9717306104586783  0.5539318111955753  1.0000
  H   H3        1.0  0.7169078156769756  0.03885682137450891  0.271236829903046  1.0000
  H   H4        1.0  0.717162525462996  0.042213435461647505  0.4325043037200873  1.0000
  H   H5        1.0  0.7175176489591594  0.2841284659436027  0.024320753287497606  1.0000
  H   H6        1.0  0.7177654286763727  0.4453772651997029  0.027672158313961907  1.0000
  H   H7        1.0  0.7174056669844262  0.7282021874954838  0.9618496854700003  1.0000
  H   H8        1.0  0.7177664135197191  0.5668851315692934  0.9584125333825714  1.0000
  H   H9        1.0  0.2831206900429067  0.03663774092137119  0.7150269417035987  1.0000
  H   H10       1.0  0.28297494060056044  0.0400247240204976  0.5538212314738972  1.0000
  H   H11       1.0  0.2839843795569622  0.972817816985426  0.2713549978854176  1.0000
  H   H12       1.0  0.283981373269441  0.9695075415558209  0.4325652416242108  1.0000
  H   H13       1.0  0.2832253655071284  0.7280444518319201  0.024479771544399412  1.0000
  H   H14       1.0  0.2832542709193576  0.5667689971080563  0.02802270344926681  1.0000
  H   H15       1.0  0.2830880318892497  0.28423294214702116  0.9623022049749752  1.0000
  H   H16       1.0  0.28299879277521  0.4454680959723377  0.9587469249191616  1.0000
  H   H17       1.0  0.8766608371193602  0.8765398931570376  0.032205868253193215  1.0000
  H   H18       1.0  0.8771473979867964  0.8928395901599162  0.9187325811835481  1.0000
  H   H19       1.0  0.8762828459549398  0.10647487363898732  0.08573594806792782  1.0000
  H   H20       1.0  0.8771798188471821  2.1440686175800006e-05  0.12876596930203024  1.0000
  H   H21       1.0  0.8761300298047701  0.037996019919248204  0.8603711653442832  1.0000
  H   H22       1.0  0.8766091584651294  0.12832659188923404  0.9313362131647411  1.0000
  H   H23       1.0  0.12411088699726493  0.12799274521655954  0.9306508257647014  1.0000
  H   H24       1.0  0.12342381946964313  0.0371212815939046  0.8602642427382678  1.0000
  H   H25       1.0  0.12395447212878001  0.8922475514036637  0.9194678958150322  1.0000
  H   H26       1.0  0.12310900703840132  0.8769320235968365  0.033048955481263007  1.0000
  H   H27       1.0  0.12390351731995963  0.0009070255349215001  0.1288460237552869  1.0000
  H   H28       1.0  0.12360563660813281  0.10703028480024562  0.08517330079825314  1.0000
  C   C1        1.0  0.5003281026692434  0.0055596543767109  0.8225336061328009  1.0000
  C   C2        1.0  0.500368800804097  0.005730676430687301  0.725241685407639  1.0000
  C   C3        1.0  0.5004944170055836  0.005909864798965701  0.5412034131633733  1.0000
  C   C4        1.0  0.5003198926335986  0.005570315895454301  0.16388769114129792  1.0000
  C   C5        1.0  0.5004965907049268  0.0057184639836549  0.2611828441036864  1.0000
  C   C6        1.0  0.5005727647029943  0.005853897377541301  0.4452061504292147  1.0000
  C   C7        1.0  0.500263278195739  0.1767195839638731  0.9933481423760216  1.0000
  C   C8        1.0  0.500292613804355  0.274046173018192  0.9932941381506314  1.0000
  C   C9        1.0  0.5004193304654551  0.4581360579969029  0.9932014262032642  1.0000
  C   C10       1.0  0.5001762367791472  0.835480849279236  0.9932549299029534  1.0000
  C   C11       1.0  0.5002925042734958  0.7381757276988736  0.9931159152983969  1.0000
  C   C12       1.0  0.5004976143367372  0.5541436950994408  0.9931735456692794  1.0000
  C   C13       1.0  0.9198654127994532  0.9170968400416869  0.9802240284566541  1.0000
  C   C14       1.0  0.919789861285466  0.041113262232187316  0.07703250609468171  1.0000
  C   C15       1.0  0.9195760948660949  0.06303011800272171  0.9213147020832866  1.0000
  C   C16       1.0  0.08060958086897332  0.062763898744393  0.9211246939986995  1.0000
  C   C17       1.0  0.08054528377714831  0.9170600469315036  0.9805292147844544  1.0000
  C   C18       1.0  0.08069226211827642  0.04146588549875931  0.07690482412063204  1.0000
  C   C19       1.0  0.6227845505081505  0.988672968195729  0.6789179712628766  1.0000
  C   C20       1.0  0.6225090401591659  0.9879573271046385  0.5885490301382321  1.0000
  C   C21       1.0  0.62245545108847  0.0241462494265718  0.3075234066728286  1.0000
  C   C22       1.0  0.6221317819409081  0.024997110067900504  0.3978929499896609  1.0000
  C   C23       1.0  0.6226625855557942  0.32038447947641663  0.010532262539619804  1.0000
  C   C24       1.0  0.6223480080117981  0.41076847652497867  0.011304936110946103  1.0000
  C   C25       1.0  0.6226481450347239  0.6918711636859528  0.9757089981792506  1.0000
  C   C26       1.0  0.622398909768272  0.6014839296078592  0.9748907978006545  1.0000
  C   C27       1.0  0.37805168748288764  0.022961970724928404  0.6788464017734132  1.0000
  C   C28       1.0  0.37843562034380085  0.02381618718953151  0.5884721520536689  1.0000
  C   C29       1.0  0.37857336465075525  0.9874442059628878  0.3075549664679969  1.0000
  C   C30       1.0  0.3789976875931487  0.986680334377802  0.397919506137555  1.0000
  C   C31       1.0  0.378039912617794  0.6917968976227231  0.010566851957818802  1.0000
  C   C32       1.0  0.3785440594307802  0.601413390842879  0.011459276458722904  1.0000
  C   C33       1.0  0.3779890382626974  0.3204528094302219  0.9760156347392199  1.0000
  C   C34       1.0  0.37839925768705757  0.410840200917896  0.9751349617814926  1.0000
  N   N1        1.0  0.8663352996797259  0.006982877929843301  0.9928837654450722  1.0000
  N   N2        1.0  0.1340446771421924  0.0070068242358801  0.9928767380137135  1.0000
  O   O1        1.0  0.6181765407895555  0.8732104672879047  0.9925927554006508  1.0000
  O   O2        1.0  0.382139605754496  0.8731594655718952  0.9940256890613672  1.0000
  O   O3        1.0  0.3822645645227071  0.0045545064635633  0.12620780969248815  1.0000
  O   O4        1.0  0.3822672374992423  0.006410185064638103  0.8602627543330998  1.0000
  O   O5        1.0  0.3821587644472403  0.13897968548113943  0.9927501229294013  1.0000
  O   O6        1.0  0.6182808128839669  0.006621182605634601  0.12612131285656866  1.0000
  O   O7        1.0  0.6184168019542328  0.004681217082293201  0.8602604618577774  1.0000
  O   O8        1.0  0.6183906195159994  0.1389829800321607  0.9939779648504303  1.0000
