data_image0
_chemical_formula_structural       Ag2P2H42C44S2N2O6
_chemical_formula_sum              "Ag2 P2 H42 C44 S2 N2 O6"
_cell_length_a       8.98260621627953
_cell_length_b       11.170492163563223
_cell_length_c       11.17051551009271
_cell_angle_alpha    102.76524922536734
_cell_angle_beta     94.88910717865055
_cell_angle_gamma    94.88912383607386

_space_group_name_H-M_alt    "P 1"
_space_group_IT_number       1

loop_
  _space_group_symop_operation_xyz
  'x, y, z'

loop_
  _atom_site_type_symbol
  _atom_site_label
  _atom_site_symmetry_multiplicity
  _atom_site_fract_x
  _atom_site_fract_y
  _atom_site_fract_z
  _atom_site_occupancy
  Ag  Ag1       1.0  0.493827734454179  0.9006605590351882  0.10146032214432672  1.0000
  Ag  Ag2       1.0  0.9938316571512688  0.1014631779182764  0.9006560328211819  1.0000
  P   P1        1.0  0.45516979841509203  0.9587709494262594  0.3135153133959675  1.0000
  P   P2        1.0  0.955172840238433  0.3135178389626958  0.958770823480819  1.0000
  H   H1        1.0  0.6095416831042045  0.5667739341575312  0.14664845491952858  1.0000
  H   H2        1.0  0.10953617827453144  0.14665072378668498  0.5667768349834219  1.0000
  H   H3        1.0  0.4168821745127431  0.5593519853454438  0.086700540191444  1.0000
  H   H4        1.0  0.9168795567249861  0.08670023746054059  0.5593547239574974  1.0000
  H   H5        1.0  0.46179466859315  0.5058178449323805  0.2234529395475278  1.0000
  H   H6        1.0  0.9617912071822091  0.22345265227564684  0.5058173634738523  1.0000
  H   H7        1.0  0.668925231589441  0.5778718057867563  0.3593145884886653  1.0000
  H   H8        1.0  0.16892472782626564  0.35931623489031483  0.5778730402987406  1.0000
  H   H9        1.0  0.9586864193268527  0.7767399544380851  0.710177574283712  1.0000
  H   H10       1.0  0.45868524743224987  0.7101765688768041  0.7767407458759834  1.0000
  H   H11       1.0  0.9496770820396989  0.6160066914148246  0.7116332497631532  1.0000
  H   H12       1.0  0.44967819899456896  0.7116347527421995  0.6160072373668299  1.0000
  H   H13       1.0  0.7957962897798582  0.7021189828345841  0.7573169135316961  1.0000
  H   H14       1.0  0.29579404782397495  0.7573139762559649  0.7021179290277928  1.0000
  H   H15       1.0  0.7527287392512534  0.8767880683688103  0.6833758302172015  1.0000
  H   H16       1.0  0.2527366556311748  0.6833749770743864  0.8767862823006851  1.0000
  H   H17       1.0  0.5896928330999318  0.007060890175644399  0.7759955320255472  1.0000
  H   H18       1.0  0.08969448880402811  0.7759939719551951  0.007059736803007903  1.0000
  H   H19       1.0  0.5783733594624607  0.1566701421375001  0.7441371961275962  1.0000
  H   H20       1.0  0.07837635390369259  0.7441366328335162  0.15667045091154108  1.0000
  H   H21       1.0  0.750089554792659  0.08671282012975469  0.7298733044915194  1.0000
  H   H22       1.0  0.25009522274518053  0.7298770990454244  0.0867138830829148  1.0000
  H   H23       1.0  0.20792922694517563  0.05559819380175671  0.19842816189123622  1.0000
  H   H24       1.0  0.7079338255917591  0.19842789205485187  0.055597956911427104  1.0000
  H   H25       1.0  0.9331316040923882  0.030957685169063595  0.2070878034024872  1.0000
  H   H26       1.0  0.4331347033865782  0.20708235816831427  0.030957144822842488  1.0000
  H   H27       1.0  0.8237312940230697  0.9050824358477952  0.3440708844367606  1.0000
  H   H28       1.0  0.32372647401018645  0.34406244761741783  0.9050787913607222  1.0000
  H   H29       1.0  0.9937576497026088  0.8123172051615982  0.47769308358964224  1.0000
  H   H30       1.0  0.4937563425027848  0.47769138462769684  0.8123189000146667  1.0000
  H   H31       1.0  0.2697619400155987  0.8386788671760785  0.470168451571368  1.0000
  H   H32       1.0  0.7697570003918062  0.4701686663002106  0.8386792390581093  1.0000
  H   H33       1.0  0.702964066085272  0.10517100795154023  0.2557072677771046  1.0000
  H   H34       1.0  0.20296494559536882  0.2557069744627399  0.1051732896439148  1.0000
  H   H35       1.0  0.8173012600870779  0.3220402445445103  0.3391362878954852  1.0000
  H   H36       1.0  0.31729957594920694  0.33913579698566554  0.3220421807858145  1.0000
  H   H37       1.0  0.7051494355749315  0.458372215731707  0.5074541226007413  1.0000
  H   H38       1.0  0.20514694417961724  0.5074541137468032  0.4583731947415188  1.0000
  H   H39       1.0  0.4735543800702118  0.3807648969212282  0.5862908286898829  1.0000
  H   H40       1.0  0.9735519795862617  0.5862914600802539  0.3807646975693188  1.0000
  H   H41       1.0  0.3629116092440796  0.1631535776353061  0.5061444262391603  1.0000
  H   H42       1.0  0.8629117993482751  0.5061448318611212  0.163152258608406  1.0000
  C   C1        1.0  0.7957820093597975  0.8656434792266195  0.9693928439201968  1.0000
  C   C2        1.0  0.29578326351006734  0.9693958501166692  0.8656381645533388  1.0000
  C   C3        1.0  0.5420957529540119  0.8656857500642801  0.4077661246641853  1.0000
  C   C4        1.0  0.042097104436365405  0.40776888750166757  0.8656852166166261  1.0000
  C   C5        1.0  0.5597326928379689  0.7419623819854377  0.34962136745491523  1.0000
  C   C6        1.0  0.05973079878546632  0.3496257048439375  0.7419618348972961  1.0000
  C   C7        1.0  0.4940883012672614  0.5746102517949012  0.1710404948284534  1.0000
  C   C8        1.0  0.9940842415053341  0.17104191478380668  0.5746103341382423  1.0000
  C   C9        1.0  0.6532989072393394  0.6717666912559608  0.4047159034385146  1.0000
  C   C10       1.0  0.153300836549036  0.4047147105043222  0.6717660664871303  1.0000
  C   C11       1.0  0.7266170910062544  0.7233663946828628  0.523145833625641  1.0000
  C   C12       1.0  0.22662017568426762  0.5231464056360267  0.7233665020016673  1.0000
  C   C13       1.0  0.8843197195590452  0.6899844771394968  0.6948515480244524  1.0000
  C   C14       1.0  0.3843215287271704  0.6948501438829027  0.6899840614955153  1.0000
  C   C15       1.0  0.7016440934378282  0.8404044061725099  0.5891553711083404  1.0000
  C   C16       1.0  0.20164602804136686  0.5891566694089503  0.840404898815386  1.0000
  C   C17       1.0  0.6067665061021827  0.9093662832294667  0.531637011581239  1.0000
  C   C18       1.0  0.1067691259082721  0.5316402359045468  0.909366903733833  1.0000
  C   C19       1.0  0.6265503186353172  0.06921669410008491  0.7179445209671158  1.0000
  C   C20       1.0  0.12655541737253634  0.7179453036456563  0.06921788082215836  1.0000
  C   C21       1.0  0.25667884325536516  0.949656113718163  0.3348490928728012  1.0000
  C   C22       1.0  0.7566794433166066  0.3348492992342997  0.9496559959834201  1.0000
  C   C23       1.0  0.16086151811835245  0.004568776407495499  0.2617714002091134  1.0000
  C   C24       1.0  0.6608652569855382  0.261769775673443  0.004564881847152028  1.0000
  C   C25       1.0  0.006106579208342574  0.9901279786651144  0.2663853367842606  1.0000
  C   C26       1.0  0.5061048340400877  0.26637747417498764  0.9901230896650263  1.0000
  C   C27       1.0  0.9451159790377378  0.9192873962919209  0.34276094904028304  1.0000
  C   C28       1.0  0.4451143369100593  0.34275416899261296  0.9192849617923926  1.0000
  C   C29       1.0  0.040334939724509376  0.865926890322292  0.4165967753831622  1.0000
  C   C30       1.0  0.5403326962919693  0.4165874954748217  0.8659247888904601  1.0000
  C   C31       1.0  0.1956737535994862  0.8811219953901456  0.4131298491450579  1.0000
  C   C32       1.0  0.6956723063540127  0.4131292065198551  0.8811213207085657  1.0000
  C   C33       1.0  0.5274109478987228  0.11975817349687648  0.3769389288627778  1.0000
  C   C34       1.0  0.02741309040846571  0.3769420772388798  0.11975827637419911  1.0000
  C   C35       1.0  0.6541556399914514  0.16572242187554304  0.3294416106573763  1.0000
  C   C36       1.0  0.15415784451026585  0.3294426030119125  0.1657233364070194  1.0000
  C   C37       1.0  0.7181232499776798  0.28722565364657976  0.3761295716374988  1.0000
  C   C38       1.0  0.2181227231830789  0.37612903725992197  0.28722744732548483  1.0000
  C   C39       1.0  0.6541329378632527  0.36406758790255367  0.46970432372408766  1.0000
  C   C40       1.0  0.15413166272603016  0.4697046078318365  0.3640684222460706  1.0000
  C   C41       1.0  0.5247268476136426  0.3199445320199458  0.5147118944793405  1.0000
  C   C42       1.0  0.024725781407553882  0.5147142817400263  0.3199425604109294  1.0000
  C   C43       1.0  0.4614898652912134  0.19837170619157263  0.4688013472758783  1.0000
  C   C44       1.0  0.9614921621656976  0.46880311260406426  0.1983722191446091  1.0000
  S   S1        1.0  0.6924471807117599  0.7599567348342191  0.014164041350099412  1.0000
  S   S2        1.0  0.19244923606213865  0.0141637000735884  0.7599499490183489  1.0000
  N   N1        1.0  0.8739647762395891  0.9396572784778385  0.9357512491521405  1.0000
  N   N2        1.0  0.37396703963979416  0.9357602544968132  0.9396563351695022  1.0000
  O   O1        1.0  0.4775890165838633  0.6970151697596448  0.2382817972348761  1.0000
  O   O2        1.0  0.9775835955099481  0.23828487164463036  0.6970139222473861  1.0000
  O   O3        1.0  0.819933284176642  0.6500769509773223  0.5684950951966954  1.0000
  O   O4        1.0  0.31993540006528326  0.568493662992786  0.6500747825873745  1.0000
  O   O5        1.0  0.5703622573491886  0.020441234390155202  0.5909180799130027  1.0000
  O   O6        1.0  0.07037073187052562  0.590917252610545  0.020443731888107722  1.0000
