data_image0
_chemical_formula_structural       Zn4H56C48N16O20
_chemical_formula_sum              "Zn4 H56 C48 N16 O20"
_cell_length_a       10.460949726067339
_cell_length_b       11.620441304011585
_cell_length_c       12.167583784753232
_cell_angle_alpha    92.1977225967106
_cell_angle_beta     89.99984985024196
_cell_angle_gamma    90.00038935468919

_space_group_name_H-M_alt    "P 1"
_space_group_IT_number       1

loop_
  _space_group_symop_operation_xyz
  'x, y, z'

loop_
  _atom_site_type_symbol
  _atom_site_label
  _atom_site_symmetry_multiplicity
  _atom_site_fract_x
  _atom_site_fract_y
  _atom_site_fract_z
  _atom_site_occupancy
  Zn  Zn1       1.0  0.6406593958123922  0.0165697465517809  0.30873639689887966  1.0000
  Zn  Zn2       1.0  0.6406622978671025  0.4834294864595705  0.1912670689413289  1.0000
  Zn  Zn3       1.0  0.35934289030591055  0.9834272993114084  0.6912582350807028  1.0000
  Zn  Zn4       1.0  0.35933616449400324  0.5165685443938982  0.8087382734954998  1.0000
  H   H1        1.0  0.7800541794241198  0.9088786312545877  0.5285055003675723  1.0000
  H   H2        1.0  0.7800618606183747  0.5911214384056793  0.9714877320016413  1.0000
  H   H3        1.0  0.21994523889900108  0.09112362904124889  0.471493377055566  1.0000
  H   H4        1.0  0.21994329329906753  0.4088747939746328  0.028510988302919295  1.0000
  H   H5        1.0  0.10420447439892647  0.8347883430187508  0.3312351689301067  1.0000
  H   H6        1.0  0.10420216850932461  0.6652262855904709  0.16876805895719826  1.0000
  H   H7        1.0  0.8957930320417232  0.16521488321642153  0.6687727746393077  1.0000
  H   H8        1.0  0.8957991616593688  0.3347735247082326  0.8312422612931627  1.0000
  H   H9        1.0  0.9021994150901306  0.9065524748146956  0.19866146356013561  1.0000
  H   H10       1.0  0.9021932938158912  0.5934539731583115  0.3013340515602819  1.0000
  H   H11       1.0  0.09780095915709101  0.0934445615143957  0.8013323462668752  1.0000
  H   H12       1.0  0.0978042125986676  0.4065379344760133  0.6986629122196178  1.0000
  H   H13       1.0  0.005622347780708001  0.8852018030636231  0.623766230124012  1.0000
  H   H14       1.0  0.005623807175460601  0.6148005420377844  0.8762328657352256  1.0000
  H   H15       1.0  0.9943789823872604  0.11479446741856954  0.3762357788024886  1.0000
  H   H16       1.0  0.9943775229807628  0.38519493400959703  0.12377487582819668  1.0000
  H   H17       1.0  0.1350369489912921  0.8417960470005923  0.5387838886580809  1.0000
  H   H18       1.0  0.13504325745125104  0.6582062349757651  0.9612165661722968  1.0000
  H   H19       1.0  0.8649634252453425  0.15820284499188383  0.46122147622148885  1.0000
  H   H20       1.0  0.8649609405395824  0.34179790005454447  0.038795510607577896  1.0000
  H   H21       1.0  0.03447559442521  0.6461953943827581  0.5093253631314667  1.0000
  H   H22       1.0  0.0344766021179126  0.8538054116446858  0.9906744513819135  1.0000
  H   H23       1.0  0.9655219120118589  0.3538052008109033  0.49067840233134763  1.0000
  H   H24       1.0  0.9655256839890071  0.1461926096919441  0.0093300688965172  1.0000
  H   H25       1.0  0.07316511910336491  0.6821460413629552  0.6504244669869337  1.0000
  H   H26       1.0  0.0731701087743133  0.8178662018065239  0.8495763828652015  1.0000
  H   H27       1.0  0.9268285635931123  0.3178562951424055  0.349580987678145  1.0000
  H   H28       1.0  0.9268360010993463  0.18213873719270174  0.1504307834303233  1.0000
  H   H29       1.0  0.8922201945972859  0.5597293981648052  0.7247468594179621  1.0000
  H   H30       1.0  0.8922339850415637  0.9402687537046859  0.7752452556063787  1.0000
  H   H31       1.0  0.1077687084197336  0.44027026917127193  0.2752511285273087  1.0000
  H   H32       1.0  0.10776734513049041  0.05972659847417111  0.22475179794835745  1.0000
  H   H33       1.0  0.9023894765709598  0.5117446978918423  0.583865818397129  1.0000
  H   H34       1.0  0.9023936412496099  0.9882621550744305  0.9161289668898078  1.0000
  H   H35       1.0  0.0976070739235055  0.48825417503243784  0.41613790217729724  1.0000
  H   H36       1.0  0.09760960079754001  0.0117349479617275  0.0838705980158849  1.0000
  H   H37       1.0  0.6610310940594815  0.6110947301637992  0.6991471079900862  1.0000
  H   H38       1.0  0.6610425057395587  0.8889064025531468  0.8008513439711037  1.0000
  H   H39       1.0  0.33896354458648403  0.3889101611591598  0.3008559475445196  1.0000
  H   H40       1.0  0.3389664719333751  0.11109240371008872  0.19914662150909374  1.0000
  H   H41       1.0  0.6901101707532361  0.46461846178309685  0.6641165927113589  1.0000
  H   H42       1.0  0.6901092402130828  0.03538552107649201  0.8358639572947267  1.0000
  H   H43       1.0  0.3098911594874636  0.5353905351309578  0.33586930979505064  1.0000
  H   H44       1.0  0.3098920899880683  0.9646149216750999  0.16412665369197296  1.0000
  H   H45       1.0  0.5739622613004086  0.7390146617956576  0.5579063851275662  1.0000
  H   H46       1.0  0.57396271454936  0.7609859182424045  0.942089777249798  1.0000
  H   H47       1.0  0.4260400248243457  0.2609841063340497  0.44208829174137065  1.0000
  H   H48       1.0  0.4260338359625138  0.23901459119324642  0.0579065888233572  1.0000
  H   H49       1.0  0.5313009891504875  0.7134412997679719  0.3328989527695612  1.0000
  H   H50       1.0  0.5313015187444493  0.7865663984612683  0.16710069417094786  1.0000
  H   H51       1.0  0.4686946054280412  0.28656096051635416  0.6670999246574637  1.0000
  H   H52       1.0  0.4686912080228254  0.21343411096287213  0.832895671906094  1.0000
  H   H53       1.0  0.7187042915033217  0.41691978712895406  0.4416893471938721  1.0000
  H   H54       1.0  0.7187064804253823  0.0830841069527963  0.0583042064786099  1.0000
  H   H55       1.0  0.28129225899565574  0.5830772777736756  0.55830692910056  1.0000
  H   H56       1.0  0.281297717558772  0.9169112166496378  0.9416903806096641  1.0000
  C   C1        1.0  0.8385460725996695  0.8984690797626697  0.45540912472306866  1.0000
  C   C2        1.0  0.8385513108225667  0.6015309476586311  0.0445855404217141  1.0000
  C   C3        1.0  0.16145430168539582  0.1015400696020805  0.5445899322565423  1.0000
  C   C4        1.0  0.1614509753186795  0.39847389604560135  0.9554134043325604  1.0000
  C   C5        1.0  0.006876859387425299  0.8605076256325647  0.3504108431942683  1.0000
  C   C6        1.0  0.0068811088320047  0.6395011932190471  0.1495875147991228  1.0000
  C   C7        1.0  0.99311682329823  0.1394894773748234  0.6495887217211375  1.0000
  C   C8        1.0  0.9931240450837963  0.36049593840790817  0.8504145165681718  1.0000
  C   C9        1.0  0.9069263470573716  0.8965241507082523  0.2867558137301742  1.0000
  C   C10       1.0  0.9069234381742319  0.6034832154437808  0.21324218069307932  1.0000
  C   C11       1.0  0.09307307125850879  0.10347550713112241  0.7132413520498984  1.0000
  C   C12       1.0  0.09307406827092991  0.396518202769748  0.7867583185963554  1.0000
  C   C13       1.0  0.032922818009709  0.8279312602012256  0.5539270648494891  1.0000
  C   C14       1.0  0.032928321678085105  0.6720720913084223  0.9460703536840709  1.0000
  C   C15       1.0  0.9670785121780412  0.17206928736219854  0.44607258983686643  1.0000
  C   C16       1.0  0.967076832244949  0.327927642775002  0.0539333893262892  1.0000
  C   C17       1.0  0.0102063947781446  0.7035820823721791  0.5813858770524617  1.0000
  C   C18       1.0  0.0102090997379634  0.7964246055186377  0.9186141438715508  1.0000
  C   C19       1.0  0.98979302354455  0.29642106764195836  0.4186154892789061  1.0000
  C   C20       1.0  0.9897941423127676  0.20357512855903082  0.08138959914075629  1.0000
  C   C21       1.0  0.8542352963508223  0.5739251313896006  0.6415569879633977  1.0000
  C   C22       1.0  0.8542429900371289  0.9260814126941455  0.8584362508296409  1.0000
  C   C23       1.0  0.1457602982462589  0.42608141550429934  0.35844035737800073  1.0000
  C   C24       1.0  0.14576120795061343  0.0739165419497994  0.1415625143652477  1.0000
  C   C25       1.0  0.7110617940983986  0.5529902974688526  0.6403210954297762  1.0000
  C   C26       1.0  0.7110696424861019  0.9470162364695441  0.8596716344909013  1.0000
  C   C27       1.0  0.2889347564392751  0.44701710103284154  0.3596754502008109  1.0000
  C   C28       1.0  0.2889345555189777  0.0529860143123244  0.14032642077287247  1.0000
  C   C29       1.0  0.5968921282997854  0.6695392842458362  0.49919005020478113  1.0000
  C   C30       1.0  0.5968868058290014  0.8304687706406214  0.0008061748840688962  1.0000
  C   C31       1.0  0.4031092019009322  0.3304620482240638  0.5008030496901341  1.0000
  C   C32       1.0  0.4031164362193635  0.169528322867194  0.9991925678671123  1.0000
  C   C33       1.0  0.5767162543257811  0.6549292581293641  0.38791029771768853  1.0000
  C   C34       1.0  0.5767193064770167  0.8450752308121778  0.1120858785685002  1.0000
  C   C35       1.0  0.4232822080555962  0.34506950046048257  0.6120835570006165  1.0000
  C   C36       1.0  0.42328680337334396  0.15492014043775268  0.8879128192904062  1.0000
  C   C37       1.0  0.6739601077457635  0.5009320466720126  0.4406309285132934  1.0000
  C   C38       1.0  0.6739730898209969  0.9990730371313247  0.059365872379565594  1.0000
  C   C39       1.0  0.32603357494232915  0.49906503727868307  0.5593669920930822  1.0000
  C   C40       1.0  0.3260311081667382  0.0009249175126199993  0.9406328928153228  1.0000
  C   C41       1.0  0.5614706182647353  0.25000152149040383  0.2500010473094179  1.0000
  C   C42       1.0  0.4385278440942955  0.7499982983280165  0.750010095098375  1.0000
  C   C43       1.0  0.7098586748632201  0.2500028577770693  0.2500033855024881  1.0000
  C   C44       1.0  0.2901397875019001  0.7499969143996097  0.7500036461327326  1.0000
  C   C45       1.0  0.5432454511090157  0.0461733162188693  0.5312945419631987  1.0000
  C   C46       1.0  0.5432396353745119  0.4538111616903678  0.9687137658542255  1.0000
  C   C47       1.0  0.4567616146137254  0.9538083721853496  0.46871201832500725  1.0000
  C   C48       1.0  0.456752135397707  0.5461756267689069  0.0312871740359881  1.0000
  N   N1        1.0  0.8029367343254065  0.9205059087721212  0.35322553769258747  1.0000
  N   N2        1.0  0.8029405381633908  0.5794956361097476  0.1467700668330849  1.0000
  N   N3        1.0  0.1970636399350809  0.07949634199824371  0.6467725175750658  1.0000
  N   N4        1.0  0.1970607920449297  0.4205100687248661  0.8532289003668366  1.0000
  N   N5        1.0  0.9617173495534883  0.8622290012881136  0.4572424670815209  1.0000
  N   N6        1.0  0.9617228677078418  0.6377761112725082  0.042755348698612694  1.0000
  N   N7        1.0  0.038281112848388  0.1377775741994753  0.5427573447205063  1.0000
  N   N8        1.0  0.038282286228096  0.3622270673439373  0.9572484840904705  1.0000
  N   N9        1.0  0.6579224937430083  0.5709913502806359  0.5313822958371048  1.0000
  N   N10       1.0  0.6579260498745684  0.9290140121984155  0.9686113417430845  1.0000
  N   N11       1.0  0.3420721449010101  0.429010010754169  0.46861327052815227  1.0000
  N   N12       1.0  0.3420762362388672  0.0709830717781657  0.031386578854551296  1.0000
  N   N13       1.0  0.6255231413136287  0.5494219081916044  0.3522774662914259  1.0000
  N   N14       1.0  0.6255335749829668  0.9505794776459171  0.1477226318365226  1.0000
  N   N15       1.0  0.37447436512027826  0.45057516624224553  0.6477196321565515  1.0000
  N   N16       1.0  0.3744696670609642  0.04941676425698922  0.8522769106244964  1.0000
  O   O1        1.0  0.6384588264009992  0.0844752391343846  0.4801608793550186  1.0000
  O   O2        1.0  0.6384579135652828  0.4155438724404236  0.0198505065774768  1.0000
  O   O3        1.0  0.3615348563310262  0.9155339102102291  0.5198381776313852  1.0000
  O   O4        1.0  0.3615395929390814  0.5844756962698909  0.9801562191318282  1.0000
  O   O5        1.0  0.5117970276207799  0.0760564874236138  0.6291027654500922  1.0000
  O   O6        1.0  0.5118046671185184  0.4239346140796344  0.8708992085582139  1.0000
  O   O7        1.0  0.4881985669548783  0.9239466816357125  0.3709002451941786  1.0000
  O   O8        1.0  0.48820622240700123  0.5760572554815725  0.12909446659003979  1.0000
  O   O9        1.0  0.5065373586021522  0.15993272133938774  0.2814404621660671  1.0000
  O   O10       1.0  0.5065515193216328  0.34005628913951114  0.21856796214912316  1.0000
  O   O11       1.0  0.49345441221607433  0.8400643435488534  0.718555814133225  1.0000
  O   O12       1.0  0.49345650240103106  0.659939082116175  0.7814307357078433  1.0000
  O   O13       1.0  0.766064471157428  0.1550629608672622  0.2645282844686889  1.0000
  O   O14       1.0  0.7660518509815264  0.34493272123497587  0.2354748144204066  1.0000
  O   O15       1.0  0.233939726827515  0.8449332429251228  0.735467969373303  1.0000
  O   O16       1.0  0.2339466114010662  0.6550660278265212  0.7645182181433866  1.0000
  O   O17       1.0  0.8790968090666595  0.6881473236031825  0.6094460654334667  1.0000
  O   O18       1.0  0.87910258425876  0.8118593796427475  0.8905479450132245  1.0000
  O   O19       1.0  0.12090165333321323  0.3118583812227982  0.390552901769361  1.0000
  O   O20       1.0  0.12090352560127829  0.1881385750069526  0.10945082017972399  1.0000
