data_image0
_chemical_formula_structural       Ca4H24C12N16O16
_chemical_formula_sum              "Ca4 H24 C12 N16 O16"
_cell_length_a       8.705859002217364
_cell_length_b       7.965157500205697
_cell_length_c       11.01221007210457
_cell_angle_alpha    89.99967264891447
_cell_angle_beta     90.00038487901294
_cell_angle_gamma    90.00073205185411

_space_group_name_H-M_alt    "P 1"
_space_group_IT_number       1

loop_
  _space_group_symop_operation_xyz
  'x, y, z'

loop_
  _atom_site_type_symbol
  _atom_site_label
  _atom_site_symmetry_multiplicity
  _atom_site_fract_x
  _atom_site_fract_y
  _atom_site_fract_z
  _atom_site_occupancy
  Ca  Ca1       1.0  0.9610924435346178  0.7499952750603074  0.7056731079013614  1.0000
  Ca  Ca2       1.0  0.5389049686891171  0.24999918686019384  0.20566987651660895  1.0000
  Ca  Ca3       1.0  0.4610939119716448  0.7500040911570379  0.7943306424428439  1.0000
  Ca  Ca4       1.0  0.03890873436586869  0.24999544828254736  0.2943301353396776  1.0000
  H   H1        1.0  0.9206028061636715  0.3836843903938743  0.7612884106783038  1.0000
  H   H2        1.0  0.5793996737784041  0.6163134115457823  0.2612947328049699  1.0000
  H   H3        1.0  0.42060564326739314  0.11630532324168293  0.7387136195626383  1.0000
  H   H4        1.0  0.0793896380407872  0.8836896206951792  0.23870699915116222  1.0000
  H   H5        1.0  0.07939607436479432  0.6163000556214372  0.2387075679065517  1.0000
  H   H6        1.0  0.42060609883426275  0.38369614385459283  0.7387066942423456  1.0000
  H   H7        1.0  0.5793863455055898  0.8837017211325743  0.2612868993705247  1.0000
  H   H8        1.0  0.9206138370982728  0.1162960808227993  0.761288071360276  1.0000
  H   H9        1.0  0.9637846525509914  0.38846227615262313  0.621289369569318  1.0000
  H   H10       1.0  0.5362200825260857  0.6115340882000311  0.12129275870080386  1.0000
  H   H11       1.0  0.4638001096931034  0.11153806837741341  0.8787101655142704  1.0000
  H   H12       1.0  0.0361883218915153  0.8884645904724024  0.3787069279724874  1.0000
  H   H13       1.0  0.03623145786445999  0.6115284472534412  0.37872386262357327  1.0000
  H   H14       1.0  0.4637730549067385  0.3884704452252309  0.8787132087383325  1.0000
  H   H15       1.0  0.5362102574884345  0.8884677206642522  0.12128762922151985  1.0000
  H   H16       1.0  0.9637887343178305  0.11153241008454981  0.6212863262789836  1.0000
  H   H17       1.0  0.31955924557533427  0.6408555688876592  0.3851882860780903  1.0000
  H   H18       1.0  0.18044187631478079  0.3591508067753252  0.8851880589440523  1.0000
  H   H19       1.0  0.8195583140164189  0.8591469619906464  0.11480836337418755  1.0000
  H   H20       1.0  0.6804383253995424  0.14085321839475992  0.6148126971908494  1.0000
  H   H21       1.0  0.6804384863352054  0.35913515446309663  0.6148067844074345  1.0000
  H   H22       1.0  0.8195547070724558  0.6408587485730309  0.11481064383008997  1.0000
  H   H23       1.0  0.18044516127000068  0.14086008246516005  0.8851912475065117  1.0000
  H   H24       1.0  0.31955251478640884  0.8591601032870955  0.38519417830643465  1.0000
  C   C1        1.0  0.22242368808382906  0.7499946451087  0.5426993210987658  1.0000
  C   C2        1.0  0.27757566928244864  0.25000682348799325  0.04269553967835548  1.0000
  C   C3        1.0  0.7224255086964604  0.7500014764306044  0.9573013469447811  1.0000
  C   C4        1.0  0.7775797870826437  0.24998854543508034  0.45730573833026245  1.0000
  C   C5        1.0  0.343418795369324  0.7500084008464185  0.4439347262586678  1.0000
  C   C6        1.0  0.1565828262443389  0.2500050572420349  0.9439339287892847  1.0000
  C   C7        1.0  0.8434217976590546  0.7500019872529153  0.05605750934807928  1.0000
  C   C8        1.0  0.656577787987402  0.24999864357994983  0.5560603441890988  1.0000
  C   C9        1.0  0.5095139736297513  0.7500144272447571  0.4764136609285002  1.0000
  C   C10       1.0  0.9904857415641571  0.2499980465024905  0.9764119106049233  1.0000
  C   C11       1.0  0.009520030957737898  0.7499989542322608  0.02358588413737549  1.0000
  C   C12       1.0  0.49048260976559993  0.24999261714680185  0.5235904903485744  1.0000
  N   N1        1.0  0.576446375953452  0.7500044183535053  0.5860103674423554  1.0000
  N   N2        1.0  0.9235569104540456  0.2500072821076671  0.08600554429895618  1.0000
  N   N3        1.0  0.07644771345397319  0.7499947404841266  0.9139940665954709  1.0000
  N   N4        1.0  0.42355480200748724  0.24999509325807176  0.41399469194585936  1.0000
  N   N5        1.0  0.7301691886847407  0.7500105749467068  0.5625858678901066  1.0000
  N   N6        1.0  0.7698350470913056  0.24999377229657682  0.06258204545424208  1.0000
  N   N7        1.0  0.23016957673771538  0.749994440144235  0.9374184735524904  1.0000
  N   N8        1.0  0.2698331379650085  0.24999898043720492  0.43741374298220126  1.0000
  N   N9        1.0  0.754412132685104  0.7500174672504867  0.4451490151993624  1.0000
  N   N10       1.0  0.7455850191963621  0.2499814360246475  0.9451477818868878  1.0000
  N   N11       1.0  0.25441615864019695  0.7499979881031322  0.05485636946112039  1.0000
  N   N12       1.0  0.2455833020880718  0.24999836542983903  0.5548496875583877  1.0000
  N   N13       1.0  0.6175316586480618  0.7500167549586507  0.38824000291531024  1.0000
  N   N14       1.0  0.8824615632098655  0.249982584605327  0.8882349553275187  1.0000
  N   N15       1.0  0.1175396146452385  0.7500018614047052  0.11176647176101535  1.0000
  N   N16       1.0  0.382458032878624  0.24999531124743876  0.6117668725815901  1.0000
  O   O1        1.0  0.08251315669483719  0.7499825355116487  0.506006951096637  1.0000
  O   O2        1.0  0.4174996723812113  0.2500179590234737  0.006001187641963697  1.0000
  O   O3        1.0  0.5825038029650855  0.7500016401258166  0.9939947908803074  1.0000
  O   O4        1.0  0.9174983589576584  0.249993122306897  0.49399084370628527  1.0000
  O   O5        1.0  0.2542153996803407  0.7500019635068469  0.6550074699969668  1.0000
  O   O6        1.0  0.2457745749925024  0.24999864408055567  0.15498263402154314  1.0000
  O   O7        1.0  0.7542254542243967  0.7499983566569244  0.8450042637103433  1.0000
  O   O8        1.0  0.7457777377416547  0.24999754802918517  0.34500303786750647  1.0000
  O   O9        1.0  0.9548270546361336  0.4593155237206545  0.6946114432923733  1.0000
  O   O10       1.0  0.5451771554931213  0.5406865558259143  0.19461699750650033  1.0000
  O   O11       1.0  0.45483184870074916  0.04067967707314319  0.8053916765853583  1.0000
  O   O12       1.0  0.045159405128188695  0.9593122447056572  0.3053845528870055  1.0000
  O   O13       1.0  0.045178717928052885  0.5406827324507189  0.3053945241936303  1.0000
  O   O14       1.0  0.45483321172685004  0.4593204886558624  0.8053880618900632  1.0000
  O   O15       1.0  0.5451601400457733  0.959323600900724  0.1946079342728878  1.0000
  O   O16       1.0  0.9548406240481453  0.040672201320937504  0.6946105176179599  1.0000
