data_image0
_chemical_formula_structural       Na4H64C48N4
_chemical_formula_sum              "Na4 H64 C48 N4"
_cell_length_a       8.815555160378116
_cell_length_b       11.280304890004107
_cell_length_c       11.404465938504982
_cell_angle_alpha    90.00007847481062
_cell_angle_beta     102.7330272885244
_cell_angle_gamma    89.99992580270879

_space_group_name_H-M_alt    "P 1"
_space_group_IT_number       1

loop_
  _space_group_symop_operation_xyz
  'x, y, z'

loop_
  _atom_site_type_symbol
  _atom_site_label
  _atom_site_symmetry_multiplicity
  _atom_site_fract_x
  _atom_site_fract_y
  _atom_site_fract_z
  _atom_site_occupancy
  Na  Na1       1.0  0.13709318613193494  0.07883589377540548  0.47479300695986376  1.0000
  Na  Na2       1.0  0.3629075923641736  0.5788364839073736  0.5252066694608428  1.0000
  Na  Na3       1.0  0.8629066299546436  0.9211638570294692  0.5252072410552414  1.0000
  Na  Na4       1.0  0.6370933866767173  0.4211632668970466  0.47479377900970826  1.0000
  H   H1        1.0  0.0004090624688544011  0.23318935935802187  0.9071439329029969  1.0000
  H   H2        1.0  0.49958917838178957  0.733188326734776  0.09285726968059287  1.0000
  H   H3        1.0  0.9995907566919797  0.7668112779471058  0.09285543879007452  1.0000
  H   H4        1.0  0.5004106346305264  0.2668105375698459  0.9071438546565529  1.0000
  H   H5        1.0  0.17496323071234343  0.16888070850521328  0.8827007582616627  1.0000
  H   H6        1.0  0.32503625874658587  0.6688807731361945  0.11730057210496615  1.0000
  H   H7        1.0  0.8250377483291372  0.831118155798343  0.11729969020838377  1.0000
  H   H8        1.0  0.6749623974605187  0.33111897766851667  0.8826985991321691  1.0000
  H   H9        1.0  0.057760177519966815  0.08961966847712684  0.9638111359504361  1.0000
  H   H10       1.0  0.44223942058481924  0.5896186156580397  0.0361892285228222  1.0000
  H   H11       1.0  0.9422396416408672  0.9103809688280009  0.03618823574263522  1.0000
  H   H12       1.0  0.5577615584566616  0.4103802486455236  0.9638112199472243  1.0000
  H   H13       1.0  0.027904963792302312  0.016616190154280695  0.7503669449556156  1.0000
  H   H14       1.0  0.4720924025644493  0.5166154021365725  0.24963381243070867  1.0000
  H   H15       1.0  0.9720936862651115  0.9833835606516526  0.24963397892659592  1.0000
  H   H16       1.0  0.5279050876134904  0.48338434866920466  0.7503660346735257  1.0000
  H   H17       1.0  0.8043957703614099  0.9813743573264088  0.8415293980843827  1.0000
  H   H18       1.0  0.6956030061951496  0.4813723840878693  0.1584706132436438  1.0000
  H   H19       1.0  0.19560404572398232  0.018627166480186492  0.15847084993172433  1.0000
  H   H20       1.0  0.30439564693828913  0.5186255937157255  0.8415294343150208  1.0000
  H   H21       1.0  0.7281959085340829  0.03418092346488069  0.6928215783338487  1.0000
  H   H22       1.0  0.7718046235325036  0.5341795315512811  0.3071790044144009  1.0000
  H   H23       1.0  0.2718039075518988  0.9658197138408509  0.3071786696817611  1.0000
  H   H24       1.0  0.2281951925540753  0.46582021925358663  0.6928212436007043  1.0000
  H   H25       1.0  0.7419641909057476  0.1313299716498264  0.8162057596791286  1.0000
  H   H26       1.0  0.7580350518850241  0.6313293096279294  0.1837938560763845  1.0000
  H   H27       1.0  0.2580356282550794  0.8686706656553014  0.18379361201394315  1.0000
  H   H28       1.0  0.24196360432267747  0.3686695546759253  0.8162053151602462  1.0000
  H   H29       1.0  0.8799679150896438  0.2592439037431403  0.6806147208697908  1.0000
  H   H30       1.0  0.6200334832369734  0.7592435690713728  0.31938544034797184  1.0000
  H   H31       1.0  0.1200330670255099  0.7407567335615324  0.3193848512787198  1.0000
  H   H32       1.0  0.37996749887876996  0.24075618173244343  0.680614131800034  1.0000
  H   H33       1.0  0.0726984161374276  0.22423816270871552  0.6744924039817447  1.0000
  H   H34       1.0  0.4273021656188122  0.724237524990741  0.3255083130749625  1.0000
  H   H35       1.0  0.9273025659783157  0.775761588095101  0.3255071681662613  1.0000
  H   H36       1.0  0.5726976504683493  0.2757613393132701  0.6744919349396453  1.0000
  H   H37       1.0  0.9707267179296651  0.3727726149788352  0.5517787885730243  1.0000
  H   H38       1.0  0.5292745322597553  0.8727716639212626  0.4482206246167875  1.0000
  H   H39       1.0  0.0292742641854815  0.6272280223258376  0.44822078357548617  1.0000
  H   H40       1.0  0.4707252869016685  0.12722808688300796  0.5517787470757793  1.0000
  H   H41       1.0  0.887127522629676  0.3878324211437061  0.3885241788731974  1.0000
  H   H42       1.0  0.6128725414712761  0.8878324975197174  0.6114759272028677  1.0000
  H   H43       1.0  0.11287345948547771  0.6121682161609739  0.611475393275313  1.0000
  H   H44       1.0  0.38712611473523856  0.11216813978585796  0.38852324403476496  1.0000
  H   H45       1.0  0.940657513320687  0.27711631605164655  0.2454451508435368  1.0000
  H   H46       1.0  0.5593403723388874  0.7771148714893171  0.7545544292042975  1.0000
  H   H47       1.0  0.059341142885237716  0.7228852077547925  0.7545540203946003  1.0000
  H   H48       1.0  0.4406606067025933  0.22288399281424626  0.24544601926574927  1.0000
  H   H49       1.0  0.8282719312286345  0.19799514451048586  0.042692927622994106  1.0000
  H   H50       1.0  0.6717272227673448  0.6979965257999862  0.9573067634697237  1.0000
  H   H51       1.0  0.17172556509900266  0.8020046062940763  0.957305166836164  1.0000
  H   H52       1.0  0.3282737562729566  0.30200411150529755  0.04269368500132488  1.0000
  H   H53       1.0  0.6273498269708356  0.0393656495767374  0.014955086350994408  1.0000
  H   H54       1.0  0.8726530210203337  0.539369525018202  0.9850467794927267  1.0000
  H   H55       1.0  0.37264999219117817  0.9606332147266694  0.9850442853410752  1.0000
  H   H56       1.0  0.12735144688173966  0.46063288528745255  0.014954270345633307  1.0000
  H   H57       1.0  0.5363026820397822  0.962622779156092  0.19360248881848457  1.0000
  H   H58       1.0  0.963697273220774  0.4626232028274869  0.8064003307434289  1.0000
  H   H59       1.0  0.4636971340462069  0.03737785814963959  0.806397759197125  1.0000
  H   H60       1.0  0.03630253979095241  0.537376547977992  0.19360079359421428  1.0000
  H   H61       1.0  0.6453664748602537  0.04630100011841169  0.39608222748478983  1.0000
  H   H62       1.0  0.8546340379881556  0.5462999344480436  0.6039192452826682  1.0000
  H   H63       1.0  0.35463334122572826  0.9536996371873199  0.6039180205308198  1.0000
  H   H64       1.0  0.1453657811732683  0.45369981635622025  0.39608012640989887  1.0000
  C   C1        1.0  0.05425602311453301  0.14955594059662047  0.8872998037427918  1.0000
  C   C2        1.0  0.44574349208374997  0.6495558764965564  0.11270150478550528  1.0000
  C   C3        1.0  0.9457437929720386  0.8504438102082472  0.11270044427232045  1.0000
  C   C4        1.0  0.5542563209279763  0.35044387430892227  0.8872996195521451  1.0000
  C   C5        1.0  0.9636050941689334  0.09561536697826509  0.7697291257450087  1.0000
  C   C6        1.0  0.5363953591459492  0.5956141074048203  0.23027065010575135  1.0000
  C   C7        1.0  0.036394724991900794  0.9043852703268624  0.23027024594806278  1.0000
  C   C8        1.0  0.4636044600160573  0.40438475689857967  0.7697287215863182  1.0000
  C   C9        1.0  0.8008141695933092  0.05771133994650059  0.7809750401810475  1.0000
  C   C10       1.0  0.6991840021489323  0.5577098997908362  0.21902604456975883  1.0000
  C   C11       1.0  0.1991856434178345  0.9422892973598419  0.21902608415710023  1.0000
  C   C12       1.0  0.3008146509839165  0.4422889645136293  0.78097400298941  1.0000
  C   C13       1.0  0.9555612707558508  0.18366079218304077  0.666418229819449  1.0000
  C   C14       1.0  0.5444378961844692  0.6836596672744972  0.33358319771816974  1.0000
  C   C15       1.0  0.04443854533072061  0.8163389586218339  0.3335820181956635  1.0000
  C   C16       1.0  0.45556075694837966  0.3163391970299613  0.666416849840999  1.0000
  C   C17       1.0  0.871303681070927  0.21318560269844508  0.45898567339493457  1.0000
  C   C18       1.0  0.6286966248716155  0.713186452124361  0.5410116063515176  1.0000
  C   C19       1.0  0.1286973010448094  0.7868141481053706  0.5410138987530715  1.0000
  C   C20       1.0  0.3713031942892187  0.2868141851807664  0.458987765341547  1.0000
  C   C21       1.0  0.9017448048861995  0.3343933113725156  0.4696210726787199  1.0000
  C   C22       1.0  0.5982576532270087  0.8343915174563675  0.5303802502399789  1.0000
  C   C23       1.0  0.09825617722954412  0.6656064394312936  0.5303784994692862  1.0000
  C   C24       1.0  0.40174216593500484  0.16560734684703957  0.4696191214520835  1.0000
  C   C25       1.0  0.8020078477754353  0.16617175238669543  0.33563016700920656  1.0000
  C   C26       1.0  0.6979948282475802  0.6661700425882414  0.6643727184531583  1.0000
  C   C27       1.0  0.19799197138539884  0.8338288849184249  0.664369204683865  1.0000
  C   C28       1.0  0.3020084767025324  0.33382882171441947  0.335628130927759  1.0000
  C   C29       1.0  0.8504870701677733  0.20929726504321158  0.23411768815527972  1.0000
  C   C30       1.0  0.6495120657004635  0.7092975177268387  0.7658828920314773  1.0000
  C   C31       1.0  0.1495115829638962  0.7907033722629748  0.7658823594048908  1.0000
  C   C32       1.0  0.3504877503849358  0.29070400607975694  0.2341173559846297  1.0000
  C   C33       1.0  0.7871979534049344  0.16445977750655058  0.11974007581729036  1.0000
  C   C34       1.0  0.7128024020631614  0.6644601241443053  0.8802615304781793  1.0000
  C   C35       1.0  0.21279954292211306  0.8355408597988685  0.8802580186423723  1.0000
  C   C36       1.0  0.2871997368572039  0.33553962666027093  0.11973999477034167  1.0000
  C   C37       1.0  0.6744496826099038  0.07543829397406647  0.10425961473046637  1.0000
  C   C38       1.0  0.8255519513064514  0.5754412072103036  0.895742967744276  1.0000
  C   C39       1.0  0.3255501334760851  0.924562343331665  0.8957406332851433  1.0000
  C   C40       1.0  0.17445018761272732  0.42456031659600046  0.10425855750524698  1.0000
  C   C41       1.0  0.6250041936001408  0.03171173316221849  0.20423677347197602  1.0000
  C   C42       1.0  0.874997501633736  0.5317117985578719  0.7957648832647234  1.0000
  C   C43       1.0  0.37499446260637376  0.9682889041433568  0.7957623977656564  1.0000
  C   C44       1.0  0.125005803315787  0.468287952245646  0.20423596611669836  1.0000
  C   C45       1.0  0.6880059650388617  0.07698094674850608  0.31859203955976756  1.0000
  C   C46       1.0  0.8119945038698403  0.5769818044316962  0.68141034420168  1.0000
  C   C47       1.0  0.3119950109265944  0.923019690557382  0.681409285233819  1.0000
  C   C48       1.0  0.18800531221555167  0.4230197193748989  0.31858990381443414  1.0000
  N   N1        1.0  0.89843838837578  0.1318438777171309  0.5483903882400439  1.0000
  N   N2        1.0  0.6015631704136554  0.6318446310614332  0.4516122579755119  1.0000
  N   N3        1.0  0.10156259681480861  0.8681558730860742  0.45160830758542386  1.0000
  N   N4        1.0  0.3984378086272359  0.36815511974298676  0.5483881904950323  1.0000
