data_image0
_chemical_formula_structural       Zn2H36C32N4O8
_chemical_formula_sum              "Zn2 H36 C32 N4 O8"
_cell_length_a       8.34922385681354
_cell_length_b       10.618429093842275
_cell_length_c       10.829858364743728
_cell_angle_alpha    113.49574751095727
_cell_angle_beta     93.1015887195284
_cell_angle_gamma    96.36762887859746

_space_group_name_H-M_alt    "P 1"
_space_group_IT_number       1

loop_
  _space_group_symop_operation_xyz
  'x, y, z'

loop_
  _atom_site_type_symbol
  _atom_site_label
  _atom_site_symmetry_multiplicity
  _atom_site_fract_x
  _atom_site_fract_y
  _atom_site_fract_z
  _atom_site_occupancy
  Zn  Zn1       1.0  0.3015430193721116  0.8491128011021305  0.6169987128912454  1.0000
  Zn  Zn2       1.0  0.6984604705265623  0.1508845885602952  0.3829960533118281  1.0000
  H   H1        1.0  0.17969406944170882  0.775548314547699  0.33700933352212564  1.0000
  H   H2        1.0  0.8203175354320321  0.2244542115848134  0.6629878024117772  1.0000
  H   H3        1.0  0.23323189550246326  0.6244620834687142  0.10328040818128414  1.0000
  H   H4        1.0  0.7667767701367153  0.375537304254074  0.896719051221794  1.0000
  H   H5        1.0  0.6068727122274851  0.4802977447942709  0.28517817806803686  1.0000
  H   H6        1.0  0.3931397196895929  0.5197026971933385  0.7148181548108425  1.0000
  H   H7        1.0  0.5322208694157594  0.6334805290684571  0.5104271902307147  1.0000
  H   H8        1.0  0.4677852018387227  0.3665178809334294  0.4895680839978809  1.0000
  H   H9        1.0  0.41526903516631103  0.7794151388560736  0.8466768179337193  1.0000
  H   H10       1.0  0.5847241638502465  0.22059161334313876  0.15332684344472366  1.0000
  H   H11       1.0  0.6610634131741476  0.8634333172808156  0.023108196448703187  1.0000
  H   H12       1.0  0.3389250857809428  0.13656721333359206  0.9768946387438786  1.0000
  H   H13       1.0  0.8682823431680334  0.09354527061483962  0.8057631595755765  1.0000
  H   H14       1.0  0.131718522490722  0.9064571952461055  0.19424554369949476  1.0000
  H   H15       1.0  0.6167757581080194  0.0038367873835696027  0.6417110496784559  1.0000
  H   H16       1.0  0.38322050771505195  0.9961667296667333  0.35829974460136094  1.0000
  H   H17       1.0  0.3606554639674684  0.38109026850658273  0.9720545202328238  1.0000
  H   H18       1.0  0.639342224887308  0.6189081916930377  0.0279413750885524  1.0000
  H   H19       1.0  0.5598080692097938  0.38974896426128686  0.04299266274674101  1.0000
  H   H20       1.0  0.4401946821308015  0.6102442638430929  0.9570013314350945  1.0000
  H   H21       1.0  0.9037112688786094  0.029989318256212996  0.12376161482801959  1.0000
  H   H22       1.0  0.09628293740902906  0.9700028477375615  0.8762390126301086  1.0000
  H   H23       1.0  0.9679330467076427  0.15102670806385995  0.0543519068379155  1.0000
  H   H24       1.0  0.03206255601371306  0.8489664443440076  0.9456528631954767  1.0000
  H   H25       1.0  0.8887454866773012  0.5478132952339294  0.7239504577096199  1.0000
  H   H26       1.0  0.11125005558545813  0.45219956808078643  0.2760649761030721  1.0000
  H   H27       1.0  0.819607466693867  0.6946499669180285  0.7057036925116335  1.0000
  H   H28       1.0  0.18038567640969205  0.3053629244377235  0.29431073681540454  1.0000
  H   H29       1.0  0.8519325719396349  0.5486953880284275  0.560533036580388  1.0000
  H   H30       1.0  0.14805503754465832  0.45131338719669867  0.4394795310413499  1.0000
  H   H31       1.0  0.14550347019518028  0.3051254925737723  0.6765617426232069  1.0000
  H   H32       1.0  0.8545145968553172  0.6948727772229547  0.32343855403365035  1.0000
  H   H33       1.0  0.027377600529405303  0.15260991802936275  0.5497826566273787  1.0000
  H   H34       1.0  0.9726329853327228  0.8473936758314764  0.45021302095997123  1.0000
  H   H35       1.0  0.21625243354819187  0.2117573217282356  0.5158122923069397  1.0000
  H   H36       1.0  0.7837601773082667  0.788244179294509  0.4841826248245836  1.0000
  C   C1        1.0  0.2720956895584763  0.7073968527199883  0.31989563597965537  1.0000
  C   C2        1.0  0.7279145384248976  0.29260462307058094  0.6801028731023919  1.0000
  C   C3        1.0  0.30335124407670117  0.6233085290414595  0.19066969072059692  1.0000
  C   C4        1.0  0.6966607382191439  0.3766960512334806  0.8093301294420101  1.0000
  C   C5        1.0  0.42530035312759656  0.5389267295473277  0.17402895466418045  1.0000
  C   C6        1.0  0.5747081172860858  0.46107165241353  0.825967324050076  1.0000
  C   C7        1.0  0.5089017530019859  0.5419003844051247  0.2910123092928031  1.0000
  C   C8        1.0  0.4911092889958297  0.4580990498591081  0.7089817195852888  1.0000
  C   C9        1.0  0.4690954441267933  0.6280238642436091  0.41712227753174597  1.0000
  C   C10       1.0  0.5309108060670623  0.3719756047934126  0.5828715809495008  1.0000
  C   C11       1.0  0.5192471885047922  0.8498343559754039  0.8438252767967996  1.0000
  C   C12       1.0  0.48074305499109454  0.15016931108728226  0.1561761116146414  1.0000
  C   C13       1.0  0.6546251643612778  0.895523820694891  0.9390986263812806  1.0000
  C   C14       1.0  0.3453651741343151  0.10447357935557021  0.0609030255283614  1.0000
  C   C15       1.0  0.7819473547788787  0.987720353783061  0.9293096922442031  1.0000
  C   C16       1.0  0.21804243386968378  0.012273911780560802  0.0706925297585599  1.0000
  C   C17       1.0  0.769117001413278  0.02603599158479141  0.8197917193767097  1.0000
  C   C18       1.0  0.23087831759731609  0.9739624007641015  0.1802114450441224  1.0000
  C   C19       1.0  0.6303973097484104  0.9767792671406997  0.7285742325991365  1.0000
  C   C20       1.0  0.36959590229704986  0.023227442439946306  0.27143310592823866  1.0000
  C   C21       1.0  0.46756818767083524  0.45323409825335415  0.03529425756918417  1.0000
  C   C22       1.0  0.5324337366264231  0.5467612139959288  0.9647005396676747  1.0000
  C   C23       1.0  0.9298362664559078  0.040371960987847906  0.029763124753607397  1.0000
  C   C24       1.0  0.07015296583116995  0.9596191913982186  0.9702378287678002  1.0000
  C   C25       1.0  0.07050633115811422  0.6761807493601995  0.6737623386908069  1.0000
  C   C26       1.0  0.9294867285459603  0.32381885792054294  0.3262273740502124  1.0000
  C   C27       1.0  0.8968760492425717  0.613137767287377  0.6673148727529536  1.0000
  C   C28       1.0  0.10311653098505498  0.38687203220010263  0.3326964495182594  1.0000
  C   C29       1.0  0.2232520080550842  0.10859881443415284  0.652617284640975  1.0000
  C   C30       1.0  0.7767513913894674  0.8913912704901962  0.3473773222331857  1.0000
  C   C31       1.0  0.1507246553032076  0.20224388964091844  0.5973303255626661  1.0000
  C   C32       1.0  0.8492874057062139  0.797754476894994  0.40266516166197874  1.0000
  N   N1        1.0  0.3539731202873142  0.7104744993390711  0.43197677469283485  1.0000
  N   N2        1.0  0.6460355453518715  0.28952488838371704  0.5680226847102361  1.0000
  N   N3        1.0  0.5062763328221962  0.8911095691668081  0.7413926377868805  1.0000
  N   N4        1.0  0.49371593892524135  0.10889199440314465  0.2586089094559724  1.0000
  O   O1        1.0  0.08502163556266855  0.7827295496852076  0.6426604701976331  1.0000
  O   O2        1.0  0.9149671984705988  0.2172731735819512  0.3573330984896046  1.0000
  O   O3        1.0  0.1876748377581805  0.6260944976770376  0.7045611158989118  1.0000
  O   O4        1.0  0.8123184236858377  0.373906094056352  0.2954336161053916  1.0000
  O   O5        1.0  0.27270011431987473  0.001071646916940899  0.5605909255255241  1.0000
  O   O6        1.0  0.7273022661130639  0.9989195057357355  0.43940222300207693  1.0000
  O   O7        1.0  0.22835977605938493  0.13157522015173842  0.7755496997508473  1.0000
  O   O8        1.0  0.7716420512693033  0.8684128086687436  0.22444309958263625  1.0000
