data_image0
_chemical_formula_structural       Mn2H30C48N4O10
_chemical_formula_sum              "Mn2 H30 C48 N4 O10"
_cell_length_a       9.336465086255362
_cell_length_b       10.066157257042711
_cell_length_c       11.890010000345526
_cell_angle_alpha    112.63988774880784
_cell_angle_beta     89.999647551071
_cell_angle_gamma    90.00084752939165

_space_group_name_H-M_alt    "P 1"
_space_group_IT_number       1

loop_
  _space_group_symop_operation_xyz
  'x, y, z'

loop_
  _atom_site_type_symbol
  _atom_site_label
  _atom_site_symmetry_multiplicity
  _atom_site_fract_x
  _atom_site_fract_y
  _atom_site_fract_z
  _atom_site_occupancy
  Mn  Mn1       1.0  0.042833530137805595  0.07403590275256988  0.8631692436149905  1.0000
  Mn  Mn2       1.0  0.04283247828837491  0.9259714831414527  0.13682592028009563  1.0000
  H   H1        1.0  0.9526886046291592  0.8771880873191689  0.5828562559346577  1.0000
  H   H2        1.0  0.9526928787275607  0.12279393674435107  0.417138039751741  1.0000
  H   H3        1.0  0.07706685242852268  0.751904972703102  0.38133750907056196  1.0000
  H   H4        1.0  0.0770640399334681  0.24808349821466172  0.618660573002046  1.0000
  H   H5        1.0  0.3436270822598928  0.7520646864589509  0.3740735715129802  1.0000
  H   H6        1.0  0.3436284943688932  0.24794030975159836  0.6259269372253158  1.0000
  H   H7        1.0  0.5773603004225335  0.8355247644152469  0.4878488766320359  1.0000
  H   H8        1.0  0.5773591353338432  0.16447693602481908  0.5121527984386276  1.0000
  H   H9        1.0  0.7048553675386343  0.9753480048463313  0.6827960672363388  1.0000
  H   H10       1.0  0.7048545788277849  0.024648961471370995  0.3172076565316573  1.0000
  H   H11       1.0  0.6934151593645054  0.1300111724132265  0.904009305488735  1.0000
  H   H12       1.0  0.6934156782735813  0.8699888678345502  0.09599631679621003  1.0000
  H   H13       1.0  0.273216210160065  0.218450700517657  0.0724226745317509  1.0000
  H   H14       1.0  0.27322375911039387  0.7815318125730144  0.9275775683126355  1.0000
  H   H15       1.0  0.026272185705074898  0.5701015581605163  0.9002450754066799  1.0000
  H   H16       1.0  0.026271008385194205  0.4299152888810056  0.09975829991306276  1.0000
  H   H17       1.0  0.6912227612076193  0.7291928454330615  0.7376459592167565  1.0000
  H   H18       1.0  0.6912166928453373  0.270810397217815  0.2623531486498081  1.0000
  H   H19       1.0  0.6872638822038654  0.28472316086782706  0.7058120177846233  1.0000
  H   H20       1.0  0.6872710813121471  0.7152843317571395  0.29419354138484266  1.0000
  H   H21       1.0  0.5503116454340287  0.6278488961151183  0.5790143752518588  1.0000
  H   H22       1.0  0.5503091571187609  0.3721492104149533  0.42098289351329754  1.0000
  H   H23       1.0  0.4548224733256633  0.6792217188075327  0.718944706515039  1.0000
  H   H24       1.0  0.4548191970628324  0.3207804787029858  0.2810501500298273  1.0000
  H   H25       1.0  0.20716094430154897  0.6383796498504353  0.7237480941182568  1.0000
  H   H26       1.0  0.2071594285565936  0.361613811806663  0.2762493084743269  1.0000
  H   H27       1.0  0.9770849785165012  0.5680879235569448  0.6123028729626155  1.0000
  H   H28       1.0  0.9770815638717777  0.4319008882344591  0.387695201321911  1.0000
  H   H29       1.0  0.5419187459584973  0.25180770458838714  0.08983577860759343  1.0000
  H   H30       1.0  0.541926970981315  0.7481805953846389  0.9101726299225062  1.0000
  C   C1        1.0  0.06932432205600492  0.8767305447867455  0.5760169848638553  1.0000
  C   C2        1.0  0.0693253364148063  0.1232610514691501  0.42397963055102394  1.0000
  C   C3        1.0  0.1390293863263352  0.8064946929900074  0.4637455799128886  1.0000
  C   C4        1.0  0.1390349208668127  0.19350107593296428  0.5362520614389084  1.0000
  C   C5        1.0  0.28691085766243424  0.8070721841606883  0.4596417256560911  1.0000
  C   C6        1.0  0.28691313748105773  0.19293096730648074  0.5403601360263721  1.0000
  C   C7        1.0  0.364969459874402  0.8795314720691676  0.5679045279881619  1.0000
  C   C8        1.0  0.3649735788918419  0.12047165997448414  0.432096111277481  1.0000
  C   C9        1.0  0.5181613336089299  0.8894938605236715  0.5722936863295303  1.0000
  C   C10       1.0  0.5181599728815841  0.11050381082818454  0.42770359497392  1.0000
  C   C11       1.0  0.5885039873323095  0.9653006905171679  0.6787357250873426  1.0000
  C   C12       1.0  0.5885011848540813  0.0347054642240607  0.321272395399177  1.0000
  C   C13       1.0  0.5105051650618222  0.0362731456465184  0.7896716273085717  1.0000
  C   C14       1.0  0.5105030653749267  0.9637265741372542  0.21032804092865112  1.0000
  C   C15       1.0  0.5773604496834749  0.11872421640018163  0.9014075819207933  1.0000
  C   C16       1.0  0.5773729099667476  0.8812796348654074  0.0985998408269991  1.0000
  C   C17       1.0  0.34381277460180115  0.16844301212547208  0.9943043141249247  1.0000
  C   C18       1.0  0.3438208893410533  0.8315490681932258  0.005697027647649061  1.0000
  C   C19       1.0  0.3588823918422364  0.0261198560790845  0.7889140633227498  1.0000
  C   C20       1.0  0.35888580356663613  0.9738853456359916  0.2110889622647106  1.0000
  C   C21       1.0  0.2850999489897674  0.9479504843567526  0.6765228716503843  1.0000
  C   C22       1.0  0.2851038323037329  0.0520472620974601  0.3234738718016814  1.0000
  C   C23       1.0  0.9407727190373267  0.2930437334661491  0.8203996259172966  1.0000
  C   C24       1.0  0.9407699777833328  0.7069628887835788  0.179595179959854  1.0000
  C   C25       1.0  0.865850331855775  0.41463281410422337  0.8016109496733536  1.0000
  C   C26       1.0  0.8658401470968614  0.5853760197096135  0.1983933478775199  1.0000
  C   C27       1.0  0.9275641096243774  0.5519699821884955  0.847771172208816  1.0000
  C   C28       1.0  0.9275628080406121  0.4480407660904717  0.15222672484880206  1.0000
  C   C29       1.0  0.8624922846640855  0.6639808229738192  0.8250765138407984  1.0000
  C   C30       1.0  0.8624868747955572  0.33602796407855356  0.17493114875087198  1.0000
  C   C31       1.0  0.7355813756909271  0.639845049272253  0.7563861959525581  1.0000
  C   C32       1.0  0.7355822359977536  0.36015986956312673  0.24361492751984307  1.0000
  C   C33       1.0  0.6707197160595155  0.5039504089287236  0.7155685958662517  1.0000
  C   C34       1.0  0.670720280835546  0.4960525532248283  0.2844380883923705  1.0000
  C   C35       1.0  0.7365552083327102  0.3910376785942232  0.737709233551314  1.0000
  C   C36       1.0  0.7365556071041154  0.6089661757103286  0.26229490223264657  1.0000
  C   C37       1.0  0.93206349140015  0.8088692125191769  0.8699113729889304  1.0000
  C   C38       1.0  0.9320614784109935  0.19113729084308767  0.130085959083722  1.0000
  C   C39       1.0  0.47581505571552896  0.5892109300320385  0.6314999775693052  1.0000
  C   C40       1.0  0.4758103843284047  0.41078724413453926  0.36849851222356717  1.0000
  C   C41       1.0  0.33784086839421695  0.5397208655928977  0.5634482695111416  1.0000
  C   C42       1.0  0.3378396635202562  0.46027113550131554  0.4365488699271438  1.0000
  C   C43       1.0  0.2074853786423034  0.577320411314197  0.6254074151170386  1.0000
  C   C44       1.0  0.2074829910445999  0.4226698252832719  0.3745897751596701  1.0000
  C   C45       1.0  0.0778602378470836  0.5383510988589392  0.5628533021459816  1.0000
  C   C46       1.0  0.07786119224613229  0.4616363071230865  0.4371427467095756  1.0000
  C   C47       1.0  0.4931045819007096  0.1856731149607924  0.0031906776590062956  1.0000
  C   C48       1.0  0.49310246866421176  0.8143134528472873  0.9968047848742357  1.0000
  N   N1        1.0  0.13965514910642438  0.9454981362842574  0.6796048369615021  1.0000
  N   N2        1.0  0.13966230903356086  0.05449764178968761  0.32039112227987937  1.0000
  N   N3        1.0  0.2780692634777894  0.09032823748431437  0.890411496997487  1.0000
  N   N4        1.0  0.27807245051884877  0.9096618805463238  0.10957942817863404  1.0000
  O   O1        1.0  0.8903387553183465  0.9019131470404671  0.8283816314039354  1.0000
  O   O2        1.0  0.8903402857700724  0.09809601799253188  0.17162349752727823  1.0000
  O   O3        1.0  0.0349283335960422  0.8321068825986868  0.9462675082928982  1.0000
  O   O4        1.0  0.034921196279661594  0.16790470139534364  0.053729903782780794  1.0000
  O   O5        1.0  0.0704593682436183  0.30687153180083027  0.8542007266619932  1.0000
  O   O6        1.0  0.07043953569486662  0.6931351579004499  0.14577809769442493  1.0000
  O   O7        1.0  0.87127553680984  0.1754920883759397  0.8002716158641334  1.0000
  O   O8        1.0  0.8712702282892409  0.8245243494793612  0.1997452280522154  1.0000
  O   O9        1.0  0.542432392702267  0.47210926558202704  0.6542416575178649  1.0000
  O   O10       1.0  0.542434053331334  0.5278973439445735  0.34576178637824023  1.0000
