data_image0
_chemical_formula_structural       Zn4H12C16N12O16
_chemical_formula_sum              "Zn4 H12 C16 N12 O16"
_cell_length_a       4.638888165020497
_cell_length_b       10.772566279046567
_cell_length_c       14.21975115001128
_cell_angle_alpha    89.9999117463072
_cell_angle_beta     89.99988818957144
_cell_angle_gamma    90.00032388773121

_space_group_name_H-M_alt    "P 1"
_space_group_IT_number       1

loop_
  _space_group_symop_operation_xyz
  'x, y, z'

loop_
  _atom_site_type_symbol
  _atom_site_label
  _atom_site_symmetry_multiplicity
  _atom_site_fract_x
  _atom_site_fract_y
  _atom_site_fract_z
  _atom_site_occupancy
  Zn  Zn1       1.0  0.714857194975366  0.24728699023160772  0.35113095366161673  1.0000
  Zn  Zn2       1.0  0.2851380756961106  0.7472877318413464  0.6488680735401218  1.0000
  Zn  Zn3       1.0  0.7148589521339872  0.7472869043360291  0.1488690350339397  1.0000
  Zn  Zn4       1.0  0.2851406299154107  0.24728781774215497  0.8511299921664559  1.0000
  H   H1        1.0  0.3853226409722339  0.4840657408752662  0.43439679153918587  1.0000
  H   H2        1.0  0.6146800615819005  0.9840655941690173  0.5656026624947116  1.0000
  H   H3        1.0  0.38532275134385696  0.9840658242045565  0.0656045324706369  1.0000
  H   H4        1.0  0.6146756398302103  0.484065510833787  0.934395624811799  1.0000
  H   H5        1.0  0.37440153070034654  0.7083522131578806  0.3402360851319557  1.0000
  H   H6        1.0  0.625599693902153  0.20835155614373244  0.6597643940151983  1.0000
  H   H7        1.0  0.3744009431402731  0.20835268798538206  0.15976486429759262  1.0000
  H   H8        1.0  0.6255938143996431  0.7083510813098215  0.8402342083571952  1.0000
  H   H9        1.0  0.10039886100225462  0.21362185247340892  0.524965430381144  1.0000
  H   H10       1.0  0.8996024330519532  0.7136216523991337  0.47503504261399604  1.0000
  H   H11       1.0  0.10040293603915981  0.7136164622661526  0.9750356026729179  1.0000
  H   H12       1.0  0.8995983579761956  0.2136214729021902  0.024965573572657704  1.0000
  C   C1        1.0  0.47823535588509714  0.5081586028566534  0.3668800958346878  1.0000
  C   C2        1.0  0.5217632303763154  0.008159604795672203  0.6331192105220255  1.0000
  C   C3        1.0  0.47823493116401045  0.008158203551864997  0.1331203193849575  1.0000
  C   C4        1.0  0.5217593437011345  0.5081572192434862  0.8668789869747258  1.0000
  C   C5        1.0  0.7087132670467966  0.4888460676599706  0.23674976930909963  1.0000
  C   C6        1.0  0.29128734281060537  0.9888447351383862  0.7632496791456376  1.0000
  C   C7        1.0  0.708712169443757  0.9888466775778328  0.2632506444668081  1.0000
  C   C8        1.0  0.29128628473080204  0.4888450535018266  0.7367488039880642  1.0000
  C   C9        1.0  0.47287289398172316  0.621467764280105  0.31924277014766034  1.0000
  C   C10       1.0  0.5271250298817307  0.1214677541172549  0.6807585136754002  1.0000
  C   C11       1.0  0.4728721781079912  0.12146726815700502  0.1807582193830228  1.0000
  C   C12       1.0  0.5271279014468959  0.6214673219619159  0.8192402514511559  1.0000
  C   C13       1.0  0.2414135430164777  0.22895826440467454  0.4635458779225702  1.0000
  C   C14       1.0  0.758585797466779  0.7289575975854562  0.5364538739226816  1.0000
  C   C15       1.0  0.24142029859990544  0.7289565504173865  0.0364544270278273  1.0000
  C   C16       1.0  0.7585833532508559  0.22895838329262835  0.9635467313109985  1.0000
  N   N1        1.0  0.6285834951751639  0.4249548948340944  0.3141604689408836  1.0000
  N   N2        1.0  0.3714184283542039  0.9249548422144261  0.6858397573458248  1.0000
  N   N3        1.0  0.6285871820679888  0.924955662085246  0.18584077257104073  1.0000
  N   N4        1.0  0.3714147414635321  0.424954074963985  0.8141587504684794  1.0000
  N   N5        1.0  0.8660525581508906  0.43391791817667524  0.16236800062429776  1.0000
  N   N6        1.0  0.13395379489066528  0.9339197661267918  0.8376329184437594  1.0000
  N   N7        1.0  0.8660553173219867  0.9339183769282968  0.3376309727884744  1.0000
  N   N8        1.0  0.1339445686591461  0.4339193073694645  0.6623678365400352  1.0000
  N   N9        1.0  0.618936075562509  0.6082455490396229  0.2368109100779137  1.0000
  N   N10       1.0  0.3810638297204889  0.10824316062267057  0.7631896859342078  1.0000
  N   N11       1.0  0.6189348558883624  0.1082458136673594  0.2631893006732541  1.0000
  N   N12       1.0  0.38106289372220914  0.6082447525615747  0.7368098888440855  1.0000
  O   O1        1.0  0.9628810474898941  0.32664367633235974  0.175602441904914  1.0000
  O   O2        1.0  0.03712173610198731  0.8266462446829692  0.8243971959003744  1.0000
  O   O3        1.0  0.9628795761611642  0.826643233691634  0.32439729968343306  1.0000
  O   O4        1.0  0.03711889604667821  0.32664575903455534  0.6756023381237384  1.0000
  O   O5        1.0  0.8979940239960629  0.49385639668332715  0.0878982980426031  1.0000
  O   O6        1.0  0.10200665190161831  0.9938570875438726  0.9121025510563001  1.0000
  O   O7        1.0  0.8979898609570824  0.9938567040762791  0.4120998822606126  1.0000
  O   O8        1.0  0.1020065035730937  0.4938577084310439  0.5878995603447094  1.0000
  O   O9        1.0  0.1312280293127444  0.2479694673644062  0.3828890747343152  1.0000
  O   O10       1.0  0.8687758730982083  0.7479689037894276  0.6171106549159617  1.0000
  O   O11       1.0  0.1312278248874179  0.7479703742947165  0.1171112766462912  1.0000
  O   O12       1.0  0.8687717661474325  0.24796892513637664  0.8828898594991585  1.0000
  O   O13       1.0  0.5121292316111763  0.22873764745835248  0.4769032708261776  1.0000
  O   O14       1.0  0.48787010596041835  0.7287363513882357  0.523096481276994  1.0000
  O   O15       1.0  0.5121382245037509  0.7287331757695696  0.023096865782115103  1.0000
  O   O16       1.0  0.4878675801081087  0.22873710994849017  0.9769035895683943  1.0000
