data_image0
_chemical_formula_structural       Co3H48C72N30
_chemical_formula_sum              "Co3 H48 C72 N30"
_cell_length_a       9.241271828686665
_cell_length_b       16.083463728733754
_cell_length_c       15.628989901505454
_cell_angle_alpha    72.4764748983124
_cell_angle_beta     75.30777547442307
_cell_angle_gamma    76.833136166053

_space_group_name_H-M_alt    "P 1"
_space_group_IT_number       1

loop_
  _space_group_symop_operation_xyz
  'x, y, z'

loop_
  _atom_site_type_symbol
  _atom_site_label
  _atom_site_symmetry_multiplicity
  _atom_site_fract_x
  _atom_site_fract_y
  _atom_site_fract_z
  _atom_site_occupancy
  Co  Co1       1.0  0.4999972829348637  0.5000019206439744  0.9999987100311785  1.0000
  Co  Co2       1.0  3.184220744900483e-06  7.712318818979168e-07  0.4999974942511827  1.0000
  Co  Co3       1.0  0.9999984619890726  0.49999973759910427  0.4999995927339498  1.0000
  H   H1        1.0  0.9819871945949005  0.6773072732966768  0.02563072082055832  1.0000
  H   H2        1.0  0.9807582923474671  0.7303685950103614  0.16328095894382233  1.0000
  H   H3        1.0  0.21209289117018668  0.6802001742413921  0.2337279135799406  1.0000
  H   H4        1.0  0.4345433813943273  0.5822121177040956  0.16549805219663932  1.0000
  H   H5        1.0  0.18719745931156945  0.3775602106020415  0.6284933355775593  1.0000
  H   H6        1.0  0.2796999043131976  0.38387669567439514  0.7627669047638079  1.0000
  H   H7        1.0  0.9813452471835689  0.6331043406704563  0.7578541958603041  1.0000
  H   H8        1.0  0.9056333246613308  0.6190954887900941  0.6210066738361704  1.0000
  H   H9        1.0  0.9562534784971106  0.007672313613404895  0.8206014433583916  1.0000
  H   H10       1.0  0.12062892343536191  0.12414445645055848  0.789134614772621  1.0000
  H   H11       1.0  0.23093707420483858  0.19376216573780172  0.6233322660165966  1.0000
  H   H12       1.0  0.1812648089071018  0.14201294910299106  0.5002778596509218  1.0000
  H   H13       1.0  0.6222837710690213  0.6557009060068708  0.006900120526772484  1.0000
  H   H14       1.0  0.7325638755953464  0.7897732252513022  0.907806201135017  1.0000
  H   H15       1.0  0.6497275947259311  0.7300195699176154  0.6749870403283823  1.0000
  H   H16       1.0  0.543014682245726  0.5986304355245479  0.7830135413805549  1.0000
  H   H17       1.0  0.4892167672551862  0.41867773629425653  0.6467544700472627  1.0000
  H   H18       1.0  0.5738353646808533  0.2528149924754999  0.6751304122146706  1.0000
  H   H19       1.0  0.8512289664922079  0.19609358196841947  0.6290417558948391  1.0000
  H   H20       1.0  0.03074378407719538  0.3047485910212799  0.5550727985515422  1.0000
  H   H21       1.0  0.3563523583852586  0.9715544977403708  0.4638994589590693  1.0000
  H   H22       1.0  0.577434611363337  0.8497823356520089  0.4784566800693497  1.0000
  H   H23       1.0  0.26096292094430135  0.6672515909040442  0.6074204145096048  1.0000
  H   H24       1.0  0.05181539691812279  0.796849869909181  0.5890887317940638  1.0000
  H   H25       1.0  0.01800015019582448  0.32269031949825694  0.9743790023937322  1.0000
  H   H26       1.0  0.01924290675051309  0.2696236884548994  0.8367320858310875  1.0000
  H   H27       1.0  0.7879245709555959  0.31979758599940317  0.7662695136883073  1.0000
  H   H28       1.0  0.5654665309090134  0.41779232196467575  0.8344921293030296  1.0000
  H   H29       1.0  0.8128019663041002  0.6224341773037594  0.37150975225772936  1.0000
  H   H30       1.0  0.7202928023057921  0.616117693657756  0.23723592181273287  1.0000
  H   H31       1.0  0.01864591571379749  0.36689143422285747  0.24214333253098635  1.0000
  H   H32       1.0  0.09437440034083977  0.3809010096959611  0.3789862074423453  1.0000
  H   H33       1.0  0.04373856899286466  0.9923320525858941  0.1793940288336912  1.0000
  H   H34       1.0  0.8793778908653566  0.8758513537511377  0.2108605295312032  1.0000
  H   H35       1.0  0.7690791038929985  0.8062322848361845  0.3766663429234994  1.0000
  H   H36       1.0  0.8187518878850851  0.8579835281629755  0.49971686681817556  1.0000
  H   H37       1.0  0.3777036499933074  0.3443119229786191  0.9931031279994968  1.0000
  H   H38       1.0  0.26743861246376344  0.2102337767494262  0.09218946128813603  1.0000
  H   H39       1.0  0.3502625064759499  0.2699761196610594  0.32501707340742303  1.0000
  H   H40       1.0  0.4569730414976901  0.40136977037357  0.21699790469246247  1.0000
  H   H41       1.0  0.5107807732674559  0.5813193010669764  0.3532474737043998  1.0000
  H   H42       1.0  0.426164349868465  0.7471821410016587  0.32486413439524137  1.0000
  H   H43       1.0  0.14876791287930752  0.8039055706346332  0.3709494191199738  1.0000
  H   H44       1.0  0.9692546333897594  0.6952491842998754  0.44492303314326165  1.0000
  H   H45       1.0  0.6436541521253573  0.028446453353069497  0.5361057164067375  1.0000
  H   H46       1.0  0.42257178753656893  0.15021916045633077  0.5215573081524596  1.0000
  H   H47       1.0  0.7390376077722891  0.33275068598688046  0.3925839928703353  1.0000
  H   H48       1.0  0.9481895642446714  0.20315247502468028  0.4109105038812401  1.0000
  C   C1        1.0  0.19871280171722105  0.5218384290451041  0.8433198652431386  1.0000
  C   C2        1.0  0.21940673288071366  0.5677142268105156  0.950373121661343  1.0000
  C   C3        1.0  0.20659365131837856  0.6041609394611243  0.025802256908775717  1.0000
  C   C4        1.0  0.07853650561771992  0.6592612490907896  0.059351812679302896  1.0000
  C   C5        1.0  0.07909489324811853  0.6877190783180822  0.13485158326912483  1.0000
  C   C6        1.0  0.20728595989701395  0.6598002658971821  0.17435959118871838  1.0000
  C   C7        1.0  0.3315496507467159  0.6048880471782638  0.1372288170023452  1.0000
  C   C8        1.0  0.1458860053479896  0.43355736660532773  0.6584612001603318  1.0000
  C   C9        1.0  0.19716474346869012  0.4376457674736827  0.7327599649214775  1.0000
  C   C10       1.0  0.14222452220041504  0.5110611761307665  0.7695655063765372  1.0000
  C   C11       1.0  0.030669417948850294  0.5759356272350828  0.7303449824998579  1.0000
  C   C12       1.0  0.9877098954874696  0.5683073158973072  0.6547451462217778  1.0000
  C   C13       1.0  0.7729377724030614  0.8459254036771142  0.7261559421336586  1.0000
  C   C14       1.0  0.8952828614912108  0.9503155615584828  0.6878155256331056  1.0000
  C   C15       1.0  0.9850409896042507  0.015750379712379498  0.6783123470888412  1.0000
  C   C16       1.0  0.0093394086444789  0.03996208541919089  0.7515128657628691  1.0000
  C   C17       1.0  0.10012091215953228  0.10376262640708228  0.7333213099138474  1.0000
  C   C18       1.0  0.1630887878546901  0.14136216877412977  0.6423038667072234  1.0000
  C   C19       1.0  0.13490612491124657  0.11380186181899889  0.5723932682238058  1.0000
  C   C20       1.0  0.6294174264875637  0.6748528012926938  0.9329919642733485  1.0000
  C   C21       1.0  0.6901267110101725  0.7490080630529832  0.8783820511676409  1.0000
  C   C22       1.0  0.7002212135965137  0.7709003841558868  0.7832115160263626  1.0000
  C   C23       1.0  0.6449995346914434  0.7160810900997703  0.7482263348141343  1.0000
  C   C24       1.0  0.5860808658479683  0.6426503104588405  0.8083533807675778  1.0000
  C   C25       1.0  0.5585389103209834  0.6714345437992434  0.5470213933918301  1.0000
  C   C26       1.0  0.6722786336942123  0.5407746191091575  0.5681865365385264  1.0000
  C   C27       1.0  0.7141168434034668  0.4457580807553184  0.587951513743718  1.0000
  C   C28       1.0  0.6072146810701753  0.3890123950717381  0.628823849319609  1.0000
  C   C29       1.0  0.655030365925725  0.29840557414850377  0.6441053402043408  1.0000
  C   C30       1.0  0.8091651582270102  0.26654211344476414  0.6184884043816081  1.0000
  C   C31       1.0  0.9099306546835207  0.3263639960112954  0.5775122774071733  1.0000
  C   C32       1.0  0.3398020768011206  0.9030615525961208  0.4957790387308306  1.0000
  C   C33       1.0  0.46283068814584266  0.8349276941303359  0.503534124691889  1.0000
  C   C34       1.0  0.43719235259313644  0.7473454103233551  0.5428939171312379  1.0000
  C   C35       1.0  0.28599206879949424  0.7339942531855856  0.5760240836515605  1.0000
  C   C36       1.0  0.170205232026035  0.8058863310262722  0.5656462954589045  1.0000
  C   C37       1.0  0.8012746940675439  0.4781585607801019  0.15668553565193832  1.0000
  C   C38       1.0  0.7805823639966009  0.43228877685655925  0.0496257638628137  1.0000
  C   C39       1.0  0.7934019685520614  0.39584273198340014  0.9741960801512802  1.0000
  C   C40       1.0  0.921459932024071  0.3407396958629221  0.9406536123036489  1.0000
  C   C41       1.0  0.9209026416483326  0.31227796732241586  0.8651497189772784  1.0000
  C   C42       1.0  0.792722735892653  0.3402007647536607  0.8256394700458644  1.0000
  C   C43       1.0  0.6684543322003548  0.3951137088223576  0.8627649836351948  1.0000
  C   C44       1.0  0.8541094671324885  0.566439037904338  0.3415386863718125  1.0000
  C   C45       1.0  0.8028278009038842  0.5623492413867196  0.2672459009637649  1.0000
  C   C46       1.0  0.857764444165511  0.4889345357636685  0.23043685313546558  1.0000
  C   C47       1.0  0.9693223442115553  0.4240581234882797  0.2696562580704551  1.0000
  C   C48       1.0  0.012290757894248775  0.43169046446790565  0.3452503448891093  1.0000
  C   C49       1.0  0.22706883846587528  0.1540750189599365  0.27383913736563403  1.0000
  C   C50       1.0  0.1047168231251234  0.049685548267262895  0.31217719987409953  1.0000
  C   C51       1.0  0.014960962881943317  0.9842546204341502  0.3216852732895389  1.0000
  C   C52       1.0  0.9906589395061616  0.96003972420538  0.24847665429243188  1.0000
  C   C53       1.0  0.8998802007435672  0.8962337161993759  0.26668349870578806  1.0000
  C   C54       1.0  0.8369252585108669  0.8586356749724544  0.3576870148790974  1.0000
  C   C55       1.0  0.8651031476367026  0.8861971777789323  0.4276069391687827  1.0000
  C   C56       1.0  0.3705767209996721  0.3251560830348907  0.06701080059335145  1.0000
  C   C57       1.0  0.30987187635149377  0.25099694608599077  0.12161479707611277  1.0000
  C   C58       1.0  0.29978057844530775  0.22910130056659733  0.2167877572371495  1.0000
  C   C59       1.0  0.35499501965935554  0.28391856935709114  0.2517765596616214  1.0000
  C   C60       1.0  0.4139114564122224  0.35735327062699446  0.19165188222093116  1.0000
  C   C61       1.0  0.44146144669885257  0.328564434226159  0.4529833838627297  1.0000
  C   C62       1.0  0.3277194817846691  0.4592243621514527  0.43181793979469774  1.0000
  C   C63       1.0  0.2858812608230322  0.5542409170638152  0.41205167957899386  1.0000
  C   C64       1.0  0.39278902037146673  0.610982672125978  0.3711777476249907  1.0000
  C   C65       1.0  0.34496413778936835  0.7015941598217026  0.3558917807241145  1.0000
  C   C66       1.0  0.19083698824063325  0.7334543558726381  0.3815066113672287  1.0000
  C   C67       1.0  0.09006588894278876  0.6736364122067755  0.4224836932145237  1.0000
  C   C68       1.0  0.6602031310009338  0.09694004862058142  0.5042267802146084  1.0000
  C   C69       1.0  0.5371760408730779  0.16507255464225068  0.4964744264177837  1.0000
  C   C70       1.0  0.5628072541696197  0.2526561948417338  0.4571114702634985  1.0000
  C   C71       1.0  0.714011981661848  0.2660074034639165  0.42397741504905173  1.0000
  C   C72       1.0  0.8297948821786959  0.19411731738932056  0.43435392645433524  1.0000
  N   N1        1.0  0.3493854062789836  0.510582856016306  0.9312045213942213  1.0000
  N   N2        1.0  0.3365546044689935  0.47976224755429797  0.8629544563024893  1.0000
  N   N3        1.0  0.12242451924092287  0.5775834418602341  0.8961189157846405  1.0000
  N   N4        1.0  0.3330522735860555  0.5771839093092976  0.06371354422116582  1.0000
  N   N5        1.0  0.04550837039242586  0.49897970392603247  0.6173156676162959  1.0000
  N   N6        1.0  0.8811889509090917  0.9361092955783831  0.6090346287799093  1.0000
  N   N7        1.0  0.8019988443292403  0.8689792460910581  0.6329387983826391  1.0000
  N   N8        1.0  0.8286941114851911  0.895665892624656  0.762841381825318  1.0000
  N   N9        1.0  0.047730114181646896  0.05166735444633729  0.589090750022109  1.0000
  N   N10       1.0  0.5787314085562444  0.6214697526953685  0.8993811033202591  1.0000
  N   N11       1.0  0.7805076648531822  0.5924597500946405  0.5273121895841868  1.0000
  N   N12       1.0  0.7083137101024872  0.6772357903999762  0.512989138546935  1.0000
  N   N13       1.0  0.5314613258910156  0.5870899418716887  0.582344936462526  1.0000
  N   N14       1.0  0.8641466507562113  0.41449018651215397  0.5620890653687239  1.0000
  N   N15       1.0  0.19491296826589635  0.8895142189441073  0.525160538063389  1.0000
  N   N16       1.0  0.6506081736802471  0.4894201411803536  0.06879496597260011  1.0000
  N   N17       1.0  0.663436584757285  0.5202374208950004  0.1370476660386473  1.0000
  N   N18       1.0  0.8775677991951126  0.4224162125525693  0.10388431927504632  1.0000
  N   N19       1.0  0.6669476108579815  0.42282045798567214  0.9362820189376961  1.0000
  N   N20       1.0  0.9544958740503589  0.501013421894335  0.3826832264547733  1.0000
  N   N21       1.0  0.1188156031700629  0.06389047764859157  0.39095967651037716  1.0000
  N   N22       1.0  0.19800834329797817  0.13101918549308783  0.3670574272746592  1.0000
  N   N23       1.0  0.17130837837596147  0.10433717442378307  0.23715289417427243  1.0000
  N   N24       1.0  0.9522744155907148  0.9483363868499735  0.410902375670723  1.0000
  N   N25       1.0  0.42126370769637594  0.37853580217167593  0.10062442715012304  1.0000
  N   N26       1.0  0.2194885673347073  0.4075379456691124  0.47268975624184845  1.0000
  N   N27       1.0  0.2916856799540001  0.32276258213367015  0.48701148668037314  1.0000
  N   N28       1.0  0.46853533588527096  0.41291029248191086  0.41766450576954367  1.0000
  N   N29       1.0  0.13585533346500964  0.585506902333492  0.43790898968880737  1.0000
  N   N30       1.0  0.805093133359044  0.11048809539473578  0.4748410933409701  1.0000
