data_image0
_chemical_formula_structural       Ca2H20C20N12O10
_chemical_formula_sum              "Ca2 H20 C20 N12 O10"
_cell_length_a       6.327453400779891
_cell_length_b       9.953721459694986
_cell_length_c       11.70757871869223
_cell_angle_alpha    110.37029439370482
_cell_angle_beta     105.66776797409995
_cell_angle_gamma    90.01980005214946

_space_group_name_H-M_alt    "P 1"
_space_group_IT_number       1

loop_
  _space_group_symop_operation_xyz
  'x, y, z'

loop_
  _atom_site_type_symbol
  _atom_site_label
  _atom_site_symmetry_multiplicity
  _atom_site_fract_x
  _atom_site_fract_y
  _atom_site_fract_z
  _atom_site_occupancy
  Ca  Ca1       1.0  0.713304108824907  0.25001950420376323  0.9999813138493395  1.0000
  Ca  Ca2       1.0  0.2866970623933724  0.7499806919856341  1.901950096079656e-05  1.0000
  H   H1        1.0  0.16644998174528064  0.3072403241249049  0.9692548692832119  1.0000
  H   H2        1.0  0.1972168646874408  0.19254783415588866  0.030870363410130625  1.0000
  H   H3        1.0  0.8335567474547501  0.6927534251953136  0.030745257834254844  1.0000
  H   H4        1.0  0.8027925307755266  0.8074524164679747  0.9691354525066131  1.0000
  H   H5        1.0  0.9302675787427787  0.28484071584086484  0.56804654248063  1.0000
  H   H6        1.0  0.3616835107702129  0.21520729020097215  0.4317835257614746  1.0000
  H   H7        1.0  0.06971593299383022  0.7151410978542929  0.43194162393237434  1.0000
  H   H8        1.0  0.6383111049747681  0.7848035765135323  0.5682095512522025  1.0000
  H   H9        1.0  0.9623626372552109  0.20574874049469125  0.7544960005317592  1.0000
  H   H10       1.0  0.20755250908488418  0.2940439377396089  0.24522308538413276  1.0000
  H   H11       1.0  0.037640386709561796  0.7942633001910907  0.24550718116670114  1.0000
  H   H12       1.0  0.792420091532577  0.705962594903241  0.7547663882766714  1.0000
  H   H13       1.0  0.2640687649182638  0.556195127515636  0.689790311907295  1.0000
  H   H14       1.0  0.5738293157875062  0.9436047101186774  0.3103471804060476  1.0000
  H   H15       1.0  0.7359437240546498  0.44380399174458085  0.3102096467067171  1.0000
  H   H16       1.0  0.42617216587324686  0.056386918669986096  0.689655839884246  1.0000
  H   H17       1.0  0.35317039743048884  0.5509472164132989  0.55383895294883  1.0000
  H   H18       1.0  0.7991661576481801  0.9491496952478972  0.44625713595505806  1.0000
  H   H19       1.0  0.6468230862023673  0.4490562419513183  0.4461654789263393  1.0000
  H   H20       1.0  0.20085274506462267  0.05084839842399451  0.5537477289102314  1.0000
  C   C1        1.0  0.37578333330759506  0.42281903076502664  0.8469945868293537  1.0000
  C   C2        1.0  0.5284540912531881  0.07704828318151162  0.15289327633892924  1.0000
  C   C3        1.0  0.6242276581529892  0.5771810963432743  0.15299861275679671  1.0000
  C   C4        1.0  0.4715355817917767  0.9229412319289525  0.847113393387481  1.0000
  C   C5        1.0  0.533721108763089  0.39042483534942823  0.767802242529001  1.0000
  C   C6        1.0  0.76559457013456  0.10933946829513273  0.23206239569054793  1.0000
  C   C7        1.0  0.4663024394265065  0.60958191718494  0.2322092243053717  1.0000
  C   C8        1.0  0.23439135238024988  0.8906575653071513  0.7679441995311221  1.0000
  C   C9        1.0  0.5178102353744832  0.4391593423978863  0.6641819768323388  1.0000
  C   C10       1.0  0.8531873333440885  0.060792486187907016  0.33577977520450025  1.0000
  C   C11       1.0  0.48218504044393035  0.5608451455885943  0.3358178890415503  1.0000
  C   C12       1.0  0.14681498575556162  0.9392045134806967  0.6642232152534364  1.0000
  C   C13       1.0  0.8163201929323163  0.31648770426136247  0.6257490078169283  1.0000
  C   C14       1.0  0.19003323375372358  0.18355783648736695  0.374118879510732  1.0000
  C   C15       1.0  0.18367207309861297  0.6835081105490702  0.37424278144293044  1.0000
  C   C16       1.0  0.8099666239273374  0.8164444870869333  0.6258793169300532  1.0000
  C   C17       1.0  0.8347561840853712  0.27154711481458804  0.7280088051792434  1.0000
  C   C18       1.0  0.10629150682324709  0.2284227703600692  0.27183152501740443  1.0000
  C   C19       1.0  0.16525007512274928  0.7284541495707729  0.2719908693018382  1.0000
  C   C20       1.0  0.8936893149856856  0.7715838083170895  0.7281625741571034  1.0000
  N   N1        1.0  0.6618672862228079  0.3982374121803857  0.5932718977402658  1.0000
  N   N2        1.0  0.0680252121185561  0.10187904471573012  0.406698153654105  1.0000
  N   N3        1.0  0.33812973648625183  0.6017573325542145  0.4067202730466022  1.0000
  N   N4        1.0  0.9319828514879442  0.8981232828921079  0.593300383036663  1.0000
  N   N5        1.0  0.36315469532806327  0.5219675921702988  0.6316414022114926  1.0000
  N   N6        1.0  0.7309986714149446  0.9781950535506357  0.3685428821119673  1.0000
  N   N7        1.0  0.6368567093776248  0.47804554688538303  0.3683641706970704  1.0000
  N   N8        1.0  0.2690108444089745  0.021795493335375202  0.6314592845209361  1.0000
  N   N9        1.0  0.6923867284784463  0.30892884399516174  0.7971943003797223  1.0000
  N   N10       1.0  0.894779284606244  0.19094058903606034  0.202675509259393  1.0000
  N   N11       1.0  0.30763385216536676  0.6910799998367524  0.20281136187360718  1.0000
  N   N12       1.0  0.10519755179932132  0.8090509520505977  0.7973187768062431  1.0000
  O   O1        1.0  0.24629853377695093  0.5190402677145658  0.8384857668141734  1.0000
  O   O2        1.0  0.4072571740882722  0.9809116006139861  0.1614478427082844  1.0000
  O   O3        1.0  0.7537168647308121  0.48095660064519324  0.16150371237876734  1.0000
  O   O4        1.0  0.592719090786879  0.0190865628051355  0.838564509026682  1.0000
  O   O5        1.0  0.3822181801687988  0.3503443033894484  0.9184782649074779  1.0000
  O   O6        1.0  0.4635707200349798  0.1495505623489777  0.0814404555273924  1.0000
  O   O7        1.0  0.6177979934278426  0.6496677991910077  0.08153111773906825  1.0000
  O   O8        1.0  0.5364278215588527  0.8504432333386163  0.918564473656545  1.0000
  O   O9        1.0  0.08200647016340672  0.24991341143373103  9.331707314432901e-05  1.0000
  O   O10       1.0  0.9180035334684575  0.7500803176595029  0.9999047178071906  1.0000
