data_image0
_chemical_formula_structural       Ca4H48C36O40
_chemical_formula_sum              "Ca4 H48 C36 O40"
_cell_length_a       7.374775489544421
_cell_length_b       10.124334385219807
_cell_length_c       16.441655635079616
_cell_angle_alpha    89.99975426627779
_cell_angle_beta     89.9997921614447
_cell_angle_gamma    102.2890841471942

_space_group_name_H-M_alt    "P 1"
_space_group_IT_number       1

loop_
  _space_group_symop_operation_xyz
  'x, y, z'

loop_
  _atom_site_type_symbol
  _atom_site_label
  _atom_site_symmetry_multiplicity
  _atom_site_fract_x
  _atom_site_fract_y
  _atom_site_fract_z
  _atom_site_occupancy
  Ca  Ca1       1.0  0.6237328767234446  0.7523954291160068  0.5941120077122548  1.0000
  Ca  Ca2       1.0  0.8762612877845584  0.24760585991548817  0.09411171581384539  1.0000
  Ca  Ca3       1.0  0.3762645695733085  0.24760858577284492  0.4058885277538237  1.0000
  Ca  Ca4       1.0  0.12373981497073328  0.7523920917767556  0.9058906442908634  1.0000
  H   H1        1.0  0.813279714666301  0.9822099792475427  0.24132043128537353  1.0000
  H   H2        1.0  0.6867331058903119  0.0177940965956722  0.7413213306148376  1.0000
  H   H3        1.0  0.1867282859768409  0.0177930289720436  0.7586794959618145  1.0000
  H   H4        1.0  0.31327235992899477  0.9822048675656635  0.25867920485107015  1.0000
  H   H5        1.0  0.5549651328310432  0.6311999790811457  0.10410743636029447  1.0000
  H   H6        1.0  0.9450401901740549  0.36880729308789756  0.6041094075067618  1.0000
  H   H7        1.0  0.44503502573857656  0.36880403687598573  0.8958894498359554  1.0000
  H   H8        1.0  0.054957845463278046  0.6311987435603968  0.3958923443786729  1.0000
  H   H9        1.0  0.5479591314383612  0.6166168220800827  0.3652691166791157  1.0000
  H   H10       1.0  0.9520261805055271  0.3833892115252695  0.8652722540454787  1.0000
  H   H11       1.0  0.4520258150567996  0.38338617720272344  0.6347283777426396  1.0000
  H   H12       1.0  0.047958765964700945  0.6166137877366468  0.13473010606630706  1.0000
  H   H13       1.0  0.6793929335300535  0.9200057745892994  0.976138960544908  1.0000
  H   H14       1.0  0.8206134124931667  0.07999628327735311  0.4761416364916328  1.0000
  H   H15       1.0  0.3206107040646557  0.07999622117425531  0.023859750284806597  1.0000
  H   H16       1.0  0.1793901078491161  0.9200006585903967  0.52385950718984  1.0000
  H   H17       1.0  0.9355957461336432  0.6046057378094716  0.5924569944309467  1.0000
  H   H18       1.0  0.5644022090401037  0.39539455612963087  0.0924568434461932  1.0000
  H   H19       1.0  0.06440594597157913  0.3953942356500448  0.4075447574593483  1.0000
  H   H20       1.0  0.435598421623908  0.6046064276963677  0.9075424755986601  1.0000
  H   H21       1.0  0.9280136138628238  0.6849642516079516  0.5111755432089423  1.0000
  H   H22       1.0  0.5719903040149462  0.3150357315129356  0.011176806980380096  1.0000
  H   H23       1.0  0.07199368019042403  0.31503168095900247  0.48882499225940257  1.0000
  H   H24       1.0  0.42801410035067994  0.6849642430044227  0.9888237284851086  1.0000
  H   H25       1.0  0.31001684921923106  0.5202492469027505  0.5032719707001332  1.0000
  H   H26       1.0  0.18998175607791273  0.47974881948324827  0.003270776633186799  1.0000
  H   H27       1.0  0.6899788290308349  0.4797487026868765  0.4967297811979278  1.0000
  H   H28       1.0  0.8100109152601577  0.5202481181844832  0.9967279342124866  1.0000
  H   H29       1.0  0.26451091332153714  0.5725697995684628  0.5878570961505856  1.0000
  H   H30       1.0  0.2354858810237347  0.4274336047171732  0.08785778698570108  1.0000
  H   H31       1.0  0.7354894226628376  0.4274301733699772  0.41214343931834907  1.0000
  H   H32       1.0  0.7645079690048532  0.572567376477288  0.9121415320649074  1.0000
  H   H33       1.0  0.3276323408757308  0.8854509772364455  0.6496302156786412  1.0000
  H   H34       1.0  0.17237437483005646  0.11455088992667586  0.1496318360025626  1.0000
  H   H35       1.0  0.6723714741430767  0.11454697551624798  0.3503703197899951  1.0000
  H   H36       1.0  0.8276303242058635  0.885450095470404  0.8503693076726007  1.0000
  H   H37       1.0  0.25613751964399983  0.7293413534637951  0.6723587278793204  1.0000
  H   H38       1.0  0.24386460012112116  0.2706593060755226  0.17235860012450388  1.0000
  H   H39       1.0  0.7438676514925504  0.2706565998073671  0.32764363222193527  1.0000
  H   H40       1.0  0.756134379745511  0.7293406663444416  0.8276401107118259  1.0000
  H   H41       1.0  0.8968489385319602  0.8352574817073589  0.7270003522343913  1.0000
  H   H42       1.0  0.6031511170319775  0.16473963671796815  0.22700074171088852  1.0000
  H   H43       1.0  0.10315216422644374  0.1647404699874926  0.2730013996590657  1.0000
  H   H44       1.0  0.39685134185662463  0.8352583155058042  0.773000401970158  1.0000
  H   H45       1.0  0.008248616843460009  0.9135597930695173  0.6504776880769612  1.0000
  H   H46       1.0  0.49175284310594247  0.08643802171010152  0.1504788401691002  1.0000
  H   H47       1.0  0.9917546088285294  0.0864361379185112  0.3495228473948373  1.0000
  H   H48       1.0  0.508248554335225  0.9135609408749231  0.849521087089016  1.0000
  C   C1        1.0  0.7253977967574557  0.8730557360186351  0.3948143154066129  1.0000
  C   C2        1.0  0.7746027794065284  0.12694297456926762  0.8948123458453592  1.0000
  C   C3        1.0  0.2745975868285484  0.12694120269649292  0.6051856118592623  1.0000
  C   C4        1.0  0.22539785126060252  0.8730580092593384  0.10518636498823498  1.0000
  C   C5        1.0  0.6844215659230387  0.807512097522178  0.312838507012529  1.0000
  C   C6        1.0  0.8155819129348743  0.19249439316007513  0.8128387284607965  1.0000
  C   C7        1.0  0.31557935941749804  0.19248989718875723  0.6871602038194877  1.0000
  C   C8        1.0  0.18441765627545695  0.8075076010219463  0.18716059058363033  1.0000
  C   C9        1.0  0.7376408544738242  0.8775843363533653  0.24051414485149533  1.0000
  C   C10       1.0  0.7623587077461667  0.12242075203182173  0.7405152490229339  1.0000
  C   C11       1.0  0.26235523571142494  0.12241967802223294  0.759483349559467  1.0000
  C   C12       1.0  0.23763484760589654  0.8775792182776885  0.2594846782405042  1.0000
  C   C13       1.0  0.6903418118083451  0.8149623676010834  0.16509546351890236  1.0000
  C   C14       1.0  0.8096684882109457  0.18504033996988772  0.665096322808324  1.0000
  C   C15       1.0  0.30966182578947615  0.18503962816507877  0.8349026390995602  1.0000
  C   C16       1.0  0.19033756695517223  0.8149606459561131  0.3349042126544289  1.0000
  C   C17       1.0  0.5918208914630869  0.6808589126889049  0.16227970525869745  1.0000
  C   C18       1.0  0.9081837182172239  0.31914280606524414  0.6622824777029095  1.0000
  C   C19       1.0  0.4081810953467128  0.3191420716790604  0.8377159645174782  1.0000
  C   C20       1.0  0.09181903534167192  0.6808561570382495  0.33771927418781184  1.0000
  C   C21       1.0  0.5424806958221142  0.608766644196976  0.23441248023703307  1.0000
  C   C22       1.0  0.9575132097409809  0.39123748359757843  0.7344131548217021  1.0000
  C   C23       1.0  0.4575117980887385  0.39123433647900907  0.7655850141809706  1.0000
  C   C24       1.0  0.04247551045266822  0.6087645063739872  0.2655861642319336  1.0000
  C   C25       1.0  0.5879965053025414  0.6726069096518756  0.30922659949502657  1.0000
  C   C26       1.0  0.9120064211999621  0.32739759026515713  0.8092305601790881  1.0000
  C   C27       1.0  0.41200654296092415  0.3273930643600665  0.6907690702815755  1.0000
  C   C28       1.0  0.08798878494013002  0.6726033914425501  0.19077179992664375  1.0000
  C   C29       1.0  0.7427858953798677  0.8966884717324537  0.09010468856093468  1.0000
  C   C30       1.0  0.7572199259736722  0.10331083467058023  0.5901070681022061  1.0000
  C   C31       1.0  0.257215207403469  0.10330947998329525  0.9098921976424845  1.0000
  C   C32       1.0  0.24278282759769357  0.8966881284433583  0.4098922509434999  1.0000
  C   C33       1.0  0.43823602637180414  0.46422882709641305  0.23266658414368632  1.0000
  C   C34       1.0  0.06176346974103814  0.5357783891581533  0.7326705916370952  1.0000
  C   C35       1.0  0.5617632481900545  0.5357721562241623  0.7673278692122805  1.0000
  C   C36       1.0  0.9382347433079374  0.4642236044688346  0.2673354177322764  1.0000
  O   O1        1.0  0.6918810693211557  0.8004723535063293  0.4569742376607947  1.0000
  O   O2        1.0  0.8081181030849508  0.19952784452154051  0.9569793189700204  1.0000
  O   O3        1.0  0.3081203281324748  0.19952660908914047  0.5430232567522992  1.0000
  O   O4        1.0  0.1918822328838418  0.8004721284038399  0.0430242575551958  1.0000
  O   O5        1.0  0.7934117841795044  0.0021185248084876  0.3965992858453972  1.0000
  O   O6        1.0  0.7065920752938696  0.9978821932680192  0.8965975754651294  1.0000
  O   O7        1.0  0.20659038003569222  0.997878416532956  0.6034018578372267  1.0000
  O   O8        1.0  0.2934115622977203  0.0021198024929205005  0.10340174357583717  1.0000
  O   O9        1.0  0.866448071763955  0.0006845933503854001  0.0900686602168719  1.0000
  O   O10       1.0  0.6335581618799965  0.9993207781363084  0.5900695028761547  1.0000
  O   O11       1.0  0.1335582780693372  0.9993174034527214  0.9099330916668149  1.0000
  O   O12       1.0  0.36644848263917146  0.0006822295595796001  0.4099298161609325  1.0000
  O   O13       1.0  0.3994381081650432  0.409004915277251  0.16209411314990518  1.0000
  O   O14       1.0  0.10056104965102015  0.5910039173514862  0.6620954767946896  1.0000
  O   O15       1.0  0.6005561537924964  0.5910021306979517  0.8379021648361158  1.0000
  O   O16       1.0  0.899441821135369  0.4090000996269226  0.33790870793431077  1.0000
  O   O17       1.0  0.39206306725255763  0.4039041645790534  0.2985481456955909  1.0000
  O   O18       1.0  0.10793068414983514  0.5960943978445742  0.7985506998561789  1.0000
  O   O19       1.0  0.6079338499033329  0.5960887316671872  0.7014499569405357  1.0000
  O   O20       1.0  0.8920602191135104  0.4038964745004422  0.20145470132275983  1.0000
  O   O21       1.0  0.6436038272666239  0.851689280670229  0.024394296146681392  1.0000
  O   O22       1.0  0.8564027846570853  0.14831564388067872  0.5243951726336815  1.0000
  O   O23       1.0  0.35639874887751694  0.1483137254519633  0.9756038064713547  1.0000
  O   O24       1.0  0.14360462663923806  0.8516853425742424  0.4756047546166612  1.0000
  O   O25       1.0  0.8505940992083584  0.619872935926708  0.5476890489085731  1.0000
  O   O26       1.0  0.649407793723178  0.3801257222448485  0.04769001019082709  1.0000
  O   O27       1.0  0.14940942113392455  0.38012400594104184  0.4523120947728997  1.0000
  O   O28       1.0  0.35059495984195627  0.6198732408638676  0.9523105252773899  1.0000
  O   O29       1.0  0.36235386990158264  0.5861148451943167  0.5457335002461647  1.0000
  O   O30       1.0  0.13764141060474344  0.4138868985180011  0.0457337845525032  1.0000
  O   O31       1.0  0.6376426923749463  0.41388613704753396  0.4542670352246531  1.0000
  O   O32       1.0  0.8623494324931473  0.5861130707388968  0.9542661427132442  1.0000
  O   O33       1.0  0.3694983650563232  0.8060480569637534  0.6721122053070799  1.0000
  O   O34       1.0  0.13050346255944592  0.19395159380843552  0.17211247158216025  1.0000
  O   O35       1.0  0.6305051552859595  0.19394888490399612  0.3278889383743929  1.0000
  O   O36       1.0  0.8694965787515159  0.8060473682476683  0.8278880638883592  1.0000
  O   O37       1.0  0.8902682064119675  0.8543233199168229  0.6677246721104592  1.0000
  O   O38       1.0  0.6097330458888877  0.14567632927671786  0.167724492312459  1.0000
  O   O39       1.0  0.10973260166991144  0.1456736208930849  0.3322776879958268  1.0000
  O   O40       1.0  0.39026835154916045  0.8543226333056997  0.8322760431569092  1.0000
