data_image0
_chemical_formula_structural       Zn2H14C32Br4N2O8
_chemical_formula_sum              "Zn2 H14 C32 Br4 N2 O8"
_cell_length_a       11.061210343039171
_cell_length_b       11.708994216525024
_cell_length_c       13.129311165420361
_cell_angle_alpha    90.59074484506883
_cell_angle_beta     88.79503592889975
_cell_angle_gamma    82.24686240602053

_space_group_name_H-M_alt    "P 1"
_space_group_IT_number       1

loop_
  _space_group_symop_operation_xyz
  'x, y, z'

loop_
  _atom_site_type_symbol
  _atom_site_label
  _atom_site_symmetry_multiplicity
  _atom_site_fract_x
  _atom_site_fract_y
  _atom_site_fract_z
  _atom_site_occupancy
  Zn  Zn1       1.0  0.48747982915548965  0.6169786152582404  0.5157883072551854  1.0000
  Zn  Zn2       1.0  0.521136380529427  0.38090882294474676  0.4870041195564383  1.0000
  H   H1        1.0  0.1453177278578082  0.32463621130460757  0.4725850818768934  1.0000
  H   H2        1.0  0.05079032465774699  0.906065660135482  0.5217250336426461  1.0000
  H   H3        1.0  0.7567537763886208  0.708135313368608  0.5812723508571338  1.0000
  H   H4        1.0  0.5575443922578813  0.3528825603363046  0.17011109088882392  1.0000
  H   H5        1.0  0.4452064113863728  0.7177977609241565  0.1923612597134223  1.0000
  H   H6        1.0  0.5819547882235839  0.2561316420749975  0.9984835132466828  1.0000
  H   H7        1.0  0.4363354427471365  0.7305756498282038  0.002694868996201198  1.0000
  H   H8        1.0  0.46555303811336296  0.633000795938088  0.8320454622927612  1.0000
  H   H9        1.0  0.5876070772302597  0.7891998342581629  0.41009367864309354  1.0000
  H   H10       1.0  0.6647423318104515  0.9733095106492372  0.33635038593417493  1.0000
  H   H11       1.0  0.33750023947681745  0.030987471719285502  0.6679853151075436  1.0000
  H   H12       1.0  0.6582647348049947  0.18858756575541946  0.351509366649502  1.0000
  H   H13       1.0  0.4135132561024549  0.21180210245880463  0.5963051682859515  1.0000
  H   H14       1.0  0.18730712513458767  0.7266290923503578  0.47652808326540713  1.0000
  C   C1        1.0  0.5060439895808528  0.4692899421590441  0.6959503763153452  1.0000
  C   C2        1.0  0.5483021502001436  0.3452143281266373  0.8580646543701604  1.0000
  C   C3        1.0  0.4886795066855996  0.5508097396687789  0.8700514373385033  1.0000
  C   C4        1.0  0.26916229471189007  0.4986356397315675  0.4911445353162805  1.0000
  C   C5        1.0  0.491634090782668  0.5476549186204879  0.9773436390186491  1.0000
  C   C6        1.0  0.525792340312435  0.43886541874875473  0.02497953165514131  1.0000
  C   C7        1.0  0.5313808990798989  0.43474244246854704  0.1324264853102761  1.0000
  C   C8        1.0  0.46806543049959254  0.6414861444395897  0.1439699508918793  1.0000
  C   C9        1.0  0.4628924851982319  0.6481039788886848  0.039502281350209514  1.0000
  C   C10       1.0  0.6070899230183784  0.022989351301809808  0.39396528027772604  1.0000
  C   C11       1.0  0.6044100451290362  0.14056258466713703  0.4017774135644672  1.0000
  C   C12       1.0  0.05186368550499051  0.6128379135438138  0.5036926392487331  1.0000
  C   C13       1.0  0.46610304790240065  0.1556499889446599  0.5397474801447331  1.0000
  C   C14       1.0  0.46293589296913507  0.035187753061407506  0.5384314891782438  1.0000
  C   C15       1.0  0.5355108402605495  0.9671748506922881  0.4633220576291066  1.0000
  C   C16       1.0  0.5079339793880566  0.5262387647993307  0.305006924100411  1.0000
  C   C17       1.0  0.5335680384664413  0.8468173948401515  0.46480607144621905  1.0000
  C   C18       1.0  0.39883271995842046  0.8626462877154426  0.604449607367556  1.0000
  C   C19       1.0  0.3933205157423457  0.9809211952183006  0.609603217316959  1.0000
  C   C20       1.0  0.7378988392388023  0.5004990509327669  0.5070428030631149  1.0000
  C   C21       1.0  0.09321378989609738  0.7226030750836826  0.499430227153873  1.0000
  C   C22       1.0  0.0179935614960485  0.8224835530080696  0.5252844241601622  1.0000
  C   C23       1.0  0.13193228334965565  0.5067940700317024  0.4898729634840394  1.0000
  C   C24       1.0  0.8984015629760976  0.8137229728013933  0.5602264199137821  1.0000
  C   C25       1.0  0.8504132729126681  0.711308879787616  0.5567857136685319  1.0000
  C   C26       1.0  0.9238996704789744  0.6081625229501951  0.5219703074433539  1.0000
  C   C27       1.0  0.08335682400871751  0.4044654638638221  0.4833264386469836  1.0000
  C   C28       1.0  0.9565533780433741  0.4017118853948817  0.4892927103931655  1.0000
  C   C29       1.0  0.8740932597703479  0.501010345622028  0.5081226080619672  1.0000
  C   C30       1.0  0.5032946834830696  0.5338776290299165  0.19128371502493025  1.0000
  C   C31       1.0  0.5151125210815551  0.45267506753116754  0.8090153455441396  1.0000
  C   C32       1.0  0.5540593473884384  0.338807522325574  0.9626962440893936  1.0000
  Br  Br1       1.0  0.5951587400828302  0.20352658911300384  0.7845874780972295  1.0000
  Br  Br2       1.0  0.30655261347344254  0.7892382782905332  0.6998931473554678  1.0000
  Br  Br3       1.0  0.8031167033817683  0.9499655113991637  0.6148325052786205  1.0000
  Br  Br4       1.0  0.9128144608264749  0.2508096242623736  0.4679828208946475  1.0000
  N   N1        1.0  0.4678694838715741  0.7966763824074193  0.5330147779970389  1.0000
  N   N2        1.0  0.5344011638113956  0.2050967855622829  0.47412704638542646  1.0000
  O   O1        1.0  0.5251890237070143  0.5675508562367284  0.6632772107201675  1.0000
  O   O2        1.0  0.47798931488976143  0.3870122902615878  0.6412008660909905  1.0000
  O   O3        1.0  0.3128940347915758  0.5851422867379199  0.5281664176472419  1.0000
  O   O4        1.0  0.3318472741457015  0.4055889790762778  0.4597221643821997  1.0000
  O   O5        1.0  0.46887882465352965  0.6166797653452464  0.35704924195037074  1.0000
  O   O6        1.0  0.5501718959014  0.42850290086348514  0.3414680243831967  1.0000
  O   O7        1.0  0.6725999937889213  0.5947077521887537  0.4838291438506772  1.0000
  O   O8        1.0  0.6961726385171974  0.40727234373986937  0.5268263148691404  1.0000
