data_image0
_chemical_formula_structural       Ca4H40C32S8N8O36
_chemical_formula_sum              "Ca4 H40 C32 S8 N8 O36"
_cell_length_a       7.015369889
_cell_length_b       12.918547959927553
_cell_length_c       16.3973
_cell_angle_alpha    109.27165642149437
_cell_angle_beta     90.0
_cell_angle_gamma    90.0

_space_group_name_H-M_alt    "P 1"
_space_group_IT_number       1

loop_
  _space_group_symop_operation_xyz
  'x, y, z'

loop_
  _atom_site_type_symbol
  _atom_site_label
  _atom_site_symmetry_multiplicity
  _atom_site_fract_x
  _atom_site_fract_y
  _atom_site_fract_z
  _atom_site_occupancy
  Ca  Ca1       1.0  0.2236460835030414  0.4782532244405431  0.27502848235116784  1.0000
  Ca  Ca2       1.0  0.7236496550182137  0.5217518129329974  0.22497246158599898  1.0000
  Ca  Ca3       1.0  0.7763553577609483  0.5217477127738377  0.724972005292095  1.0000
  Ca  Ca4       1.0  0.2763546371289536  0.4782474842177252  0.775026989740603  1.0000
  H   H1        1.0  0.7052472041078983  0.18503034235573784  0.10980955167825364  1.0000
  H   H2        1.0  0.20523935626795964  0.8149763350814682  0.39018998914956887  1.0000
  H   H3        1.0  0.2947471099481475  0.8149681347631486  0.8901866371357628  1.0000
  H   H4        1.0  0.7947592341128524  0.18502624219657804  0.6098054362453454  1.0000
  H   H5        1.0  0.7558061918180312  0.9914808064869477  0.0897135763184096  1.0000
  H   H6        1.0  0.25580262030285883  0.0085225908229276  0.41028572144558945  1.0000
  H   H7        1.0  0.24418812223801467  0.0085176706319388  0.9102850519216119  1.0000
  H   H8        1.0  0.7441874174284209  0.9914791664232895  0.589714979427747  1.0000
  H   H9        1.0  0.5416777818028464  0.9144379959024607  0.0564257758302419  1.0000
  H   H10       1.0  0.0416770611708515  0.0855686815347454  0.4435755945670863  1.0000
  H   H11       1.0  0.4583165322531996  0.0855604812164259  0.9435734622662793  1.0000
  H   H12       1.0  0.9583144020020169  0.9144338957433007  0.5564265392493368  1.0000
  H   H13       1.0  0.6213585411704301  0.9442658337349458  0.16386895039634913  1.0000
  H   H14       1.0  0.1213563950968464  0.05573838360675861  0.33612995074123125  1.0000
  H   H15       1.0  0.37863719832720477  0.0557351034794351  0.836130927390407  1.0000
  H   H16       1.0  0.878635068076022  0.9442633736394513  0.6638707501321123  1.0000
  H   H17       1.0  0.7195030454366389  0.32872288009455275  0.5284331518260359  1.0000
  H   H18       1.0  0.21950517568782144  0.6712747769925047  0.9715634336143993  1.0000
  H   H19       1.0  0.28049982126893974  0.6712780571198281  0.4715673358172268  1.0000
  H   H20       1.0  0.7804991164593458  0.32872288009455275  0.0284331518260359  1.0000
  H   H21       1.0  0.7710498641677501  0.1746799005807915  0.3925011209908292  1.0000
  H   H22       1.0  0.27105912162687656  0.8253193965699239  0.1074965007662669  1.0000
  H   H23       1.0  0.22895442797941704  0.8253234967290838  0.6074987866296696  1.0000
  H   H24       1.0  0.7289522977282346  0.17467826051713334  0.8925025241001734  1.0000
  H   H25       1.0  0.6173687301636192  0.182605508230516  0.3079452906289291  1.0000
  H   H26       1.0  0.11737798762274557  0.8173937889201994  0.19205294098466652  1.0000
  H   H27       1.0  0.3826327111003707  0.817397069047523  0.6920550136179884  1.0000
  H   H28       1.0  0.8826305808491952  0.18260386816685073  0.8079460838817667  1.0000
  H   H29       1.0  0.5629895589957243  0.0903789882572781  0.36393442610174287  1.0000
  H   H30       1.0  0.0629959655716732  0.9096203088934445  0.13606319565535333  1.0000
  H   H31       1.0  0.4370161585930319  0.9096244090525971  0.6360654815187559  1.0000
  H   H32       1.0  0.9370126029002603  0.0903773481936128  0.863935829211087  1.0000
  H   H33       1.0  0.3874735107356527  0.6567725140555822  0.19183422261252053  1.0000
  H   H34       1.0  0.8874742313676478  0.3432292431906276  0.30816708811732246  1.0000
  H   H35       1.0  0.6125293559699259  0.3432284231587985  0.8081680946002407  1.0000
  H   H36       1.0  0.11252863533793087  0.6567700539600878  0.6918329730657788  1.0000
  H   H37       1.0  0.3516806724430168  0.5335414105719067  0.13216374968216368  1.0000
  H   H38       1.0  0.8516785421918343  0.466459526642474  0.3678373478175914  1.0000
  H   H39       1.0  0.6483221942625617  0.4664578865788159  0.86783692135743  1.0000
  H   H40       1.0  0.1483214736305669  0.5335405905400705  0.632163536452083  1.0000
  C   C1        1.0  0.5006863580361696  0.0804049410929082  0.13634228080878333  1.0000
  C   C2        1.0  0.0006813610794082999  0.9196017363442907  0.3636566501625397  1.0000
  C   C3        1.0  0.49930653057828767  0.9195943560578073  0.8636535113788143  1.0000
  C   C4        1.0  0.9993115275350488  0.0804000209019193  0.6363452704238027  1.0000
  C   C5        1.0  0.5623338558649137  0.1789047045757641  0.1334891763680375  1.0000
  C   C6        1.0  0.062330284349741284  0.8211019728614347  0.3665103644597849  1.0000
  C   C7        1.0  0.4376633090743097  0.8210962326386166  0.8665113112752181  1.0000
  C   C8        1.0  0.9376668805894821  0.17889814432111  0.633488690240398  1.0000
  C   C9        1.0  0.6124195969675981  0.9772967159005788  0.11017138404942266  1.0000
  C   C10       1.0  0.11241745089401427  0.022709141504790902  0.3898285534048185  1.0000
  C   C11       1.0  0.387574717088448  0.0227034012819658  0.8898276706507531  1.0000
  C   C12       1.0  0.887574012278854  0.9772926157414261  0.610173367181524  1.0000
  C   C13       1.0  0.4536795707651108  0.2780514731735266  0.1718177699938437  1.0000
  C   C14       1.0  0.9536845677218719  0.7219519241363486  0.32818274748315446  1.0000
  C   C15       1.0  0.5463133178493464  0.7219486440090179  0.8281812847063321  1.0000
  C   C16       1.0  0.04631687354211778  0.278047373014374  0.6718167038434402  1.0000
  C   C17       1.0  0.4395064050485188  0.39838868432447333  0.5737532019643155  1.0000
  C   C18       1.0  0.9395099765636912  0.6016106128262422  0.9262474690752781  1.0000
  C   C19       1.0  0.5604978870986486  0.6016122528899075  0.42624789553543957  1.0000
  C   C20       1.0  0.06049716646665359  0.3983903243881386  0.0737530185679773  1.0000
  C   C21       1.0  0.570262161981347  0.3291369961693675  0.5110483190052761  1.0000
  C   C22       1.0  0.0702642922325296  0.6708639410450132  0.9889515587814802  1.0000
  C   C23       1.0  0.4297421301658203  0.6708647610768423  0.48895299172456674  1.0000
  C   C24       1.0  0.9297399999146376  0.3291361761375384  0.011047495918695917  1.0000
  C   C25       1.0  0.5090494238371547  0.2573005676819378  0.4353607715077957  1.0000
  C   C26       1.0  0.009058681296281196  0.742698729468785  0.06463928967530565  1.0000
  C   C27       1.0  0.4909534428684238  0.742700369532443  0.5646409358484661  1.0000
  C   C28       1.0  0.9909527380588299  0.2572981075864433  0.9353601318175535  1.0000
  C   C29       1.0  0.6226286096259769  0.1717163055423967  0.37167232716944204  1.0000
  C   C30       1.0  0.12263786708510337  0.8282829916083188  0.12832590444415362  1.0000
  C   C31       1.0  0.3773742570796016  0.8282870917674785  0.6283281903075562  1.0000
  C   C32       1.0  0.877372126828419  0.17171220538324414  0.871671870875538  1.0000
  S   S1        1.0  0.15771085737543433  0.16301248768475324  0.1710209538256962  1.0000
  S   S2        1.0  0.657707301682663  0.8369900895932931  0.32897813070822224  1.0000
  S   S3        1.0  0.8422848821222003  0.8369892695614639  0.8289785273346411  1.0000
  S   S4        1.0  0.34228558693179406  0.1630067474619281  0.6710231203541356  1.0000
  S   S5        1.0  0.190568711436903  0.3646419143700968  0.45532350619460976  1.0000
  S   S6        1.0  0.6905722829520755  0.6353614829397785  0.044677011282388435  1.0000
  S   S7        1.0  0.8094355807102642  0.635359022844284  0.5446769814486528  1.0000
  S   S8        1.0  0.30943200919509195  0.36464109433826764  0.9553226831080297  1.0000
  N   N1        1.0  0.2730932267739732  0.2749009108775908  0.20092785765582022  1.0000
  N   N2        1.0  0.7730953728475567  0.7251049465277788  0.29907695865043143  1.0000
  N   N3        1.0  0.7269025127236617  0.7251000263367902  0.7990720201309429  1.0000
  N   N4        1.0  0.22690464297484425  0.2748943506229367  0.7009243222456689  1.0000
  N   N5        1.0  0.2566806923215096  0.41270726013117814  0.5526235402821271  1.0000
  N   N6        1.0  0.7566856892782708  0.5872912169877083  0.947375697814387  1.0000
  N   N7        1.0  0.7433235998256577  0.5872920370195374  0.4473771307574737  1.0000
  N   N8        1.0  0.24332145375207395  0.4127089001948434  0.05262274702928949  1.0000
  O   O1        1.0  0.0268923810127006  0.15891724871912774  0.23754830835260776  1.0000
  O   O2        1.0  0.5268902507615181  0.8410828684634171  0.2624605040515818  1.0000
  O   O3        1.0  0.973104783926523  0.8410828684634171  0.7624525759170738  1.0000
  O   O4        1.0  0.4731069141777056  0.1589131485599751  0.7375399239241958  1.0000
  O   O5        1.0  0.08700752913357948  0.1327008310717801  0.0837583654180278  1.0000
  O   O6        1.0  0.5870125260903407  0.8673074864290842  0.4162483102914649  1.0000
  O   O7        1.0  0.9129825085977001  0.8673017462062589  0.9162413289723902  1.0000
  O   O8        1.0  0.4129718098745839  0.1326844304351553  0.5837504416774096  1.0000
  O   O9        1.0  0.32416109713128083  0.0681963071881952  0.1687058792382103  1.0000
  O   O10       1.0  0.8241561159969208  0.9318111902808327  0.33129631424569084  1.0000
  O   O11       1.0  0.6758303660415876  0.9318038099943566  0.831292565605466  1.0000
  O   O12       1.0  0.1758296454095927  0.0681905669653773  0.6687092654796558  1.0000
  O   O13       1.0  0.9971377291122606  0.3265514358052073  0.44791328203981345  1.0000
  O   O14       1.0  0.497141284805032  0.6734511414728317  0.05208702220710391  1.0000
  O   O15       1.0  0.002867988476495499  0.6734486813773373  0.552088821942867  1.0000
  O   O16       1.0  0.5028658582253129  0.3265522558370435  0.9479110558438961  1.0000
  O   O17       1.0  0.2407257246190255  0.437539464047255  0.40763978759918024  1.0000
  O   O18       1.0  0.740723594367843  0.5624606531352896  0.09236109667049425  1.0000
  O   O19       1.0  0.7592742912033756  0.5624606531352896  0.5923604868139947  1.0000
  O   O20       1.0  0.2592749960129693  0.4375386440154259  0.9076383546561004  1.0000
  O   O21       1.0  0.3190394855030262  0.2532422301487216  0.4112840227916124  1.0000
  O   O22       1.0  0.8190444824597873  0.746757887033823  0.08871686147806203  1.0000
  O   O23       1.0  0.6809633812025522  0.7467587070656521  0.5887170747081427  1.0000
  O   O24       1.0  0.1809626605705574  0.2532422301487216  0.9112840227916124  1.0000
  O   O25       1.0  0.5255531865512991  0.3727840104232882  0.18575325571271864  1.0000
  O   O26       1.0  0.0255567422440706  0.6272210269502452  0.31424768822444804  1.0000
  O   O27       1.0  0.4744439783879243  0.6272169267910925  0.8142484516435432  1.0000
  O   O28       1.0  0.9744461244615079  0.3727790902322994  0.6857495369062293  1.0000
  O   O29       1.0  0.4901380902796787  0.4431222407548958  0.6522717376679595  1.0000
  O   O30       1.0  0.9901402363532623  0.5568745963003252  0.8477264641118938  1.0000
  O   O31       1.0  0.5098647764258997  0.5568778764276558  0.3477285367452225  1.0000
  O   O32       1.0  0.009864055793904897  0.4431247008503902  0.15227359707120064  1.0000
  O   O33       1.0  0.3897727480182453  0.581039294305711  0.19137644578481172  1.0000
  O   O34       1.0  0.8897720432086516  0.4189616429086699  0.30862465171495057  1.0000
  O   O35       1.0  0.6102301186873331  0.4189600028450045  0.808624225254789  1.0000
  O   O36       1.0  0.1102279726137496  0.5810384742738819  0.6913756226982315  1.0000
