data_image0
_chemical_formula_structural       FeH20PtC28N16
_chemical_formula_sum              "Fe1 H20 Pt1 C28 N16"
_cell_length_a       8.425683573323246
_cell_length_b       8.943543397204927
_cell_length_c       9.933204789047117
_cell_angle_alpha    84.43249562066313
_cell_angle_beta     64.99819686482165
_cell_angle_gamma    89.21532771883308

_space_group_name_H-M_alt    "P 1"
_space_group_IT_number       1

loop_
  _space_group_symop_operation_xyz
  'x, y, z'

loop_
  _atom_site_type_symbol
  _atom_site_label
  _atom_site_symmetry_multiplicity
  _atom_site_fract_x
  _atom_site_fract_y
  _atom_site_fract_z
  _atom_site_occupancy
  Fe  Fe1       1.0  4.548298450054757e-08  1.1238709233977474e-06  0.9999998752978241  1.0000
  H   H1        1.0  0.21215800805701687  0.9082976150110436  0.17912424674878485  1.0000
  H   H2        1.0  0.7878429680300059  0.09170283418107772  0.8208744512521945  1.0000
  H   H3        1.0  0.4481179485330814  0.03333280191807119  0.22103897120417315  1.0000
  H   H4        1.0  0.551886867735881  0.9666653617590057  0.7789565613954821  1.0000
  H   H5        1.0  0.5629418430359436  0.2903817518544257  0.09072380934901497  1.0000
  H   H6        1.0  0.43706170479043044  0.7096175749346044  0.9092750846591071  1.0000
  H   H7        1.0  0.4222656986136855  0.4170676325144953  0.931229515067052  1.0000
  H   H8        1.0  0.5777378492126887  0.5829316942745352  0.06876937894107725  1.0000
  H   H9        1.0  0.7414884592420494  0.394458650134318  0.6942699188335338  1.0000
  H   H10       1.0  0.2585124243606032  0.60553956273737  0.30573003478983196  1.0000
  H   H11       1.0  0.6727138022493052  0.5948687248919098  0.5365628252525241  1.0000
  H   H12       1.0  0.3272831107960529  0.4051283561964071  0.46343664300653836  1.0000
  H   H13       1.0  0.8409120179232588  0.8418701567951458  0.4656402319210072  1.0000
  H   H14       1.0  0.15908498456967382  0.15812918345642402  0.534359993151746  1.0000
  H   H15       1.0  0.0681743224534657  0.8784338544567307  0.5624810873882564  1.0000
  H   H16       1.0  0.9318213706690983  0.12156549077162987  0.43751960514102706  1.0000
  H   H17       1.0  0.22068537702644161  0.6253775653766451  0.732785998769856  1.0000
  H   H18       1.0  0.7793156005789826  0.37462287239406317  0.2672116930130883  1.0000
  H   H19       1.0  0.37719704413173366  0.49517164401737535  0.7011326393366771  1.0000
  H   H20       1.0  0.6228024861359671  0.5048254385387736  0.29886690022735257  1.0000
  Pt  Pt1       1.0  0.49999918005205773  3.990084522297145e-06  0.5000010565890276  1.0000
  C   C1        1.0  0.7072103088777126  0.0325694181158269  0.3064592660709025  1.0000
  C   C2        1.0  0.2927934223990007  0.9674343927354698  0.693538122910489  1.0000
  C   C3        1.0  0.259944774617729  0.0220723976047381  0.1293678637460545  1.0000
  C   C4        1.0  0.7400562029876951  0.977928040165963  0.8706298280368896  1.0000
  C   C5        1.0  0.39330772490418303  0.09225627382421918  0.15004749710423934  1.0000
  C   C6        1.0  0.6066958214037899  0.9077430643862239  0.849952403121918  1.0000
  C   C7        1.0  0.5186062362051871  0.20391834969572645  0.556283796365797  1.0000
  C   C8        1.0  0.48139482932941047  0.7960843586596483  0.4437156584488732  1.0000
  C   C9        1.0  0.4561617760528308  0.23503558049367265  0.07816359698879441  1.0000
  C   C10       1.0  0.5438404654399777  0.7649637284293219  0.9218337520397879  1.0000
  C   C11       1.0  0.38051151384658516  0.3051486110367563  0.9890309931792342  1.0000
  C   C12       1.0  0.6194921249457579  0.6948529634941139  0.01096765142454364  1.0000
  C   C13       1.0  0.24415745243965867  0.23016115931719133  0.9762688122514617  1.0000
  C   C14       1.0  0.7558435236473642  0.7698392898749304  0.02372988574951763  1.0000
  C   C15       1.0  0.1380085255139321  0.2897632166369917  0.9033459761665055  1.0000
  C   C16       1.0  0.8619924945376739  0.7102383678474664  0.09665360335034015  1.0000
  C   C17       1.0  0.9910646098015051  0.417468190955013  0.7969840787049307  1.0000
  C   C18       1.0  0.008936317765737585  0.5825311572090113  0.2030167564343017  1.0000
  C   C19       1.0  0.94011469928995  0.5339300328216225  0.7113066711413083  1.0000
  C   C20       1.0  0.059883611054949895  0.46606931387456996  0.2886940926929427  1.0000
  C   C21       1.0  0.8092053168171702  0.503735599358002  0.6647470794902901  1.0000
  C   C22       1.0  0.19079421345053052  0.49626148319814684  0.3352524600737397  1.0000
  C   C23       1.0  0.7722748004192895  0.6155187201823081  0.5758993035865598  1.0000
  C   C24       1.0  0.22772472984841133  0.3844783623738409  0.42410023597746965  1.0000
  C   C25       1.0  0.8662743857793205  0.7524709858674896  0.5360065400185259  1.0000
  C   C26       1.0  0.13372252574764332  0.24752610664224756  0.4639939344585712  1.0000
  C   C27       1.0  0.9924169689959684  0.7729006014370013  0.5893417237339164  1.0000
  C   C28       1.0  0.007579989532381097  0.227097603522239  0.41065761982297727  1.0000
  N   N1        1.0  0.8254569800081414  0.0352565991031994  0.18864865258843372  1.0000
  N   N2        1.0  0.17453351200553163  0.9647439584317326  0.8113598223730278  1.0000
  N   N3        1.0  0.18594288329340714  0.0880716441636196  0.04363845527694111  1.0000
  N   N4        1.0  0.8140593566809927  0.9119276761807878  0.9563598999696764  1.0000
  N   N5        1.0  0.00039792841908339643  0.20565536267637435  0.9169766473475034  1.0000
  N   N6        1.0  0.9996017822621611  0.7943462267848744  0.08302339962587266  1.0000
  N   N7        1.0  0.5197586428823798  0.32383202491914886  0.5947102609225822  1.0000
  N   N8        1.0  0.4802414240707479  0.6761786126165318  0.4052938195235852  1.0000
  N   N9        1.0  0.9073821403467408  0.2843363627018364  0.85400773234263  1.0000
  N   N10       1.0  0.09261752333311081  0.7156641143099023  0.14599344555095678  1.0000
  N   N11       1.0  0.13706196661382114  0.42383478592238083  0.8262025410819617  1.0000
  N   N12       1.0  0.8629376985844319  0.5761656796679446  0.17379763059359027  1.0000
  N   N13       1.0  0.2664532252760096  0.5378147004412384  0.7816713735605134  1.0000
  N   N14       1.0  0.7335464414406444  0.46218575372767395  0.21832779189699636  1.0000
  N   N15       1.0  0.028885763425179792  0.6670262902448626  0.676074425218509  1.0000
  N   N16       1.0  0.9711112390677529  0.3329730500067071  0.3239257998542442  1.0000
