data_image0
_chemical_formula_structural       Ag8H48C32N24
_chemical_formula_sum              "Ag8 H48 C32 N24"
_cell_length_a       11.778425549433729
_cell_length_b       12.023541836160803
_cell_length_c       12.216885089081797
_cell_angle_alpha    106.31024845296668
_cell_angle_beta     105.38506625881386
_cell_angle_gamma    116.02673555130897

_space_group_name_H-M_alt    "P 1"
_space_group_IT_number       1

loop_
  _space_group_symop_operation_xyz
  'x, y, z'

loop_
  _atom_site_type_symbol
  _atom_site_label
  _atom_site_symmetry_multiplicity
  _atom_site_fract_x
  _atom_site_fract_y
  _atom_site_fract_z
  _atom_site_occupancy
  Ag  Ag1       1.0  0.8063477464961508  0.6339408385894456  0.4021558745417975  1.0000
  Ag  Ag2       1.0  0.09540775193769245  0.7680249741948728  0.40239664179270557  1.0000
  Ag  Ag3       1.0  0.19365649306674024  0.36606187014259456  0.5978463809783177  1.0000
  Ag  Ag4       1.0  0.9045924191222312  0.2319735339391897  0.5976033728954916  1.0000
  Ag  Ag5       1.0  0.8413413750943803  0.3992619163452175  0.1222065416203363  1.0000
  Ag  Ag6       1.0  0.7806494225919564  0.7228044786920333  0.12172125709981413  1.0000
  Ag  Ag7       1.0  0.15866109322620764  0.6007407671475917  0.8777944279636285  1.0000
  Ag  Ag8       1.0  0.21935067383179777  0.2771971077364838  0.8782804242059682  1.0000
  H   H1        1.0  0.49982089986834666  0.24009365666407936  0.9041679383431639  1.0000
  H   H2        1.0  0.9048732502763173  0.6639286399710967  0.9041712388457764  1.0000
  H   H3        1.0  0.5001798431122567  0.7599058927655449  0.09583251837641886  1.0000
  H   H4        1.0  0.09512208518532364  0.33607389168227536  0.09582865314250444  1.0000
  H   H5        1.0  0.5340174686175488  0.6306909652144697  0.2623364932631205  1.0000
  H   H6        1.0  0.2278209993138488  0.6312481799187849  0.2625842297205167  1.0000
  H   H7        1.0  0.465983583274543  0.369307550450955  0.7376645710080466  1.0000
  H   H8        1.0  0.7721739518112473  0.36874719455612137  0.7374086340820653  1.0000
  H   H9        1.0  0.3611756256399374  0.5024502553779014  0.13667176791464178  1.0000
  H   H10       1.0  0.27516453249164385  0.6337964132205441  0.13689047765784312  1.0000
  H   H11       1.0  0.6388236454319055  0.49754822487179223  0.8633288236501638  1.0000
  H   H12       1.0  0.7248335220901296  0.3662062224389259  0.8631060572410475  1.0000
  H   H13       1.0  0.367622181432246  0.5160296014537025  0.3474673569409744  1.0000
  H   H14       1.0  0.4792310972987863  0.8312012969194952  0.34749525023777034  1.0000
  H   H15       1.0  0.6323798622525415  0.4839627244481903  0.652534676597149  1.0000
  H   H16       1.0  0.5207658210321356  0.16879610661890607  0.6525044265892744  1.0000
  H   H17       1.0  0.5019856579791482  0.4815453877381587  0.3756909664450916  1.0000
  H   H18       1.0  0.37291421091426014  0.893736496473764  0.37579243319918015  1.0000
  H   H19       1.0  0.49801728768116504  0.5184501257545477  0.6243056509957154  1.0000
  H   H20       1.0  0.627081498517086  0.10626191294446127  0.6242072129528821  1.0000
  H   H21       1.0  0.3292820186991321  0.3509417005822542  0.24964923749364223  1.0000
  H   H22       1.0  0.41952568355568326  0.8982250185317607  0.24960633849359207  1.0000
  H   H23       1.0  0.6707223701360832  0.6490548515608834  0.7503496847913096  1.0000
  H   H24       1.0  0.5804758656209259  0.10177761672368749  0.7503968344265457  1.0000
  H   H25       1.0  0.7849765487974879  0.017361907495732996  0.2896584789277056  1.0000
  H   H26       1.0  0.005079322910177126  0.2724188537253199  0.28987681736534643  1.0000
  H   H27       1.0  0.21502816889401538  0.9826449004733245  0.7103475117009521  1.0000
  H   H28       1.0  0.9949238091357132  0.7275786534151505  0.710126140393555  1.0000
  H   H29       1.0  0.9488138936615088  0.0448414754199291  0.7113125344137357  1.0000
  H   H30       1.0  0.2626119449799163  0.666875729166641  0.7114181137743428  1.0000
  H   H31       1.0  0.051184597960727475  0.9551507898269948  0.2886877404818621  1.0000
  H   H32       1.0  0.7373932233049061  0.333127037979267  0.28858112517981016  1.0000
  H   H33       1.0  0.9201113345735054  0.8774503715699139  0.6511781759524949  1.0000
  H   H34       1.0  0.23162309528201053  0.7742123444789185  0.6511600278110449  1.0000
  H   H35       1.0  0.0798788995043296  0.12253967959944839  0.3488185108250689  1.0000
  H   H36       1.0  0.7683750147800268  0.22578719253310445  0.34883646692983916  1.0000
  H   H37       1.0  0.7618341055158596  0.8843003089388688  0.7536323947855121  1.0000
  H   H38       1.0  0.49200654852639764  0.8691265892559699  0.7535094809004261  1.0000
  H   H39       1.0  0.23816041218437084  0.11569596700573465  0.24637043345271073  1.0000
  H   H40       1.0  0.5079943752367269  0.13088126305781597  0.24648845092562502  1.0000
  H   H41       1.0  0.687244090670582  0.9333821348935771  0.6453196123052364  1.0000
  H   H42       1.0  0.45803655458119846  0.711516014858958  0.6451972252876954  1.0000
  H   H43       1.0  0.31275218110349107  0.06661730564371031  0.35468128910800084  1.0000
  H   H44       1.0  0.5419696657403678  0.28849505252598123  0.3548013515856779  1.0000
  H   H45       1.0  0.6596934227863613  0.7659596544747556  0.5875624417720571  1.0000
  H   H46       1.0  0.4284113360296047  0.8213929107901733  0.5874319859230538  1.0000
  H   H47       1.0  0.3402990243380303  0.23403764017130874  0.41243767974864187  1.0000
  H   H48       1.0  0.5715881158247669  0.17861387234368203  0.4125660807482133  1.0000
  C   C1        1.0  0.5085698575362798  0.4483631010131148  0.13988202410131118  1.0000
  C   C2        1.0  0.1309565264024286  0.6910445014557993  0.1399935628939629  1.0000
  C   C3        1.0  0.4914326299402135  0.5516396028326938  0.8601173190230822  1.0000
  C   C4        1.0  0.8690441706758705  0.30895815679777877  0.8600061207538443  1.0000
  C   C5        1.0  0.5240365696899687  0.3160622818907655  0.9948515949888372  1.0000
  C   C6        1.0  0.9710410774307475  0.6785943349238791  0.994899021277575  1.0000
  C   C7        1.0  0.4759653267099467  0.683939360306475  0.005148932563734809  1.0000
  C   C8        1.0  0.028955495664320145  0.321407221379161  0.005098461696320612  1.0000
  C   C9        1.0  0.4529728765602102  0.5181013783644914  0.20918569835971812  1.0000
  C   C10       1.0  0.2557505589487974  0.6906442980414268  0.2093948359736969  1.0000
  C   C11       1.0  0.5470263753557277  0.48189708153220323  0.790816519664659  1.0000
  C   C12       1.0  0.7442478696026882  0.30935421538289626  0.7906014530889889  1.0000
  C   C13       1.0  0.4103214898626106  0.46344379795203144  0.3006506359462761  1.0000
  C   C14       1.0  0.38964145933670113  0.8368039027918356  0.3007398232209723  1.0000
  C   C15       1.0  0.5896790551670108  0.5365505879468768  0.699349132905709  1.0000
  C   C16       1.0  0.6103530316171231  0.1631955023297209  0.6992606054858966  1.0000
  C   C17       1.0  0.8420135963516702  0.9276220765580165  0.5098458723340187  1.0000
  C   C18       1.0  0.16816727654528324  0.5824129323025035  0.509951602339541  1.0000
  C   C19       1.0  0.15798067749527434  0.0723721446798322  0.4901554949648244  1.0000
  C   C20       1.0  0.8318376383083006  0.41758776996015  0.49004698890502124  1.0000
  C   C21       1.0  0.7997163464455711  0.9680062997946379  0.3492593837998895  1.0000
  C   C22       1.0  0.04985140186970223  0.3813695221893879  0.3494449805981218  1.0000
  C   C23       1.0  0.20028373082228515  0.03199526628088019  0.6507439239654643  1.0000
  C   C24       1.0  0.9501550966420496  0.6186373211954005  0.6505614827369043  1.0000
  C   C25       1.0  0.8711175312207047  0.9355733705459386  0.6389167845622764  1.0000
  C   C26       1.0  0.2681308512211444  0.703626085210054  0.6389418574950054  1.0000
  C   C27       1.0  0.12887970559965822  0.06442300940476998  0.3610826865865633  1.0000
  C   C28       1.0  0.7318719643227426  0.2963756052245614  0.3610564667213935  1.0000
  C   C29       1.0  0.7370690784440582  0.87622575204967  0.6573530953434242  1.0000
  C   C30       1.0  0.4205272752491141  0.7809589984723004  0.6572316513793764  1.0000
  C   C31       1.0  0.2629295556488955  0.1237747753754093  0.34264790757777763  1.0000
  C   C32       1.0  0.579476001254939  0.21904993055277802  0.34276719518442167  1.0000
  N   N1        1.0  0.6399882476989021  0.4779711150932042  0.1910514727497129  1.0000
  N   N2        1.0  0.05053272738149414  0.7126058185442685  0.1910362859713358  1.0000
  N   N3        1.0  0.3600125048596539  0.5220284445129124  0.8089481707400876  1.0000
  N   N4        1.0  0.9494650546131498  0.2873947318789476  0.8089612276775423  1.0000
  N   N5        1.0  0.649941977955045  0.3923770242085708  0.09738386942494501  1.0000
  N   N6        1.0  0.9472657750440873  0.70470659942152  0.09730292205846063  1.0000
  N   N7        1.0  0.35005935610213607  0.6076235868696143  0.9026154028664519  1.0000
  N   N8        1.0  0.052731350815761885  0.2952959778240895  0.9026966294063994  1.0000
  N   N9        1.0  0.4321840268173461  0.3467433349658932  0.016639808740173002  1.0000
  N   N10       1.0  0.08455906473411551  0.6695871064146175  0.016788899559578897  1.0000
  N   N11       1.0  0.5678170346526984  0.653255190876031  0.9833604423012118  1.0000
  N   N12       1.0  0.9154395521903922  0.33041656036392186  0.9832088906004867  1.0000
  N   N13       1.0  0.8155253426487336  0.8212574862619133  0.41000732569791853  1.0000
  N   N14       1.0  0.09450726490351964  0.5887863355989181  0.4102433010532493  1.0000
  N   N15       1.0  0.18447182911342  0.1787419821597425  0.5899929988387171  1.0000
  N   N16       1.0  0.905496178041311  0.4112132974838048  0.5897554250365288  1.0000
  N   N17       1.0  0.7882410046791649  0.8469625328122065  0.3065617083081875  1.0000
  N   N18       1.0  0.01831406355577773  0.4595762062790172  0.30684322554242266  1.0000
  N   N19       1.0  0.2117576389917417  0.1530380047893729  0.6934384813832323  1.0000
  N   N20       1.0  0.9816899780561386  0.5404213389223144  0.6931583421100952  1.0000
  N   N21       1.0  0.8330649249726604  0.022716902019212195  0.47522851602003136  1.0000
  N   N22       1.0  0.142683459331657  0.45275822673740146  0.4753097708442907  1.0000
  N   N23       1.0  0.16693432694328447  0.9772815578774825  0.5247737020043387  1.0000
  N   N24       1.0  0.8573220082867081  0.547243496467807  0.5246908888912285  1.0000
