data_image0
_chemical_formula_structural       Cd2H24C36S4N12
_chemical_formula_sum              "Cd2 H24 C36 S4 N12"
_cell_length_a       5.8261031214338805
_cell_length_b       7.524363918429574
_cell_length_c       20.137705273967722
_cell_angle_alpha    89.9986040721371
_cell_angle_beta     89.99954110624485
_cell_angle_gamma    93.9508235641879

_space_group_name_H-M_alt    "P 1"
_space_group_IT_number       1

loop_
  _space_group_symop_operation_xyz
  'x, y, z'

loop_
  _atom_site_type_symbol
  _atom_site_label
  _atom_site_symmetry_multiplicity
  _atom_site_fract_x
  _atom_site_fract_y
  _atom_site_fract_z
  _atom_site_occupancy
  Cd  Cd1       1.0  2.9409142214954888e-06  0.49998645272856374  0.5000015947450082  1.0000
  Cd  Cd2       1.0  3.4886266959999807e-06  9.89871102059999e-06  0.9999987542335305  1.0000
  H   H1        1.0  0.2881312823521824  0.673011014084352  0.7754359076506532  1.0000
  H   H2        1.0  0.7118820981509517  0.8269935996384847  0.27544398023426453  1.0000
  H   H3        1.0  0.7118676187908477  0.32698537499982894  0.2245586049843666  1.0000
  H   H4        1.0  0.28813004189320424  0.17299855998475516  0.7245545049819812  1.0000
  H   H5        1.0  0.5658348097567655  0.3838511485360883  0.5965072705644375  1.0000
  H   H6        1.0  0.4341569063499477  0.1161475420050664  0.0965006891287672  1.0000
  H   H7        1.0  0.4341453963986623  0.616132209586226  0.4034956833134443  1.0000
  H   H8        1.0  0.5658527443631415  0.8838673456432886  0.9035002798423976  1.0000
  H   H9        1.0  0.20780050876695813  0.609806492647529  0.6513879944271751  1.0000
  H   H10       1.0  0.7921967321564056  0.8901915733644045  0.15138914372474233  1.0000
  H   H11       1.0  0.7921814113820106  0.3901768377903778  0.3486109868146984  1.0000
  H   H12       1.0  0.2078084026351448  0.10982873013156788  0.8486083493543576  1.0000
  H   H13       1.0  0.5070706323362799  0.3813648945293124  0.8255720785899143  1.0000
  H   H14       1.0  0.4929305251079299  0.11866724338255348  0.325558094313891  1.0000
  H   H15       1.0  0.4929172110887805  0.6186543647881991  0.17443385620011043  1.0000
  H   H16       1.0  0.5070789679601688  0.8813316338593182  0.6744398945589865  1.0000
  H   H17       1.0  0.15352601539633073  0.6353208553187812  0.891896618575217  1.0000
  H   H18       1.0  0.8465030550582995  0.864702286748873  0.3918995819881631  1.0000
  H   H19       1.0  0.8464808305520107  0.3646847391975214  0.10810186711611183  1.0000
  H   H20       1.0  0.1535181179067422  0.135279043760633  0.6080984062986019  1.0000
  H   H21       1.0  0.7706578088053535  0.4875960230692015  0.9167473145922644  1.0000
  H   H22       1.0  0.22936011983002663  0.012448249155845298  0.41674276448989644  1.0000
  H   H23       1.0  0.2293423412568458  0.5124256984426196  0.08325315799054071  1.0000
  H   H24       1.0  0.7706563808244484  0.9875371643038591  0.5832547273382431  1.0000
  C   C1        1.0  0.9741219793952214  0.5429433979378046  0.7337687751771683  1.0000
  C   C2        1.0  0.025859687284246025  0.9570681560937687  0.23376745505910182  1.0000
  C   C3        1.0  0.025856047729710993  0.4570506735697109  0.2662331859324639  1.0000
  C   C4        1.0  0.9741438880001354  0.042938828926075714  0.7662295409190137  1.0000
  C   C5        1.0  0.7495634976539806  0.4628024499977457  0.7480591685134926  1.0000
  C   C6        1.0  0.250424409643621  0.03721328842775761  0.24805433293669676  1.0000
  C   C7        1.0  0.250414063356196  0.5372023046290622  0.2519452759054773  1.0000
  C   C8        1.0  0.7495805669281099  0.9627910032849344  0.7519441526913724  1.0000
  C   C9        1.0  0.12004710355822822  0.6058230304206091  0.7862198521919197  1.0000
  C   C10       1.0  0.8799533465514247  0.8941929602204367  0.2862215793160772  1.0000
  C   C11       1.0  0.8799419845151348  0.3941775275926815  0.2137776400170779  1.0000
  C   C12       1.0  0.12005614658852441  0.1058059171935355  0.7137759129758906  1.0000
  C   C13       1.0  0.6820298302986886  0.4264536643602169  0.6366801527084718  1.0000
  C   C14       1.0  0.3179561839999323  0.07355311104037551  0.13667608886484572  1.0000
  C   C15       1.0  0.3179472609351279  0.5735324156141601  0.36332280125092353  1.0000
  C   C16       1.0  0.6820486387321055  0.9264645283817499  0.8633223972720503  1.0000
  C   C17       1.0  0.037566328511410126  0.5533056471046154  0.6661459722268576  1.0000
  C   C18       1.0  0.96242851344568  0.9466981728169443  0.1661444595836201  1.0000
  C   C19       1.0  0.9624159032659421  0.44668034637453496  0.3338549954426568  1.0000
  C   C20       1.0  0.03757802292062709  0.05331943806027789  0.8338525368218086  1.0000
  C   C21       1.0  0.6784934497136988  0.44186237104658943  0.8148777836701201  1.0000
  C   C22       1.0  0.32151858911232273  0.0581703730686911  0.3148691186017203  1.0000
  C   C23       1.0  0.3214968853043417  0.5581488401642788  0.1851246747640047  1.0000
  C   C24       1.0  0.678489190465214  0.9418285330622919  0.6851293668408119  1.0000
  C   C25       1.0  0.045240257359587574  0.5850925229023359  0.8509463530116577  1.0000
  C   C26       1.0  0.9547733992775846  0.9149167630802353  0.3509452807146261  1.0000
  C   C27       1.0  0.9547658084399799  0.4149064114293494  0.149054615324161  1.0000
  C   C28       1.0  0.0452402982992268  0.08507403578906998  0.649052707879946  1.0000
  C   C29       1.0  0.8254076919341744  0.5013356785312199  0.8651346073795949  1.0000
  C   C30       1.0  0.17460996443242752  0.9987036710883642  0.3651326541063895  1.0000
  C   C31       1.0  0.17458840731530503  0.49868077329951893  0.13486685813449384  1.0000
  C   C32       1.0  0.8254007741088216  0.0012911813257332008  0.6348658312026247  1.0000
  C   C33       1.0  0.531344397537886  0.7315192613217503  0.509284445267106  1.0000
  C   C34       1.0  0.46863460606871143  0.7684808895316306  0.0092880144447562  1.0000
  C   C35       1.0  0.46866072799044645  0.268442321984061  0.49071850795862565  1.0000
  C   C36       1.0  0.5313719301538883  0.2315367210013903  0.9907099751224778  1.0000
  S   S1        1.0  0.2855404921449037  0.7995870682539562  0.532998004584961  1.0000
  S   S2        1.0  0.7144610905394942  0.7004134936526327  0.0330053812969879  1.0000
  S   S3        1.0  0.7144677504950964  0.20038647294616396  0.4670044525391789  1.0000
  S   S4        1.0  0.2855336076381931  0.299605652001567  0.9669931048244322  1.0000
  N   N1        1.0  0.8961277307503936  0.4948470283178921  0.6180610358690545  1.0000
  N   N2        1.0  0.10387036743084371  0.0051565252395562  0.11805660293470048  1.0000
  N   N3        1.0  0.10385948568445262  0.5051375469733159  0.38193744887766473  1.0000
  N   N4        1.0  0.8961349231748985  0.9948651097770452  0.8819418833582235  1.0000
  N   N5        1.0  0.7094856997950529  0.6849115293704812  0.4897499461610338  1.0000
  N   N6        1.0  0.29050726974940494  0.8150799505086326  0.9897517705872901  1.0000
  N   N7        1.0  0.2905096129510341  0.3150542235528491  0.510254000315044  1.0000
  N   N8        1.0  0.709504250843267  0.18493624114804416  0.0102457223807804  1.0000
  N   N9        1.0  0.6041080120552138  0.4076349156063229  0.6977166113261788  1.0000
  N   N10       1.0  0.3958855809850662  0.09238384041005793  0.19771014417717236  1.0000
  N   N11       1.0  0.39586222747827554  0.592365959842944  0.30228733631086874  1.0000
  N   N12       1.0  0.6041240700154304  0.9076310479266994  0.8022888384703606  1.0000
