data_image0
_chemical_formula_structural       Cd2H28C26N6O10
_chemical_formula_sum              "Cd2 H28 C26 N6 O10"
_cell_length_a       7.336414081400523
_cell_length_b       10.09065409499559
_cell_length_c       10.328368920404913
_cell_angle_alpha    89.89251717270554
_cell_angle_beta     79.56763327967853
_cell_angle_gamma    72.27442690243329

_space_group_name_H-M_alt    "P 1"
_space_group_IT_number       1

loop_
  _space_group_symop_operation_xyz
  'x, y, z'

loop_
  _atom_site_type_symbol
  _atom_site_label
  _atom_site_symmetry_multiplicity
  _atom_site_fract_x
  _atom_site_fract_y
  _atom_site_fract_z
  _atom_site_occupancy
  Cd  Cd1       1.0  0.49411107450165287  0.2194462841126921  0.9389293833194542  1.0000
  Cd  Cd2       1.0  0.5058973475648473  0.7805413238839306  0.06106816826443404  1.0000
  H   H1        1.0  0.8756777194607606  0.25554439218738173  0.8714222092637485  1.0000
  H   H2        1.0  0.12431980205128222  0.7444556939573487  0.12857368287851048  1.0000
  H   H3        1.0  0.7505867358515417  0.39774285144702043  0.9544789003193299  1.0000
  H   H4        1.0  0.2494061491088929  0.6022552205146567  0.045519639548459195  1.0000
  H   H5        1.0  0.13878199718296716  0.10137978866755047  0.3884782653312938  1.0000
  H   H6        1.0  0.8612364881935688  0.8986172483735401  0.6115243991331525  1.0000
  H   H7        1.0  0.7397018076250464  0.5185802684952917  0.42501673303513593  1.0000
  H   H8        1.0  0.26029318324488315  0.48140639627810355  0.5749837250024825  1.0000
  H   H9        1.0  0.007680502255766462  0.313688674121792  0.041351815325370495  1.0000
  H   H10       1.0  0.9923229596947183  0.6862980745920666  0.958654212980349  1.0000
  H   H11       1.0  0.022380150392180668  0.3587381493144618  0.6052691428441648  1.0000
  H   H12       1.0  0.9776165301286286  0.6412579547355718  0.39473568438543777  1.0000
  H   H13       1.0  0.9532288927813254  0.2048199660037682  0.6058565694169147  1.0000
  H   H14       1.0  0.0467678461923385  0.7951761945498388  0.3941511537603973  1.0000
  H   H15       1.0  0.7738836082921524  0.3707641939391095  0.6217550421341967  1.0000
  H   H16       1.0  0.22611901995824019  0.6292338409723327  0.3782430782823951  1.0000
  H   H17       1.0  0.30388573584882295  0.4567760691082867  0.2091624211815812  1.0000
  H   H18       1.0  0.6961123902791257  0.5432322905618108  0.7908312436643213  1.0000
  H   H19       1.0  0.7000427470006231  0.05412160254057599  0.19944003095308455  1.0000
  H   H20       1.0  0.2999524332070038  0.9458880786730859  0.8005675810640938  1.0000
  H   H21       1.0  0.6018985125507401  0.2393774434177018  0.5433515292147105  1.0000
  H   H22       1.0  0.3980893390837537  0.7606394796603695  0.4566530747166481  1.0000
  H   H23       1.0  0.7675938645855283  0.0892040815621158  0.44915825203005266  1.0000
  H   H24       1.0  0.23239408447037851  0.9108129356885827  0.5508511784808263  1.0000
  H   H25       1.0  0.33651685263595976  0.13149910526367845  0.5660253583169633  1.0000
  H   H26       1.0  0.6634741490136306  0.8685197458083493  0.4339719691332249  1.0000
  H   H27       1.0  0.5356041577257642  0.0375181079495519  0.6363464099347311  1.0000
  H   H28       1.0  0.4643780010583571  0.962498715220981  0.36365222808079517  1.0000
  C   C1        1.0  0.2204750211478341  0.07037467402079049  0.1227086696440693  1.0000
  C   C2        1.0  0.779520279509825  0.9296244992050475  0.8772933729404712  1.0000
  C   C3        1.0  0.084652631912661  0.19450433873299738  0.20668588482899958  1.0000
  C   C4        1.0  0.9153544882278198  0.8054864137775437  0.7933127433734412  1.0000
  C   C5        1.0  0.06023673067775802  0.19462461984306864  0.34436197390140677  1.0000
  C   C6        1.0  0.9397707622280367  0.8053619730784973  0.6556367037213775  1.0000
  C   C7        1.0  0.9409012583682995  0.3115061226155476  0.4244210247129558  1.0000
  C   C8        1.0  0.05911148593735764  0.6884877156566915  0.5755767256727821  1.0000
  C   C9        1.0  0.8392732415456764  0.4283280044663299  0.3639672144147568  1.0000
  C   C10       1.0  0.16072868466738297  0.5716616627471253  0.6360283067186785  1.0000
  C   C11       1.0  0.859906323118679  0.4291327424580516  0.22638624282113542  1.0000
  C   C12       1.0  0.14010109184998504  0.570853775125407  0.773608573538027  1.0000
  C   C13       1.0  0.9851027645357534  0.3126227037691082  0.1481622144806352  1.0000
  C   C14       1.0  0.01490018825943909  0.6873680726920385  0.8518370071934172  1.0000
  C   C15       1.0  0.9212439680194321  0.31121227238509147  0.5717295887880096  1.0000
  C   C16       1.0  0.07875907196483918  0.688781640606436  0.4282705116807293  1.0000
  C   C17       1.0  0.745078822623988  0.5519882092936186  0.1629948917367798  1.0000
  C   C18       1.0  0.25492022891786803  0.4479952761642706  0.8370031287186422  1.0000
  C   C19       1.0  0.39861044974171017  0.3618164919656479  0.23989166582855856  1.0000
  C   C20       1.0  0.6013909145708213  0.6381908286787734  0.7601025315846285  1.0000
  C   C21       1.0  0.6010267418777319  0.1571483862688297  0.23261548216389363  1.0000
  C   C22       1.0  0.39897296820815625  0.8428601537629914  0.7673876380171761  1.0000
  C   C23       1.0  0.6136279260365214  0.15212448945752746  0.4763658930438979  1.0000
  C   C24       1.0  0.3863632120030546  0.8478944934561881  0.5236381916176143  1.0000
  C   C25       1.0  0.4894953070183163  0.06511876145280839  0.5416279051150497  1.0000
  C   C26       1.0  0.510492035460878  0.9349021893725507  0.458369892184649  1.0000
  N   N1        1.0  0.5048411706293053  0.24923763700276405  0.1560086337012763  1.0000
  N   N2        1.0  0.4951602039155677  0.7507666412839169  0.843989511496737  1.0000
  N   N3        1.0  0.5535270929804811  0.21316032406485869  0.3568137525686481  1.0000
  N   N4        1.0  0.44647132443131454  0.7868544216731408  0.6431874617620394  1.0000
  N   N5        1.0  0.4241172319525858  0.3437120894364867  0.3632256867560244  1.0000
  N   N6        1.0  0.5758801199085255  0.6563015093847682  0.6367698964022351  1.0000
  O   O1        1.0  0.2750284705520301  0.0822042748780234  9.963532857429904e-05  1.0000
  O   O2        1.0  0.7249891968618841  0.9177781779079054  0.9999015682110581  1.0000
  O   O3        1.0  0.2757110932634675  0.9574142638533301  0.18201209580957567  1.0000
  O   O4        1.0  0.7242948316243485  0.042582788536016394  0.8179894531220028  1.0000
  O   O5        1.0  0.6675214193467127  0.6689592863222344  0.22809378169598923  1.0000
  O   O6        1.0  0.3324863591353164  0.3310200104799748  0.7719040665524517  1.0000
  O   O7        1.0  0.7257552604793602  0.5368225196775994  0.0432696139352799  1.0000
  O   O8        1.0  0.27424549921726543  0.46317652744146187  0.9567268107742635  1.0000
  O   O9        1.0  0.7493316424988378  0.326956934196744  0.8858891970297975  1.0000
  O   O10       1.0  0.2506630720467982  0.6730400878882747  0.11410910791323658  1.0000
