data_image0
_chemical_formula_structural       Zn4H52C80N4O20
_chemical_formula_sum              "Zn4 H52 C80 N4 O20"
_cell_length_a       16.167233946072155
_cell_length_b       16.16724856305135
_cell_length_c       23.211675910437304
_cell_angle_alpha    72.67764729892644
_cell_angle_beta     72.67753558339535
_cell_angle_gamma    66.41575999744892

_space_group_name_H-M_alt    "P 1"
_space_group_IT_number       1

loop_
  _space_group_symop_operation_xyz
  'x, y, z'

loop_
  _atom_site_type_symbol
  _atom_site_label
  _atom_site_symmetry_multiplicity
  _atom_site_fract_x
  _atom_site_fract_y
  _atom_site_fract_z
  _atom_site_occupancy
  Zn  Zn1       1.0  0.9919806865141962  0.5923100014124927  0.48826191458761065  1.0000
  Zn  Zn2       1.0  0.40768990644630065  0.008019423476604035  0.011738933761400012  1.0000
  Zn  Zn3       1.0  0.008020465826440698  0.4076884461545305  0.5117381560198666  1.0000
  Zn  Zn4       1.0  0.5923098693265414  0.9919807918738783  0.988261917773386  1.0000
  H   H1        1.0  0.21715293340920275  0.5570880839425812  0.564826541445612  1.0000
  H   H2        1.0  0.44291214686573693  0.7828474880849188  0.935172845770609  1.0000
  H   H3        1.0  0.7828461471594675  0.4429104270443889  0.43517480513682477  1.0000
  H   H4        1.0  0.5570897022463938  0.21715266541128392  0.06482586750584575  1.0000
  H   H5        1.0  0.3521362019451786  0.5141145700868534  0.6141104318079725  1.0000
  H   H6        1.0  0.48588491043218335  0.6478636296564987  0.8858895640223281  1.0000
  H   H7        1.0  0.6478621930492422  0.48588547283420536  0.38589074016501  1.0000
  H   H8        1.0  0.514115559827509  0.3521369986697992  0.11410933576090097  1.0000
  H   H9        1.0  0.38651407582052133  0.2276342982434515  0.6441926347071741  1.0000
  H   H10       1.0  0.7723659873572968  0.6134866160268262  0.8558085628826859  1.0000
  H   H11       1.0  0.6134863863102352  0.7723643859557825  0.35580796029537964  1.0000
  H   H12       1.0  0.22763447741677106  0.38651400681961695  0.14419335489236573  1.0000
  H   H13       1.0  0.2516782418219279  0.2713518723469761  0.5953245221408423  1.0000
  H   H14       1.0  0.7286485259524296  0.7483221399152739  0.9046768152007089  1.0000
  H   H15       1.0  0.7483215320249313  0.7286476957439874  0.40467646332537316  1.0000
  H   H16       1.0  0.27135124939541555  0.2516787203462131  0.09532519582772639  1.0000
  H   H17       1.0  0.603650054642621  0.2574207744846221  0.6933690628972117  1.0000
  H   H18       1.0  0.7425790992051657  0.3963522020139933  0.8066322237579016  1.0000
  H   H19       1.0  0.39635109919900197  0.7425789652529248  0.30663203327249283  1.0000
  H   H20       1.0  0.25741999177709113  0.6036495460534042  0.19336802202574435  1.0000
  H   H21       1.0  0.6230343795829114  0.15256314533804985  0.7966486388134867  1.0000
  H   H22       1.0  0.8474368110770029  0.37696628705734986  0.7033528899023908  1.0000
  H   H23       1.0  0.3769653954062732  0.8474370692295922  0.20335264386299207  1.0000
  H   H24       1.0  0.15256227797926408  0.6230348137505289  0.29664748981267763  1.0000
  H   H25       1.0  0.33120437167940503  0.20909986058971708  0.8491864002706252  1.0000
  H   H26       1.0  0.7909002905473199  0.6687957625992523  0.6508132372116011  1.0000
  H   H27       1.0  0.6687954056607593  0.7909003563264395  0.15081358898078884  1.0000
  H   H28       1.0  0.20909948986115265  0.33120574805310093  0.34918691531866136  1.0000
  H   H29       1.0  0.31064338133005254  0.31365203371560574  0.7472276052273799  1.0000
  H   H30       1.0  0.6863488132136905  0.6893570504212364  0.752772758360962  1.0000
  H   H31       1.0  0.6893563971524371  0.686348829677229  0.2527726812342976  1.0000
  H   H32       1.0  0.3136502750589115  0.3106440496038091  0.2472280524957924  1.0000
  H   H33       1.0  0.09218933058826195  0.7133809427878931  0.4018623155600168  1.0000
  H   H34       1.0  0.286617409466686  0.9078120694899925  0.0981365688194771  1.0000
  H   H35       1.0  0.9078132056654481  0.28661768033990154  0.5981357100425128  1.0000
  H   H36       1.0  0.7133816800145851  0.09218838640688187  0.9018626514019418  1.0000
  H   H37       1.0  0.10886108882966988  0.8641763263109327  0.395795821625164  1.0000
  H   H38       1.0  0.13582339038264726  0.8911386284815138  0.10420492608485431  1.0000
  H   H39       1.0  0.8911386854421861  0.1358225968690193  0.6042040043474018  1.0000
  H   H40       1.0  0.8641756932543315  0.10886117624166058  0.8957965837764378  1.0000
  H   H41       1.0  0.8993443408417078  0.8898088224590954  0.5633799668836516  1.0000
  H   H42       1.0  0.1101916414162218  0.10065457852986984  0.9366207807889637  1.0000
  H   H43       1.0  0.10065543806577888  0.11019139602272796  0.43661916008438334  1.0000
  H   H44       1.0  0.889807436442801  0.8993432844147484  0.06338113086658842  1.0000
  H   H45       1.0  0.8935061444834315  0.7383551776339704  0.5617784604852788  1.0000
  H   H46       1.0  0.26164449766570635  0.10649463870113618  0.9382215537831655  1.0000
  H   H47       1.0  0.10649570234405559  0.2616436829088756  0.43821965837063453  1.0000
  H   H48       1.0  0.7383559656737118  0.8935034013699342  0.061777450584059916  1.0000
  H   H49       1.0  0.05992433249467409  0.0013863567938941026  0.4344059173557682  1.0000
  H   H50       1.0  0.9986128861158433  0.940076906761668  0.06559287029909196  1.0000
  H   H51       1.0  0.94007613469671  0.9986129777962064  0.5655928191486126  1.0000
  H   H52       1.0  0.0013862048664066  0.0599248413057296  0.9344073754845468  1.0000
  C   C1        1.0  0.14443200187708527  0.4428297154926071  0.5496527762114597  1.0000
  C   C2        1.0  0.557169335769828  0.8555680363351997  0.9503477720281525  1.0000
  C   C3        1.0  0.8555684602536714  0.5571689687066269  0.4503478187910942  1.0000
  C   C4        1.0  0.44282975136045616  0.14443241721316014  0.04965274161833827  1.0000
  C   C5        1.0  0.22593251090391675  0.4168214436575326  0.5777375008367117  1.0000
  C   C6        1.0  0.5831787046064747  0.7740679729625201  0.922262669518254  1.0000
  C   C7        1.0  0.7740679531528227  0.58317788780122  0.42226296023442705  1.0000
  C   C8        1.0  0.416821073876015  0.22593289043031475  0.07773761694342338  1.0000
  C   C9        1.0  0.25471508891300937  0.4852045206582289  0.5824188031673644  1.0000
  C   C10       1.0  0.5147947596876178  0.7452858299173146  0.9175801860161386  1.0000
  C   C11       1.0  0.7452853740014047  0.5147941643238456  0.4175813606935038  1.0000
  C   C12       1.0  0.48520570864609164  0.2547141511494715  0.08241884769850572  1.0000
  C   C13       1.0  0.32922039233854855  0.4618303911579887  0.6096480943201074  1.0000
  C   C14       1.0  0.5381695747491761  0.6707798476688184  0.8903521316451589  1.0000
  C   C15       1.0  0.6707807619280785  0.5381687036685533  0.39035184235594766  1.0000
  C   C16       1.0  0.46183158415307446  0.3292205424595949  0.1096471060263724  1.0000
  C   C17       1.0  0.37537469227852677  0.3691331781518983  0.6321476045175416  1.0000
  C   C18       1.0  0.6308667431000073  0.6246262246171312  0.8678524140077074  1.0000
  C   C19       1.0  0.6246257709945553  0.6308661525240213  0.36785328769528297  1.0000
  C   C20       1.0  0.3691330396594451  0.37537528838372947  0.13214644509748297  1.0000
  C   C21       1.0  0.34888973511503707  0.2996552525848131  0.6268506725563724  1.0000
  C   C22       1.0  0.7003453246132452  0.6511100708620674  0.8731507084443778  1.0000
  C   C23       1.0  0.6511114210775659  0.700344489501248  0.37314913018826706  1.0000
  C   C24       1.0  0.2996544511595971  0.34889014448841493  0.1268501430904081  1.0000
  C   C25       1.0  0.2740263221506821  0.3239656232875206  0.5998583959829914  1.0000
  C   C26       1.0  0.6760343279147347  0.725973650754945  0.9001427039093884  1.0000
  C   C27       1.0  0.7259741399800744  0.6760330609117133  0.4001421990195695  1.0000
  C   C28       1.0  0.3239661353583472  0.27402567992097465  0.09985818830343618  1.0000
  C   C29       1.0  0.4567419702316825  0.289921465539159  0.7141059385212075  1.0000
  C   C30       1.0  0.7100785997472129  0.5432595976864579  0.7858942577408358  1.0000
  C   C31       1.0  0.5432584949673823  0.7100785123962725  0.2858948197601947  1.0000
  C   C32       1.0  0.2899204900927187  0.4567415039042615  0.21410569083253964  1.0000
  C   C33       1.0  0.5447156832306844  0.24554875823636743  0.7279643327516822  1.0000
  C   C34       1.0  0.7544518850158538  0.45528601473568414  0.7720360748620363  1.0000
  C   C35       1.0  0.45528478467802797  0.7544518677414231  0.2720358604566044  1.0000
  C   C36       1.0  0.24554720482407075  0.5447150868550353  0.22796387371133878  1.0000
  C   C37       1.0  0.5549590059277633  0.18789370645952644  0.7852632501321608  1.0000
  C   C38       1.0  0.8121067430100836  0.445041754954069  0.7147373531313759  1.0000
  C   C39       1.0  0.44504146005495926  0.8121062722587384  0.21473707700755543  1.0000
  C   C40       1.0  0.18789234682984804  0.5549593466366431  0.2852625954419992  1.0000
  C   C41       1.0  0.4783501348363046  0.17325873007514048  0.8291663310189891  1.0000
  C   C42       1.0  0.8267411563295822  0.521651169469948  0.670833879848587  1.0000
  C   C43       1.0  0.5216510205726407  0.8267410112280801  0.1708339028673366  1.0000
  C   C44       1.0  0.17325724330046197  0.4783501687529821  0.32916659311986507  1.0000
  C   C45       1.0  0.3907887991503145  0.21921743703523325  0.8146311351243085  1.0000
  C   C46       1.0  0.7807836881790564  0.609212014113062  0.6853689955224169  1.0000
  C   C47       1.0  0.6092109785485107  0.7807834255747681  0.18536958247905483  1.0000
  C   C48       1.0  0.2192154035868583  0.39078973473717593  0.314630819119543  1.0000
  C   C49       1.0  0.3791484052840061  0.2776813096063791  0.7577728151195445  1.0000
  C   C50       1.0  0.7223192083339354  0.6208528791408413  0.7422273824877763  1.0000
  C   C51       1.0  0.620852752050929  0.7223190789563604  0.24222728483536574  1.0000
  C   C52       1.0  0.27767988072233857  0.3791482216670376  0.25777299722729197  1.0000
  C   C53       1.0  0.4891655391832116  0.11021536855540152  0.8904358248578746  1.0000
  C   C54       1.0  0.8897855027740674  0.5108333395745178  0.6095642114396753  1.0000
  C   C55       1.0  0.5108335479470724  0.8897850849929654  0.10956468878861607  1.0000
  C   C56       1.0  0.11021427456609699  0.48916687734163855  0.3904357778117316  1.0000
  C   C57       1.0  0.05132939296446179  0.755855575112854  0.4361773634020025  1.0000
  C   C58       1.0  0.2441440355040285  0.9486706949510476  0.06382157829293801  1.0000
  C   C59       1.0  0.9486717625108196  0.24414287558552442  0.563820982638724  1.0000
  C   C60       1.0  0.7558557406938177  0.05132887548842295  0.9361781137482056  1.0000
  C   C61       1.0  0.059899012362350776  0.8391259993030433  0.4334715549221001  1.0000
  C   C62       1.0  0.16087381970723408  0.9401004594347526  0.06652794313621509  1.0000
  C   C63       1.0  0.9400986998337967  0.16087493298960018  0.5665269895227142  1.0000
  C   C64       1.0  0.8391259518549744  0.059897815702846934  0.9334724479094589  1.0000
  C   C65       1.0  0.006517971886452798  0.889966674918341  0.47972060167062125  1.0000
  C   C66       1.0  0.11003265768999167  0.9934816128179949  0.020278600424553837  1.0000
  C   C67       1.0  0.9934824972309214  0.11003330693127825  0.520278000902337  1.0000
  C   C68       1.0  0.8899664244460012  0.006516899734656194  0.9797218838745109  1.0000
  C   C69       1.0  0.9443963949666382  0.8535198539963744  0.5266602485444095  1.0000
  C   C70       1.0  0.14648020489308783  0.0556027199367293  0.9733396355920833  1.0000
  C   C71       1.0  0.055602004729749396  0.14648019362170567  0.47333833657844326  1.0000
  C   C72       1.0  0.8535195666691279  0.9443955552008707  0.026660755453590743  1.0000
  C   C73       1.0  0.9395680362605815  0.7701140805341994  0.5260884870478293  1.0000
  C   C74       1.0  0.22988583205003718  0.06043215495477479  0.9739115924620237  1.0000
  C   C75       1.0  0.06043243364045028  0.22988590209825338  0.47390968438343606  1.0000
  C   C76       1.0  0.7701146297220586  0.9395658835506141  0.02608827418858081  1.0000
  C   C77       1.0  0.017945443289256995  0.9759220692055525  0.4772253319753119  1.0000
  C   C78       1.0  0.024075921896070395  0.9820546677018458  0.022774510457239175  1.0000
  C   C79       1.0  0.9820570867615003  0.02407525705469032  0.5227742549151273  1.0000
  C   C80       1.0  0.9759231610235871  0.01794384563364566  0.9772255427001324  1.0000
  N   N1        1.0  0.9922321767407636  0.7218983137189524  0.4817683479803209  1.0000
  N   N2        1.0  0.2781011063306735  0.007768690818053909  0.018231654808097596  1.0000
  N   N3        1.0  0.0077696712290489  0.27810119330057165  0.518230068085863  1.0000
  N   N4        1.0  0.7218986690835008  0.9922308788385767  0.9817684683747389  1.0000
  O   O1        1.0  0.10596238389263848  0.5283424715114508  0.5289314463402733  1.0000
  O   O2        1.0  0.4716570135198522  0.8940388522785625  0.9710688340221837  1.0000
  O   O3        1.0  0.8940387688066592  0.4716566217494176  0.47106935261916755  1.0000
  O   O4        1.0  0.5283420755364147  0.10596224852932325  0.028931545692877616  1.0000
  O   O5        1.0  0.11946629756624816  0.37780901417654195  0.5487644235787955  1.0000
  O   O6        1.0  0.6221905427685783  0.8805327254754617  0.9512362075571731  1.0000
  O   O7        1.0  0.8805327849284054  0.622190144069947  0.4512367890722191  1.0000
  O   O8        1.0  0.3778092318619385  0.11946684339833526  0.04876434676734933  1.0000
  O   O9        1.0  0.45112900517765536  0.34838325110946056  0.6572474572433932  1.0000
  O   O10       1.0  0.6516177584193201  0.5488713827723615  0.8427523923668403  1.0000
  O   O11       1.0  0.5488714608050741  0.6516167276088116  0.342752869896323  1.0000
  O   O12       1.0  0.3483833985569476  0.4511283600965329  0.15724697923610617  1.0000
  O   O13       1.0  0.5685971185109366  0.07832305646182638  0.9039896684896932  1.0000
  O   O14       1.0  0.9216771644181703  0.43140249248786244  0.5960107200131474  1.0000
  O   O15       1.0  0.43140196783568285  0.9216773963037003  0.0960112762984834  1.0000
  O   O16       1.0  0.07832192349577129  0.568597961843338  0.40398936249165024  1.0000
  O   O17       1.0  0.4177963973242456  0.09273343755078405  0.924854936383838  1.0000
  O   O18       1.0  0.907267251340947  0.5822028434614168  0.5751455235670874  1.0000
  O   O19       1.0  0.5822026925156861  0.9072676640399354  0.07514501218954447  1.0000
  O   O20       1.0  0.09273252521555968  0.4177973726719059  0.42485489682601246  1.0000
