data_image0
_chemical_formula_structural       Cu4H40C44N12
_chemical_formula_sum              "Cu4 H40 C44 N12"
_cell_length_a       8.859491033413084
_cell_length_b       8.93587696605229
_cell_length_c       16.42466104988241
_cell_angle_alpha    74.20029814693726
_cell_angle_beta     82.33607934222722
_cell_angle_gamma    60.604242973982764

_space_group_name_H-M_alt    "P 1"
_space_group_IT_number       1

loop_
  _space_group_symop_operation_xyz
  'x, y, z'

loop_
  _atom_site_type_symbol
  _atom_site_label
  _atom_site_symmetry_multiplicity
  _atom_site_fract_x
  _atom_site_fract_y
  _atom_site_fract_z
  _atom_site_occupancy
  Cu  Cu1       1.0  0.3497688031912104  0.46693985882102873  0.562731999830106  1.0000
  Cu  Cu2       1.0  0.8495836952996143  0.029642642466051125  0.4373030392745462  1.0000
  Cu  Cu3       1.0  0.2863352853619218  0.3891873774947642  0.06750661063262695  1.0000
  Cu  Cu4       1.0  0.7863261191754416  0.4567258345123618  0.9324433682203546  1.0000
  H   H1        1.0  0.02079917896462292  0.4793592172839497  0.6433423383364526  1.0000
  H   H2        1.0  0.520671303965848  0.12316139221669423  0.3564301903962459  1.0000
  H   H3        1.0  0.8404510456098251  0.33098818916479195  0.6520698114127227  1.0000
  H   H4        1.0  0.340075732439665  0.983815969277977  0.347599960089262  1.0000
  H   H5        1.0  0.9628568074570153  0.06094446447587399  0.5918775376781013  1.0000
  H   H6        1.0  0.4622014222435167  0.6535350926455975  0.40795152046077715  1.0000
  H   H7        1.0  0.26248253624469003  0.9453771267792634  0.534440072746605  1.0000
  H   H8        1.0  0.7617021441574537  0.48026745081212147  0.465601185150163  1.0000
  H   H9        1.0  0.42557917486772107  0.11322036281270433  0.529790658855049  1.0000
  H   H10       1.0  0.925115544954913  0.6431678847394341  0.4702749043394617  1.0000
  H   H11       1.0  0.21039878487778177  0.6148135395562025  0.7153061009593812  1.0000
  H   H12       1.0  0.710420115608727  0.3301091171431095  0.2848703324640312  1.0000
  H   H13       1.0  0.2600670856281723  0.5011363763916065  0.8734029857650183  1.0000
  H   H14       1.0  0.759698090981658  0.3746716772068908  0.1267347259971458  1.0000
  H   H15       1.0  0.5232672772384389  0.2189087975222965  0.9272973593091859  1.0000
  H   H16       1.0  0.022741192297537786  0.14638311370222112  0.07284871422406518  1.0000
  H   H17       1.0  0.7264449673632426  0.04977051280662448  0.8227144022518117  1.0000
  H   H18       1.0  0.22617170887128413  0.8725713236953682  0.17739065555043243  1.0000
  H   H19       1.0  0.6524212031311831  0.17740419776676225  0.6679114184323253  1.0000
  H   H20       1.0  0.15246378162457552  0.8451710826668448  0.33222029498366346  1.0000
  H   H21       1.0  0.0799518954029067  0.3268637801658656  0.21882160057216274  1.0000
  H   H22       1.0  0.5796605035300785  0.5459670185291828  0.7811576007438532  1.0000
  H   H23       1.0  0.04431324837848646  0.3454856152851918  0.36990035364514273  1.0000
  H   H24       1.0  0.5440590767673613  0.7155035073218485  0.6300047946165106  1.0000
  H   H25       1.0  0.21578048157222435  0.4598318257043987  0.42293518708381567  1.0000
  H   H26       1.0  0.7158200503310749  0.882611257652357  0.5768636630824984  1.0000
  H   H27       1.0  0.41215608533573084  0.544670614345158  0.32201355079877186  1.0000
  H   H28       1.0  0.9123059648821512  0.8664676737348956  0.6777457231237346  1.0000
  H   H29       1.0  0.4285917003076135  0.5212366303449443  0.1711613993553839  1.0000
  H   H30       1.0  0.928740409280152  0.6922351679502798  0.828660461224821  1.0000
  H   H31       1.0  0.5995079857724263  0.12148338322059977  0.17852471648943435  1.0000
  H   H32       1.0  0.09970117981077195  0.2999658222192638  0.8216606256643785  1.0000
  H   H33       1.0  0.834695093254403  0.8095278054608743  0.19167268673942311  1.0000
  H   H34       1.0  0.3349104204061176  0.0011536570424937112  0.8085308237880894  1.0000
  H   H35       1.0  0.8099493005366936  0.6253120132935379  0.10687463520933693  1.0000
  H   H36       1.0  0.3101463944616043  0.7320386738979605  0.893298689939911  1.0000
  H   H37       1.0  0.5444362318455092  0.758157020177066  0.018868609708597595  1.0000
  H   H38       1.0  0.04463608272787651  0.7767808820547659  0.9811968540382734  1.0000
  H   H39       1.0  0.3179790892767898  0.07314873046689031  0.014967314756006494  1.0000
  H   H40       1.0  0.8181554078368192  0.08789757651438662  0.9850832982398855  1.0000
  C   C1        1.0  0.6761149761974606  0.21619743895868038  0.47885552165744355  1.0000
  C   C2        1.0  0.17622666180622548  0.695079419570277  0.5211749042745096  1.0000
  C   C3        1.0  0.07026885551839243  0.3592869618236707  0.6209018158741911  1.0000
  C   C4        1.0  0.569995480595928  0.9806517619122203  0.3788859946052482  1.0000
  C   C5        1.0  0.9704139156455722  0.27616558930190405  0.62538937372328  1.0000
  C   C6        1.0  0.47002063974707653  0.9021784767547061  0.37434211555626  1.0000
  C   C7        1.0  0.03890074056342035  0.12567150151574674  0.5935918089094797  1.0000
  C   C8        1.0  0.5383528540974181  0.7198706800490412  0.40623277509543937  1.0000
  C   C9        1.0  0.2059161574519662  0.06235425624018374  0.5599090996521169  1.0000
  C   C10       1.0  0.7053161246861775  0.6227215901921144  0.4400540079434093  1.0000
  C   C11       1.0  0.29649825713334366  0.15406848315803512  0.5575848246282361  1.0000
  C   C12       1.0  0.7960385313297776  0.7119443597546393  0.4424185693303853  1.0000
  C   C13       1.0  0.32219800215646893  0.48956776472765284  0.7424673216315084  1.0000
  C   C14       1.0  0.8221375680587639  0.232073231310217  0.2576848848513292  1.0000
  C   C15       1.0  0.3505944617615526  0.42749940264661024  0.8293474317059121  1.0000
  C   C16       1.0  0.8502904945442751  0.2569478219693906  0.17080297150806692  1.0000
  C   C17       1.0  0.49772386712091754  0.2674851553131392  0.8596411453817366  1.0000
  C   C18       1.0  0.9973304181303746  0.12723632807038143  0.14050893779891988  1.0000
  C   C19       1.0  0.609930262193302  0.17497310209594033  0.801786546912197  1.0000
  C   C20       1.0  0.1097072572339072  0.976802913443109  0.19834026912850777  1.0000
  C   C21       1.0  0.5708262561280146  0.24546805102171768  0.7158863127270079  1.0000
  C   C22       1.0  0.07079998395033009  0.9612808853536807  0.28424766073782576  1.0000
  C   C23       1.0  0.5908076120343111  0.45952325319527176  0.9901137758329454  1.0000
  C   C24       1.0  0.09071484575884632  0.44971944051433604  0.009837275833127955  1.0000
  C   C25       1.0  0.1497218962038146  0.3760596759488239  0.24438956315847082  1.0000
  C   C26       1.0  0.6495978352921553  0.6205320145946093  0.7555099264960744  1.0000
  C   C27       1.0  0.1304979026765381  0.387192196604893  0.3284209706274764  1.0000
  C   C28       1.0  0.6304133011141885  0.7155878009015454  0.671440520969945  1.0000
  C   C29       1.0  0.22461644828852914  0.44975164631129877  0.35759989802262027  1.0000
  C   C30       1.0  0.7246749134699823  0.8071768922703629  0.642205194823866  1.0000
  C   C31       1.0  0.33417461994710596  0.4984487223002462  0.30113788993578067  1.0000
  C   C32       1.0  0.8343124276122963  0.7993797014030832  0.6986496684750917  1.0000
  C   C33       1.0  0.34510967255285147  0.4846008368168597  0.21796445792229233  1.0000
  C   C34       1.0  0.8452234553021966  0.702399935424737  0.7818620247179947  1.0000
  C   C35       1.0  0.5908928024803969  0.03559819456641832  0.1452335351752581  1.0000
  C   C36       1.0  0.09113340782837288  0.18073732121679623  0.8549340797400474  1.0000
  C   C37       1.0  0.7221357063075191  0.8618747082745699  0.15193460029575315  1.0000
  C   C38       1.0  0.22237998350070126  0.013717685992908702  0.8482423027069642  1.0000
  C   C39       1.0  0.7074214138392491  0.7594435462115925  0.10585310771831749  1.0000
  C   C40       1.0  0.20764596360486112  0.8651673688292052  0.8943080384897893  1.0000
  C   C41       1.0  0.5600145481681552  0.8340614396033174  0.055998113549229206  1.0000
  C   C42       1.0  0.06022295396513023  0.8898697820884892  0.9441027873634763  1.0000
  C   C43       1.0  0.43451388909900157  0.0082510876004989  0.05364928949906299  1.0000
  C   C44       1.0  0.9347008914068482  0.06173882421494894  0.9464441873351958  1.0000
  N   N1        1.0  0.5575500741561115  0.32544446765869856  0.5077947388962086  1.0000
  N   N2        1.0  0.057451981308652436  0.8331844867503336  0.49228805245317614  1.0000
  N   N3        1.0  0.23012271278647486  0.3012358137830589  0.5868090934657458  1.0000
  N   N4        1.0  0.7297969175736087  0.8883404705805233  0.413108133130656  1.0000
  N   N5        1.0  0.4296477056367676  0.400393606006553  0.6861098879050471  1.0000
  N   N6        1.0  0.9297006058499236  0.08644650396393427  0.31402514229894507  1.0000
  N   N7        1.0  0.4687233644055411  0.4513621130441123  0.025245762288022854  1.0000
  N   N8        1.0  0.9685719534986887  0.4767821113825122  0.9747281590476999  1.0000
  N   N9        1.0  0.2546977420479166  0.424028174452566  0.18947582222028803  1.0000
  N   N10       1.0  0.7546752083063595  0.613509707292515  0.810405804108555  1.0000
  N   N11       1.0  0.4493873525242264  0.10917040632445923  0.09665861680510798  1.0000
  N   N12       1.0  0.9496023880137655  0.20570492202676158  0.9034570004400918  1.0000
