data_image0
_chemical_formula_structural       Mn2H16C20N28
_chemical_formula_sum              "Mn2 H16 C20 N28"
_cell_length_a       8.1739577681324
_cell_length_b       8.266733256422288
_cell_length_c       11.885015712565863
_cell_angle_alpha    82.97136116990997
_cell_angle_beta     69.90350785925067
_cell_angle_gamma    81.47828659233231

_space_group_name_H-M_alt    "P 1"
_space_group_IT_number       1

loop_
  _space_group_symop_operation_xyz
  'x, y, z'

loop_
  _atom_site_type_symbol
  _atom_site_label
  _atom_site_symmetry_multiplicity
  _atom_site_fract_x
  _atom_site_fract_y
  _atom_site_fract_z
  _atom_site_occupancy
  Mn  Mn1       1.0  0.029603753479399603  0.2889652398817121  0.47953330284556034  1.0000
  Mn  Mn2       1.0  0.9716487473451847  0.6899476639266313  0.5178721463817341  1.0000
  H   H1        1.0  0.40612910263582336  0.285984910346734  0.4541813420895409  1.0000
  H   H2        1.0  0.573826339257664  0.7205837364308537  0.5542621748312941  1.0000
  H   H3        1.0  0.6931673701060745  0.3017625395033789  0.29079450827000397  1.0000
  H   H4        1.0  0.28529387506991805  0.7055472498167389  0.718099759441799  1.0000
  H   H5        1.0  0.4108789733242659  0.3519191670096476  0.03733478651700039  1.0000
  H   H6        1.0  0.5697256030052243  0.6418660486721848  0.9711148753494145  1.0000
  H   H7        1.0  0.13879744120380613  0.32976078187752483  0.21012625914531213  1.0000
  H   H8        1.0  0.8434051552536774  0.6633417456128825  0.7968097208149204  1.0000
  H   H9        1.0  0.6570676180443656  0.2921430772364816  0.5025625869635207  1.0000
  H   H10       1.0  0.35525810264398666  0.7135395155183489  0.488462036187542  1.0000
  H   H11       1.0  0.39159372271779347  0.18433336884452706  0.6505456140509978  1.0000
  H   H12       1.0  0.6205385797685279  0.8311957106642115  0.3442258554200066  1.0000
  H   H13       1.0  0.6653233325810034  0.11219381907381633  0.9097649342269706  1.0000
  H   H14       1.0  0.35496938986635473  0.9002363359534871  0.08019417774389839  1.0000
  H   H15       1.0  0.9214822474872547  0.21576653198407314  0.7500371568578857  1.0000
  H   H16       1.0  0.10078804584987473  0.7828115476072669  0.23687195307979184  1.0000
  C   C1        1.0  0.4134466870731117  0.30091440331391084  0.36048736404583076  1.0000
  C   C2        1.0  0.5664748825994863  0.7019058873777055  0.6481068374859404  1.0000
  C   C3        1.0  0.5728313929212447  0.31005773290411304  0.269126581399469  1.0000
  C   C4        1.0  0.4064386754118558  0.6935490790838019  0.7392593906337199  1.0000
  C   C5        1.0  0.5756903057808812  0.3308159716562499  0.1492647880274873  1.0000
  C   C6        1.0  0.40526756192285524  0.6696503769587068  0.8587014448396675  1.0000
  C   C7        1.0  0.4158557162235468  0.3386953846742884  0.1283496676101876  1.0000
  C   C8        1.0  0.5650739732226313  0.6583624673004638  0.8800519352318547  1.0000
  C   C9        1.0  0.2629664740075341  0.32719753204281693  0.22518966604074822  1.0000
  C   C10       1.0  0.7179683630669799  0.6691022362184142  0.7826816242935025  1.0000
  C   C11       1.0  0.6537784402353708  0.24949867677587886  0.5934787885437487  1.0000
  C   C12       1.0  0.36142584443209097  0.7567327603411587  0.3968988560008954  1.0000
  C   C13       1.0  0.5058636122271877  0.19076239650596707  0.6765201089980197  1.0000
  C   C14       1.0  0.508758933626737  0.8205798799424076  0.3164489761969734  1.0000
  C   C15       1.0  0.5076700157198103  0.1385449939775683  0.793148595378277  1.0000
  C   C16       1.0  0.5083711960129306  0.8717797898194847  0.19946968594779693  1.0000
  C   C17       1.0  0.6587578859596945  0.15084464503760842  0.8203820903071776  1.0000
  C   C18       1.0  0.35976970652257023  0.8586709398500859  0.16961914827366087  1.0000
  C   C19       1.0  0.8017895651560494  0.20912734259091798  0.7310741253941373  1.0000
  C   C20       1.0  0.21853964782827262  0.7939027152373939  0.25709203383032525  1.0000
  N   N1        1.0  0.10461957798202795  0.472744098614733  0.5816157225996221  1.0000
  N   N2        1.0  0.9104079876097373  0.5125824561568139  0.41970816317829923  1.0000
  N   N3        1.0  0.1217047067162582  0.4416611786170393  0.6791816410813921  1.0000
  N   N4        1.0  0.8850470487610947  0.5461664232469803  0.3245643388970407  1.0000
  N   N5        1.0  0.14170416176948913  0.4132238581169574  0.7725555141041911  1.0000
  N   N6        1.0  0.8561534673486334  0.5817805921058297  0.23466017913685283  1.0000
  N   N7        1.0  0.9580325613983476  0.15098942179213282  0.3824235673790995  1.0000
  N   N8        1.0  0.05488665442071292  0.8377941610752871  0.6277701287159658  1.0000
  N   N9        1.0  0.8972513206541846  0.023865520441987108  0.40894764755810814  1.0000
  N   N10       1.0  0.10123257092746481  0.969345181495207  0.5924409086506017  1.0000
  N   N11       1.0  0.8410504776301976  0.8950257541376349  0.4309139250145151  1.0000
  N   N12       1.0  0.15268107965305688  0.09937245651719451  0.5552512119683044  1.0000
  N   N13       1.0  0.2576626905319229  0.3092887227561152  0.3414925580878575  1.0000
  N   N14       1.0  0.7208464356022404  0.6892544128610254  0.6677850062988356  1.0000
  N   N15       1.0  0.7270791642349649  0.3426813346217017  0.04830445292843423  1.0000
  N   N16       1.0  0.25406611128016  0.6580228751136376  0.9596210978861849  1.0000
  N   N17       1.0  0.8734489296821834  0.32737159943710037  0.05957323219963945  1.0000
  N   N18       1.0  0.10828409305013759  0.6709414401418813  0.9472264648552767  1.0000
  N   N19       1.0  0.017726955687564296  0.31290234203250833  0.0537764690843545  1.0000
  N   N20       1.0  0.9648749509550709  0.6816004683545317  0.9522861827804974  1.0000
  N   N21       1.0  0.8049469990095658  0.25480560070404584  0.6164677376466089  1.0000
  N   N22       1.0  0.2168727411380473  0.7443338354678418  0.3697607662457827  1.0000
  N   N23       1.0  0.3670216823716359  0.07528577115122913  0.8852394341117744  1.0000
  N   N24       1.0  0.6495841928260829  0.9362175507378087  0.10862017351993802  1.0000
  N   N25       1.0  0.23109217453541225  0.0605676094226482  0.8663113518998387  1.0000
  N   N26       1.0  0.7866830846941468  0.9430831069091286  0.12884921596956633  1.0000
  N   N27       1.0  0.09721717335070677  0.037946462692517  0.8636104033323164  1.0000
  N   N28       1.0  0.92159142082852  0.9585448047428077  0.13289728863477984  1.0000
