data_image0
_chemical_formula_structural       Al2H16C30O12F2
_chemical_formula_sum              "Al2 H16 C30 O12 F2"
_cell_length_a       6.680329867453231
_cell_length_b       15.222301595129615
_cell_length_c       17.77005221102648
_cell_angle_alpha    88.62923117584931
_cell_angle_beta     80.32458522765711
_cell_angle_gamma    78.7611383544511

_space_group_name_H-M_alt    "P 1"
_space_group_IT_number       1

loop_
  _space_group_symop_operation_xyz
  'x, y, z'

loop_
  _atom_site_type_symbol
  _atom_site_label
  _atom_site_symmetry_multiplicity
  _atom_site_fract_x
  _atom_site_fract_y
  _atom_site_fract_z
  _atom_site_occupancy
  Al  Al1       1.0  0.5000035076525506  0.5000050773950591  0.49999903637917237  1.0000
  Al  Al2       1.0  1.1772272884486826e-05  0.4999951383608733  0.49999185706893456  1.0000
  H   H1        1.0  0.24331672764423468  0.43170501785674287  0.5806558332988415  1.0000
  H   H2        1.0  0.7567147002426395  0.5683010475147868  0.4193322914920188  1.0000
  H   H3        1.0  0.677950949441545  0.46323757880741573  0.271521431318753  1.0000
  H   H4        1.0  0.7573002274608027  0.4579347755621087  0.12939407379128198  1.0000
  H   H5        1.0  0.1042634818770907  0.5472031270864265  0.12259569799417848  1.0000
  H   H6        1.0  0.8958766805532008  0.45292001319519676  0.8773734533323532  1.0000
  H   H7        1.0  0.3220717007936713  0.5367170484040003  0.728482680399736  1.0000
  H   H8        1.0  0.2427677982411538  0.5420140947967056  0.8706116760753133  1.0000
  H   H9        1.0  0.7025666342892619  0.933669072261651  0.5227521882909156  1.0000
  H   H10       1.0  0.29737686388782697  0.06629332563461791  0.47709039533015823  1.0000
  H   H11       1.0  0.5678168037978323  0.22474884161592712  0.49913192565097114  1.0000
  H   H12       1.0  0.6413413706301869  0.061981393050452  0.5097138848412256  1.0000
  H   H13       1.0  0.43210963564877863  0.7752786644767654  0.50101900722494  1.0000
  H   H14       1.0  0.3585339289516227  0.9380455789430543  0.490492317578095  1.0000
  H   H15       1.0  0.8032276494853504  0.700489230207076  0.5351606978746587  1.0000
  H   H16       1.0  0.19678849880806845  0.2994746251138451  0.46473488343408315  1.0000
  C   C1        1.0  0.8352535671237646  0.33751215094807924  0.4837189571744247  1.0000
  C   C2        1.0  0.6852605043206809  0.4948026345485061  0.6375511999616561  1.0000
  C   C3        1.0  0.16473917457708606  0.662480719591983  0.5162919731670073  1.0000
  C   C4        1.0  0.3147655904442318  0.5052114268914281  0.36243530496751925  1.0000
  C   C5        1.0  0.3506286010266848  0.5053345213127471  0.27746574178763683  1.0000
  C   C6        1.0  0.5543529155788889  0.4805733197092366  0.2377590039526396  1.0000
  C   C7        1.0  0.5985055996368871  0.4780398558198016  0.1587764028318475  1.0000
  C   C8        1.0  0.4372030230640149  0.5017011280456601  0.11547727996349977  1.0000
  C   C9        1.0  0.23226840758761108  0.527346880257447  0.15401055880236916  1.0000
  C   C10       1.0  0.19277764482805543  0.5284073578312132  0.23314706044331499  1.0000
  C   C11       1.0  0.480358469639853  0.5004885528984886  0.034813492915382896  1.0000
  C   C12       1.0  0.5197814972919019  0.49954905303913216  0.9651768148540679  1.0000
  C   C13       1.0  0.5629023201531709  0.4983355926256934  0.8845120298095779  1.0000
  C   C14       1.0  0.7678348845023208  0.4727453812157592  0.8459695393503989  1.0000
  C   C15       1.0  0.8073001577445282  0.4716840906950992  0.7668331065500097  1.0000
  C   C16       1.0  0.6494102386332159  0.4947011338172659  0.722522485936416  1.0000
  C   C17       1.0  0.445679310316045  0.5194154586721923  0.7622375797686158  1.0000
  C   C18       1.0  0.4015716981936492  0.5219472462608863  0.8412245045528977  1.0000
  C   C19       1.0  0.11385662686620897  0.7607715822063028  0.5161783308478716  1.0000
  C   C20       1.0  0.8860892547973407  0.23922798857901034  0.48384509909788415  1.0000
  C   C21       1.0  0.9059301365507012  0.8079595933776105  0.5234139258663218  1.0000
  C   C22       1.0  0.8646838474141204  0.9013920097921259  0.5172503774550066  1.0000
  C   C23       1.0  0.09402135441941788  0.19201985276653494  0.4765411909228232  1.0000
  C   C24       1.0  0.1352591466385036  0.09858850812054952  0.48269345581690704  1.0000
  C   C25       1.0  0.7272885454008886  0.189353319078549  0.4951236249692315  1.0000
  C   C26       1.0  0.770260458477324  0.09710733556137541  0.5007935576667746  1.0000
  C   C27       1.0  0.2726380523037903  0.8106638124410708  0.5049781447328809  1.0000
  C   C28       1.0  0.2296359327986863  0.9029072731677986  0.4993249863192588  1.0000
  C   C29       1.0  0.02353582024761646  0.9505968004517342  0.5042205401262407  1.0000
  C   C30       1.0  0.9763737267249368  0.04939676604337961  0.4958151411364183  1.0000
  O   O1        1.0  0.6467716350978492  0.3772501193180987  0.49473322412432447  1.0000
  O   O2        1.0  0.8708986754682256  0.48439005080172143  0.6025121134179796  1.0000
  O   O3        1.0  0.009941618011325079  0.6209061806129769  0.5256427246723874  1.0000
  O   O4        1.0  0.4751431649908823  0.4942536567841104  0.39427227532727466  1.0000
  O   O5        1.0  0.3532412194279857  0.6227592533811832  0.5052914990842792  1.0000
  O   O6        1.0  0.12911002860763432  0.5156057188193728  0.3974711741247035  1.0000
  O   O7        1.0  0.9900720630351356  0.3790822289981577  0.47434049498547637  1.0000
  O   O8        1.0  0.5248690536906866  0.5057552004126293  0.6057266179854108  1.0000
  O   O9        1.0  0.2555405428074308  0.45677439072541404  0.529738594890766  1.0000
  O   O10       1.0  0.7444827279185587  0.5432228163711628  0.4702453412983729  1.0000
  O   O11       1.0  0.7427770812746955  0.7661995394463761  0.5354902065221125  1.0000
  O   O12       1.0  0.25721680927383517  0.23376182906729076  0.4643878369923797  1.0000
  F   F1        1.0  0.9915806742421013  0.5545615941787645  0.2663858211983267  1.0000
  F   F2        1.0  0.008507374627697586  0.4455880646720943  0.7335808257232939  1.0000
