data_image0
_chemical_formula_structural       Al6H17C96I10Br17O28
_chemical_formula_sum              "Al6 H17 C96 I10 Br17 O28"
_cell_length_a       13.80988940699229
_cell_length_b       14.068146355283499
_cell_length_c       26.87902717844681
_cell_angle_alpha    90.2259365580362
_cell_angle_beta     90.87077718099356
_cell_angle_gamma    62.09879251298347

_space_group_name_H-M_alt    "P 1"
_space_group_IT_number       1

loop_
  _space_group_symop_operation_xyz
  'x, y, z'

loop_
  _atom_site_type_symbol
  _atom_site_label
  _atom_site_symmetry_multiplicity
  _atom_site_fract_x
  _atom_site_fract_y
  _atom_site_fract_z
  _atom_site_occupancy
  Al  Al1       1.0  0.3688288963912  0.1717444916166997  0.4932890994554313  1.0000
  Al  Al2       1.0  0.42830690721988407  0.9224394172221366  0.49986511022166275  1.0000
  Al  Al3       1.0  0.6130706759584258  0.9770911128122249  0.5044646645692481  1.0000
  Al  Al4       1.0  0.9403907078862018  0.187687216494389  0.9830861342309021  1.0000
  Al  Al5       1.0  0.7077234399074683  0.39811130979902026  0.9868074232502551  1.0000
  Al  Al6       1.0  0.9085659878464156  0.4274119476853215  0.9854278858520046  1.0000
  H   H1        1.0  0.5833743769438227  0.056347831005730604  0.18052384408350264  1.0000
  H   H2        1.0  0.47399622145237424  0.2390369325622075  0.2431978962585575  1.0000
  H   H3        1.0  0.06160384726268828  0.30934807467536274  0.2855835167099343  1.0000
  H   H4        1.0  0.3800669560107793  0.11874969803113092  0.2619238029413253  1.0000
  H   H5        1.0  0.5903975747609563  0.5489812809322245  0.8596464768671552  1.0000
  H   H6        1.0  0.5196132315310535  0.7199708883438375  0.6196408206405195  1.0000
  H   H7        1.0  0.8079432226505928  0.8169355278447057  0.820993868041299  1.0000
  H   H8        1.0  0.7397505687457764  0.10712578368622164  0.6034115870409025  1.0000
  H   H9        1.0  0.9286588978370957  0.1116740991181828  0.7522830232660596  1.0000
  H   H10       1.0  0.3920987828787474  0.3230947268251185  0.812627547112946  1.0000
  H   H11       1.0  0.14578571140496172  0.2549104294176701  0.5958494298164895  1.0000
  H   H12       1.0  0.21903070283195095  0.9419108846700652  0.816539387927051  1.0000
  H   H13       1.0  0.797747540394994  0.43845138216372  0.2517238001684277  1.0000
  H   H14       1.0  0.8728259849416204  0.03246807368037  0.2247583364089607  1.0000
  H   H15       1.0  0.7349394364347646  0.947627048941456  0.2589162824663376  1.0000
  H   H16       1.0  0.27977156859707714  0.3548669431000917  0.5124520930709906  1.0000
  H   H17       1.0  0.03420323836922281  0.007717802732592798  0.0096156325131389  1.0000
  C   C1        1.0  0.2941694902214422  0.0534306013439974  0.4230807193951378  1.0000
  C   C2        1.0  0.6597152063555213  0.7421006658659195  0.398758316753657  1.0000
  C   C3        1.0  0.7506373810396881  0.5256453467181926  0.2553365248119377  1.0000
  C   C4        1.0  0.6965925734930494  0.6042407914609456  0.20921406987826427  1.0000
  C   C5        1.0  0.794427120841213  0.6022241932908373  0.2767224838248055  1.0000
  C   C6        1.0  0.6872644869605364  0.6645782982890155  0.308217179711356  1.0000
  C   C7        1.0  0.7396645348656532  0.6821817564018957  0.2319474543117437  1.0000
  C   C8        1.0  0.6319655937379096  0.7430562698860115  0.2623908339697323  1.0000
  C   C9        1.0  0.7056487981030982  0.5756734277191242  0.1581987090868893  1.0000
  C   C10       1.0  0.677210750182361  0.7021421871854089  0.35746960862807237  1.0000
  C   C11       1.0  0.7238972173968107  0.17642097168019424  0.2633260273537275  1.0000
  C   C12       1.0  0.6181712463424417  0.805776215115877  0.44280800224744615  1.0000
  C   C13       1.0  0.7840405114593239  0.07674858251971271  0.2289590196708886  1.0000
  C   C14       1.0  0.7337242201177003  0.1827873945712497  0.09477181530145629  1.0000
  C   C15       1.0  0.5925199599832993  0.13110395057928767  0.3761187476754984  1.0000
  C   C16       1.0  0.6382494733374245  0.23820112035219404  0.2206075425902085  1.0000
  C   C17       1.0  0.7004176282207621  0.1371893061493878  0.1851402925054657  1.0000
  C   C18       1.0  0.562467277073246  0.19147321754275737  0.2387009965727458  1.0000
  C   C19       1.0  0.6453309888615095  0.1310049585855566  0.2826229093694721  1.0000
  C   C20       1.0  0.6230665742861419  0.0910106991569535  0.20460057476729082  1.0000
  C   C21       1.0  0.7076782964026406  0.0305920851141863  0.247382040263652  1.0000
  C   C22       1.0  0.7227401857315385  0.15223726942025448  0.13565084951748926  1.0000
  C   C23       1.0  0.5629883211394712  0.11846615157973159  0.42577287991267104  1.0000
  C   C24       1.0  0.6172472498831496  0.1302052675830083  0.33278084897880683  1.0000
  C   C25       1.0  0.12020176272820747  0.24734018191006168  0.2613459404639471  1.0000
  C   C26       1.0  0.21115699469236657  0.2561810478510651  0.2305799715468595  1.0000
  C   C27       1.0  0.1295771328070359  0.259471017086085  0.09065353140153581  1.0000
  C   C28       1.0  0.2521377695665875  0.0675307253963311  0.3726434386483177  1.0000
  C   C29       1.0  0.09078093139057594  0.19762137150352288  0.21520700700139628  1.0000
  C   C30       1.0  0.18204143932577208  0.20735228458824653  0.183432629557096  1.0000
  C   C31       1.0  0.17674288248406358  0.08121337060370588  0.2323965799292651  1.0000
  C   C32       1.0  0.2072177840974589  0.13096092563107223  0.2794863783329475  1.0000
  C   C33       1.0  0.267831075608072  0.09154866713452493  0.2017263817591868  1.0000
  C   C34       1.0  0.2753670776764565  0.06656661855719653  0.5636838469104505  1.0000
  C   C35       1.0  0.2977449985590823  0.1410066746991205  0.2477816105132788  1.0000
  C   C36       1.0  0.16151806257702359  0.24094065354480423  0.1336571405718203  1.0000
  C   C37       1.0  0.22768155167185702  0.09358896055907452  0.32924666875717895  1.0000
  C   C38       1.0  0.5774895294772406  0.7292027933433473  0.6444058425701513  1.0000
  C   C39       1.0  0.5903632091203546  0.6928882452117409  0.693703901559573  1.0000
  C   C40       1.0  0.6045508081059908  0.6368121191660238  0.7968021886269484  1.0000
  C   C41       1.0  0.5420320103311624  0.6084083556487414  0.7620067753996977  1.0000
  C   C42       1.0  0.5381163373182076  0.632589904199925  0.7122234893189514  1.0000
  C   C43       1.0  0.6230501895049655  0.6012096538103436  0.8464726903182367  1.0000
  C   C44       1.0  0.6885836760749483  0.6246640491478815  0.8794854160191575  1.0000
  C   C45       1.0  0.6018121462614584  0.8315396549200288  0.5753995196593493  1.0000
  C   C46       1.0  0.7196779377567637  0.7822451414309272  0.6556141664545763  1.0000
  C   C47       1.0  0.716926064498274  0.7713107371749575  0.7080880566677551  1.0000
  C   C48       1.0  0.6533340636356115  0.7222616310960535  0.7273602910024053  1.0000
  C   C49       1.0  0.7705400073706485  0.8065796082201544  0.7448432319115739  1.0000
  C   C50       1.0  0.7691784558277986  0.7862739170555314  0.7944873315428751  1.0000
  C   C51       1.0  0.7190213497319176  0.7259005348608838  0.8132038091814097  1.0000
  C   C52       1.0  0.6578619212430254  0.6958758622502472  0.7789590289229765  1.0000
  C   C53       1.0  0.7303351227229412  0.6932827570818463  0.8635327279417098  1.0000
  C   C54       1.0  0.6373804040728931  0.7773403218905842  0.6252014551319149  1.0000
  C   C55       1.0  0.6756520035602304  0.1586706169414356  0.6286659227783317  1.0000
  C   C56       1.0  0.5457060405140838  0.15813085156813142  0.5650559743853378  1.0000
  C   C57       1.0  0.7034159049507877  0.17861424955297173  0.6762109861687976  1.0000
  C   C58       1.0  0.761395168618179  0.17588943299043794  0.7784617379940357  1.0000
  C   C59       1.0  0.8433128475954276  0.14115128732617419  0.7409419229731143  1.0000
  C   C60       1.0  0.8147271688853123  0.1439345572964328  0.6919297325243079  1.0000
  C   C61       1.0  0.7885159034953517  0.16440781512435618  0.8299319747781267  1.0000
  C   C62       1.0  0.7069116680719248  0.21966073157359728  0.8657856100186266  1.0000
  C   C63       1.0  0.48362425662465836  0.2727275426918681  0.6443507099591202  1.0000
  C   C64       1.0  0.5053180828172896  0.2719158446565899  0.6962880581981068  1.0000
  C   C65       1.0  0.6187619326171968  0.22585821533930076  0.7123645688624122  1.0000
  C   C66       1.0  0.4254745825930543  0.30633745681929975  0.7353853168405494  1.0000
  C   C67       1.0  0.6431722568631173  0.5874598549958492  0.28596612696316015  1.0000
  C   C68       1.0  0.4549323818933573  0.3001561128672776  0.7845355289746578  1.0000
  C   C69       1.0  0.5654575872290266  0.2624457320115923  0.8004265744434846  1.0000
  C   C70       1.0  0.6485294177098951  0.2237567160494152  0.7636750351666564  1.0000
  C   C71       1.0  0.5963106370520918  0.2629003865329054  0.8506556551006526  1.0000
  C   C72       1.0  0.5669356483922312  0.2017489054194002  0.6125205178802418  1.0000
  C   C73       1.0  0.15621486548358382  0.19583698428134966  0.6242263176339833  1.0000
  C   C74       1.0  0.11507005790323889  0.22950480102215925  0.6716216598516594  1.0000
  C   C75       1.0  0.06633226212920823  0.2996622699841822  0.7724086877792758  1.0000
  C   C76       1.0  0.01560047533569525  0.37362527864067374  0.73131765681034  1.0000
  C   C77       1.0  0.04541627231557752  0.3407202497701505  0.6832065040537785  1.0000
  C   C78       1.0  0.5882849052491609  0.6663089974764066  0.24077322027285666  1.0000
  C   C79       1.0  0.062520909967148  0.32858783308611816  0.8232133508796693  1.0000
  C   C80       1.0  0.09212154087875754  0.2511560048272941  0.8617705335921856  1.0000
  C   C81       1.0  0.2261832891587829  0.0091222999475349  0.647655383413607  1.0000
  C   C82       1.0  0.19038067628085997  0.0386022457771844  0.6973240094437189  1.0000
  C   C83       1.0  0.1415768287232169  0.1512452872967529  0.7101528100963249  1.0000
  C   C84       1.0  0.20309774069195893  0.9663537688044245  0.7381824572983788  1.0000
  C   C85       1.0  0.2032579181483175  0.9986714576910172  0.7862332535323517  1.0000
  C   C86       1.0  0.16697625234824903  0.10833221032130068  0.7991470332220914  1.0000
  C   C87       1.0  0.1224432167407272  0.18709424902797173  0.760610157646184  1.0000
  C   C88       1.0  0.15376450520266619  0.14198680476344086  0.8491465430799678  1.0000
  C   C89       1.0  0.718662564871103  0.5550687542138847  0.1138891127367074  1.0000
  C   C90       1.0  0.21630901832525504  0.08709635781689683  0.6122217304080948  1.0000
  C   C91       1.0  0.762597040476109  0.222355556282146  0.0513449792206231  1.0000
  C   C92       1.0  0.740159682204613  0.5180588938231168  0.0630418504036498  1.0000
  C   C93       1.0  0.06385535893912929  0.2828308358713869  0.0461712557760094  1.0000
  C   C94       1.0  0.7383085555396534  0.24602267429882121  0.9157674610247212  1.0000
  C   C95       1.0  0.7244715650293257  0.5604525083703535  0.9265973103414781  1.0000
  C   C96       1.0  0.035767348775792095  0.2799382885162984  0.9113700557052412  1.0000
  I   I1        1.0  0.584577744483063  0.3965720657085541  0.19486198268408117  1.0000
  I   I2        1.0  0.2392805971014909  0.3912841867257698  0.22716404739519902  1.0000
  I   I3        1.0  0.14741470577201463  0.9481162113262372  0.2350296911082879  1.0000
  I   I4        1.0  0.9340189202089776  0.24318648074052618  0.1841433861922752  1.0000
  I   I5        1.0  0.562835041510283  0.5276178772843211  0.3320910222323903  1.0000
  I   I6        1.0  0.8337726402491442  0.9140709260005478  0.7314001352286823  1.0000
  I   I7        1.0  0.8618481654061583  0.768354089236155  0.6213866907268509  1.0000
  I   I8        1.0  0.9482674524121107  0.050131493769214316  0.850652952903495  1.0000
  I   I9        1.0  0.1902807936047638  0.8220483490058895  0.734229844135868  1.0000
  I   I10       1.0  0.9527100511763179  0.5546132402687576  0.3053331044792245  1.0000
  Br  Br1       1.0  0.4447756467546994  0.7114784798176714  0.215992514636568  1.0000
  Br  Br2       1.0  0.36654211818453325  0.9888435430365802  0.1565886918963599  1.0000
  Br  Br3       1.0  0.4682584642039699  0.534195719755651  0.7861042810300489  1.0000
  Br  Br4       1.0  0.4685396660025559  0.5813930182785185  0.6658207490281782  1.0000
  Br  Br5       1.0  0.7990162140446914  0.7476745967798806  0.9089273005261234  1.0000
  Br  Br6       1.0  0.5479646768490625  0.893446901345925  0.2710434722452959  1.0000
  Br  Br7       1.0  0.9261095376473562  0.0972343171877768  0.6431909354571844  1.0000
  Br  Br8       1.0  0.4830345458718099  0.31508713724520016  0.8988137186558021  1.0000
  Br  Br9       1.0  0.2744814536780281  0.345089938966801  0.7251760153161868  1.0000
  Br  Br10      1.0  0.3501889315826432  0.37937658192952745  0.6163666607388834  1.0000
  Br  Br11      1.0  0.037811100197941996  0.4687767058402629  0.8413801795437835  1.0000
  Br  Br12      1.0  0.8913728906608823  0.5081070126880222  0.7414917248338426  1.0000
  Br  Br13      1.0  0.9874655998933761  0.4392006321884595  0.6294333748946812  1.0000
  Br  Br14      1.0  0.22440224645412593  0.0367305633495789  0.8994808593027983  1.0000
  Br  Br15      1.0  0.8058119483844521  0.7478633177078822  0.19360491363759277  1.0000
  Br  Br16      1.0  0.29856193205360887  0.861802917686532  0.6306167087214831  1.0000
  Br  Br17      1.0  0.7951254844534501  0.23073954210077827  0.307807545280987  1.0000
  O   O1        1.0  0.4654854117892313  0.1760623441238067  0.4391521727855618  1.0000
  O   O2        1.0  0.5164195713154028  0.8340936587363572  0.5548095260384116  1.0000
  O   O3        1.0  0.652236277355847  0.8804182251923436  0.5580570896922907  1.0000
  O   O4        1.0  0.6275104403137204  0.07140685976372652  0.5489994330994321  1.0000
  O   O5        1.0  0.4713178391552049  0.0219224342353641  0.4987092097012891  1.0000
  O   O6        1.0  0.0445682372348415  0.2094384302744103  0.029583472388758008  1.0000
  O   O7        1.0  0.8633159004680946  0.1758944568546212  0.0405740158295558  1.0000
  O   O8        1.0  0.6857240764477266  0.3030563890648282  0.0281757964438896  1.0000
  O   O9        1.0  0.6737183576070721  0.4881432024602361  0.0431013059709997  1.0000
  O   O10       1.0  0.8242198508101523  0.5143778387979907  0.0423863015751635  1.0000
  O   O11       1.0  0.025151078535444106  0.37978878450514497  0.028997381553722296  1.0000
  O   O12       1.0  0.2909237816904806  0.13700861307529516  0.4421534156577849  1.0000
  O   O13       1.0  0.009079820306396903  0.21065327384567215  0.926570041306455  1.0000
  O   O14       1.0  0.8255759637963394  0.1815620604228059  0.9375910943113227  1.0000
  O   O15       1.0  0.6737484928007971  0.34221612504219934  0.931100393951141  1.0000
  O   O16       1.0  0.6642784347468619  0.5236771636133497  0.9451950552434951  1.0000
  O   O17       1.0  0.8203257479187798  0.538136457297938  0.9433318335074289  1.0000
  O   O18       1.0  0.009402791353281271  0.370254743581235  0.9325140240246909  1.0000
  O   O19       1.0  0.8513269121150272  0.33933186113218744  0.9855378548916889  1.0000
  O   O20       1.0  0.3342130975328602  0.9597761612201979  0.4433742073656575  1.0000
  O   O21       1.0  0.5278056584828545  0.8132249343498473  0.4585557811985623  1.0000
  O   O22       1.0  0.6695626945447015  0.8533471933230248  0.46112584729267075  1.0000
  O   O23       1.0  0.6411313212103664  0.0442945571406241  0.45189701687633743  1.0000
  O   O24       1.0  0.4513631243631551  0.2008812093349377  0.5455461722404067  1.0000
  O   O25       1.0  0.28876797005514726  0.14348769584188403  0.5473622432908627  1.0000
  O   O26       1.0  0.3116898150490784  0.973946701172835  0.5424242508381596  1.0000
  O   O27       1.0  0.2735890467104838  0.30823040032420584  0.4874798009386083  1.0000
  O   O28       1.0  0.02516385247806599  0.048253376253704516  0.9793957713587957  1.0000
