data_image0
_chemical_formula_structural       Mn4H32C24N8O24
_chemical_formula_sum              "Mn4 H32 C24 N8 O24"
_cell_length_a       7.494197790289141
_cell_length_b       10.871892796369151
_cell_length_c       12.06483567968991
_cell_angle_alpha    104.56426482996558
_cell_angle_beta     90.00040180395193
_cell_angle_gamma    90.00077829287028

_space_group_name_H-M_alt    "P 1"
_space_group_IT_number       1

loop_
  _space_group_symop_operation_xyz
  'x, y, z'

loop_
  _atom_site_type_symbol
  _atom_site_label
  _atom_site_symmetry_multiplicity
  _atom_site_fract_x
  _atom_site_fract_y
  _atom_site_fract_z
  _atom_site_occupancy
  Mn  Mn1       1.0  0.9971286504842285  0.43166899722187685  0.18609389514337235  1.0000
  Mn  Mn2       1.0  0.4971176129842121  0.06833163917180941  0.3139024917210591  1.0000
  Mn  Mn3       1.0  0.0028748590633683  0.5683361960471488  0.8139026673785776  1.0000
  Mn  Mn4       1.0  0.5028832279130313  0.9316764311999821  0.6861038339184233  1.0000
  H   H1        1.0  0.7993185554498581  0.5354659506462127  0.0468257337761315  1.0000
  H   H2        1.0  0.2993154770733284  0.9645323281966259  0.4531787439313248  1.0000
  H   H3        1.0  0.2006862884333742  0.464534502804888  0.9531739093102515  1.0000
  H   H4        1.0  0.7006866980756143  0.0354662340551855  0.5468237901498156  1.0000
  H   H5        1.0  0.6617163723367058  0.5116514724142505  0.14035448740729348  1.0000
  H   H6        1.0  0.16170207903000028  0.9883433575241368  0.3596543884411574  1.0000
  H   H7        1.0  0.338289805940633  0.48834994087476263  0.8596486865229238  1.0000
  H   H8        1.0  0.8382960930385296  0.011657103008161602  0.640347742792052  1.0000
  H   H9        1.0  0.0088947361709799  0.6939138670584698  0.19247389905444828  1.0000
  H   H10       1.0  0.5088685852216344  0.8060887164814405  0.30753187308692986  1.0000
  H   H11       1.0  0.9911274545149809  0.30608944699788776  0.8075297014893861  1.0000
  H   H12       1.0  0.49113625866908006  0.19391079612369572  0.6924708742819944  1.0000
  H   H13       1.0  0.1856768860492721  0.6611243727666861  0.2621131275474795  1.0000
  H   H14       1.0  0.6856466260158456  0.8388726183646258  0.23789219866894476  1.0000
  H   H15       1.0  0.8143453045512457  0.33887322739555975  0.7378850463757232  1.0000
  H   H16       1.0  0.31435688351673713  0.16112878779007644  0.7621084870811501  1.0000
  H   H17       1.0  0.21369315596778188  0.9864143020509816  0.893246268026331  1.0000
  H   H18       1.0  0.7136911126457405  0.5135873821772279  0.6067463094512036  1.0000
  H   H19       1.0  0.7863036816646132  0.013575728484568101  0.1067618110431852  1.0000
  H   H20       1.0  0.2863110625152316  0.48641591040791343  0.39324982650945367  1.0000
  H   H21       1.0  0.42078609713126985  0.8149685172275202  0.10351277150009255  1.0000
  H   H22       1.0  0.9208012242749107  0.6850406250397187  0.39648724050990575  1.0000
  H   H23       1.0  0.5792027344242358  0.18503007817106015  0.8965013739963297  1.0000
  H   H24       1.0  0.07918493839651569  0.3149578896601427  0.603498705710102  1.0000
  H   H25       1.0  0.3948503789454492  0.7920589147970459  0.9522272396082838  1.0000
  H   H26       1.0  0.8948675344875595  0.7079429431744232  0.5477711792290023  1.0000
  H   H27       1.0  0.6051451243557864  0.20793302352634413  0.04778375418362658  1.0000
  H   H28       1.0  0.10512930317792521  0.2920622215801175  0.45221543058673314  1.0000
  H   H29       1.0  0.20784868847918864  0.7827193753809708  0.037153230695537214  1.0000
  H   H30       1.0  0.707861162258034  0.71729873522267  0.46284284622897326  1.0000
  H   H31       1.0  0.7921388087541601  0.21728396695466756  0.9628603224070602  1.0000
  H   H32       1.0  0.2921263348719735  0.28270738693604613  0.5371464650023441  1.0000
  C   C1        1.0  0.3064042246834831  0.9714854691158835  0.056235232697893885  1.0000
  C   C2        1.0  0.8064021052617675  0.5285195047070701  0.44375751823279325  1.0000
  C   C3        1.0  0.6935926129504253  0.028505507011722407  0.9437714008694867  1.0000
  C   C4        1.0  0.19358939501760372  0.47148853476201674  0.5562380253007575  1.0000
  C   C5        1.0  0.33459122569126265  0.8327731722253376  0.03600612548004989  1.0000
  C   C6        1.0  0.8346000585544716  0.6672273894886518  0.46399239517080554  1.0000
  C   C7        1.0  0.665401608872699  0.167217818117777  0.9640054844142795  1.0000
  C   C8        1.0  0.1653887729381651  0.3327768414935406  0.535999807069544  1.0000
  C   C9        1.0  0.22564562319682577  0.1593216790455614  0.029451763468962593  1.0000
  C   C10       1.0  0.725655269238409  0.3406825273455212  0.4705458397398488  1.0000
  C   C11       1.0  0.7743458769820393  0.840671190608859  0.9705528084653211  1.0000
  C   C12       1.0  0.2743575808446437  0.6593188741162025  0.5294531872631367  1.0000
  C   C13       1.0  0.2901202560967704  0.17493901081962093  0.14085583750048866  1.0000
  C   C14       1.0  0.7901257251946916  0.3250630848409131  0.359144073681989  1.0000
  C   C15       1.0  0.7098699096924577  0.8250500669668027  0.8591511988767733  1.0000
  C   C16       1.0  0.2098777843664124  0.6749449499503655  0.6408498111139663  1.0000
  C   C17       1.0  0.1588625373698065  0.2482182155136456  0.965011278998098  1.0000
  C   C18       1.0  0.6588710766818409  0.25178108832671603  0.5349834208720522  1.0000
  C   C19       1.0  0.8411383033970096  0.7517784484273308  0.034991657911952224  1.0000
  C   C20       1.0  0.34114977947810143  0.7482117482719844  0.4650095397040345  1.0000
  C   C21       1.0  0.31742566125898003  0.2837361645863652  0.24208443926581677  1.0000
  C   C22       1.0  0.8174292337043951  0.21626813987649743  0.2579152637420137  1.0000
  C   C23       1.0  0.6825685076136736  0.7162529061036836  0.7579201089551048  1.0000
  C   C24       1.0  0.18256493534074278  0.7837446418063226  0.7420780286315888  1.0000
  N   N1        1.0  0.3408530924560438  0.05753857722520911  0.1547603438279239  1.0000
  N   N2        1.0  0.840859386227919  0.44247168620038485  0.3452374883173235  1.0000
  N   N3        1.0  0.6591384077557904  0.9424552546325775  0.8452485883356502  1.0000
  N   N4        1.0  0.15913478276024756  0.557536341418654  0.6547539082747205  1.0000
  N   N5        1.0  0.2385514599024106  0.030799790768739413  0.9791047312247159  1.0000
  N   N6        1.0  0.7385521139060955  0.46920420634249654  0.5208864135077036  1.0000
  N   N7        1.0  0.7614427089627612  0.9691902207672739  0.020896712713664556  1.0000
  N   N8        1.0  0.2614447237893174  0.5307971950281855  0.4791126134382039  1.0000
  O   O1        1.0  0.13546212315811354  0.2078215870142374  0.8571960004461944  1.0000
  O   O2        1.0  0.6354632786790122  0.2921717462788749  0.6427964235115055  1.0000
  O   O3        1.0  0.8645373832175807  0.7921731738698128  0.14280568051235315  1.0000
  O   O4        1.0  0.3645589118120681  0.7078163481288515  0.3571987882387972  1.0000
  O   O5        1.0  0.12813214259014674  0.3635572976958131  0.020500992719156785  1.0000
  O   O6        1.0  0.6281392027899315  0.13644199131128693  0.47949257400333767  1.0000
  O   O7        1.0  0.871867363775074  0.6364393472532158  0.9794953090645108  1.0000
  O   O8        1.0  0.3718803190823293  0.8635575000199014  0.5205027089060791  1.0000
  O   O9        1.0  0.4064787599168228  0.2597657410015515  0.3238114219460043  1.0000
  O   O10       1.0  0.9064859257990892  0.2402395856622519  0.17619223351307053  1.0000
  O   O11       1.0  0.5935114059683926  0.7402356698233774  0.6761909225369321  1.0000
  O   O12       1.0  0.0935109119968303  0.7597769855231036  0.8237977650320971  1.0000
  O   O13       1.0  0.25329850400103027  0.39442668221766297  0.2480917203695299  1.0000
  O   O14       1.0  0.7532891597922671  0.10557498276617142  0.2519037812993758  1.0000
  O   O15       1.0  0.7466916617882475  0.6055680643750065  0.7519049842145121  1.0000
  O   O16       1.0  0.24669967182482114  0.8944425410848494  0.7480872598857288  1.0000
  O   O17       1.0  0.7619159265788724  0.4737523282832541  0.09260118914468755  1.0000
  O   O18       1.0  0.2619130755918277  0.026245652364330907  0.40740015599126167  1.0000
  O   O19       1.0  0.2380822454941836  0.5262509690252132  0.9073966055821073  1.0000
  O   O20       1.0  0.7380837621050702  0.9737538601952809  0.5926025913491201  1.0000
  O   O21       1.0  0.079101848976876  0.6265568047811314  0.21607348824802836  1.0000
  O   O22       1.0  0.5790700963643901  0.8734427425284609  0.28392031981822896  1.0000
  O   O23       1.0  0.9209203416176451  0.3734398474160159  0.7839253017871073  1.0000
  O   O24       1.0  0.42093207882803807  0.12656056666799745  0.7160816218738546  1.0000
