data_image0
_chemical_formula_structural       Na2H16C12S2Br2N2O7
_chemical_formula_sum              "Na2 H16 C12 S2 Br2 N2 O7"
_cell_length_a       6.126090577475447
_cell_length_b       6.1261984988622675
_cell_length_c       14.867570787692925
_cell_angle_alpha    78.10987846566371
_cell_angle_beta     78.1114738040609
_cell_angle_gamma    65.66944472820622

_space_group_name_H-M_alt    "P 1"
_space_group_IT_number       1

loop_
  _space_group_symop_operation_xyz
  'x, y, z'

loop_
  _atom_site_type_symbol
  _atom_site_label
  _atom_site_symmetry_multiplicity
  _atom_site_fract_x
  _atom_site_fract_y
  _atom_site_fract_z
  _atom_site_occupancy
  Na  Na1       1.0  0.1584488893818161  0.11856161614922911  0.5361810342195807  1.0000
  Na  Na2       1.0  0.8814426001705301  0.8415653829557641  0.4638216971207923  1.0000
  H   H1        1.0  0.2575061420524277  0.8159811340829395  0.7694011833250654  1.0000
  H   H2        1.0  0.1839941269089637  0.7424979379977258  0.230605119408807  1.0000
  H   H3        1.0  0.07966092510236665  0.9551126829108444  0.9225676145842312  1.0000
  H   H4        1.0  0.044876198139412724  0.9203308404724668  0.07743790990192416  1.0000
  H   H5        1.0  0.7495553036232322  0.8345347663551839  0.019417351733963452  1.0000
  H   H6        1.0  0.16543402570507476  0.2504328243477119  0.9805804147115749  1.0000
  H   H7        1.0  0.600898746490074  0.5788584037118198  0.9600879207287245  1.0000
  H   H8        1.0  0.42109700583282017  0.3991100581475778  0.039911248930991405  1.0000
  H   H9        1.0  0.7860521685105297  0.431451695064041  0.8063629100660347  1.0000
  H   H10       1.0  0.5685047938953929  0.2139727700030107  0.19363690460711064  1.0000
  H   H11       1.0  0.6833541528196249  0.3673710088095135  0.44610394207931126  1.0000
  H   H12       1.0  0.6326444470863348  0.31666138243083003  0.5538940963080634  1.0000
  H   H13       1.0  0.5911723213302977  0.9084006759109117  0.6306446123516236  1.0000
  H   H14       1.0  0.0916173734706333  0.4088384970324911  0.3693563130236725  1.0000
  H   H15       1.0  0.5293229509950589  0.694989246271881  0.6152208806711597  1.0000
  H   H16       1.0  0.30502978311510986  0.4706837369593303  0.3847819478665072  1.0000
  C   C1        1.0  0.03200041513873927  0.6144678993892542  0.7801490418763419  1.0000
  C   C2        1.0  0.385514886549707  0.9680160743862488  0.2198513749102203  1.0000
  C   C3        1.0  0.11671511141580033  0.7606012440531628  0.8120958856435647  1.0000
  C   C4        1.0  0.2393744481573277  0.883283973801227  0.18791295401566532  1.0000
  C   C5        1.0  0.015285228497354638  0.8390139306787677  0.8983635695508452  1.0000
  C   C6        1.0  0.1609489803960144  0.9847099651660189  0.10164218547603807  1.0000
  C   C7        1.0  0.8303740638871557  0.7729675278293512  0.9520748746731651  1.0000
  C   C8        1.0  0.22699333878100694  0.16961735612012063  0.047932934210173486  1.0000
  C   C9        1.0  0.7466819612071021  0.6282474787842248  0.9188968392920882  1.0000
  C   C10       1.0  0.3717228437781585  0.25331343439295756  0.08110214170553579  1.0000
  C   C11       1.0  0.8479929521805261  0.5461618345505387  0.832944752143234  1.0000
  C   C12       1.0  0.45381172905793926  0.15202024552836238  0.16705225546998284  1.0000
  S   S1        1.0  0.15346975894801318  0.5278968067099826  0.6672283858564894  1.0000
  S   S2        1.0  0.4720829354629927  0.8465408600768356  0.3327714205710776  1.0000
  Br  Br1       1.0  0.5655104720032824  0.16742029107814466  0.7486099487269724  1.0000
  Br  Br2       1.0  0.8325813033739634  0.4345566314586834  0.251369256382027  1.0000
  N   N1        1.0  0.4408111046971325  0.44092296865478203  0.6575666030256357  1.0000
  N   N2        1.0  0.5590952371923237  0.5592055359628249  0.3424277550281472  1.0000
  O   O1        1.0  0.08104066542337313  0.7492046194278076  0.600389368477124  1.0000
  O   O2        1.0  0.2508141841018414  0.9189635912438163  0.399613186704279  1.0000
  O   O3        1.0  0.06324439972852498  0.3468909922091896  0.6595190325270294  1.0000
  O   O4        1.0  0.6531128638902216  0.9367843566592668  0.34047842394360817  1.0000
  O   O5        1.0  0.7509301397449234  0.24908109606729306  0.5000006446254941  1.0000
  O   O6        1.0  0.5468015367887914  0.848635392916599  0.5838197534712604  1.0000
  O   O7        1.0  0.15137586775394843  0.45321373080295063  0.4161801236640627  1.0000
