data_image0
_chemical_formula_structural       Zn2H32C20O20
_chemical_formula_sum              "Zn2 H32 C20 O20"
_cell_length_a       7.28446466433115
_cell_length_b       8.494850283670885
_cell_length_c       11.308948264906016
_cell_angle_alpha    96.08673718134561
_cell_angle_beta     89.99893008361344
_cell_angle_gamma    89.9998989272763

_space_group_name_H-M_alt    "P 1"
_space_group_IT_number       1

loop_
  _space_group_symop_operation_xyz
  'x, y, z'

loop_
  _atom_site_type_symbol
  _atom_site_label
  _atom_site_symmetry_multiplicity
  _atom_site_fract_x
  _atom_site_fract_y
  _atom_site_fract_z
  _atom_site_occupancy
  Zn  Zn1       1.0  0.4999960351521793  0.5000002999590477  0.4999932797864233  1.0000
  Zn  Zn2       1.0  0.9999948692599574  1.4079814505003616e-06  0.49999700019525056  1.0000
  H   H1        1.0  0.15700899950657288  0.8058600129762467  0.1641304979806506  1.0000
  H   H2        1.0  0.6570086851314514  0.6941415072479559  0.8358682835235101  1.0000
  H   H3        1.0  0.8429926800254465  0.19415021427148094  0.8358735794995409  1.0000
  H   H4        1.0  0.34298887607509  0.30586160878416274  0.16413438031305816  1.0000
  H   H5        1.0  0.8151514536373838  0.47092348974984327  0.4213916334496091  1.0000
  H   H6        1.0  0.31514584595390716  0.029074134300095998  0.5786067624418791  1.0000
  H   H7        1.0  0.18485022594045122  0.5290772503695536  0.5786099692112998  1.0000
  H   H8        1.0  0.6848503425013632  0.9709254137510468  0.4213938672321333  1.0000
  H   H9        1.0  0.8433958876041885  0.5728361729266425  0.5507405987314158  1.0000
  H   H10       1.0  0.34339867577045163  0.9271647074166721  0.4492514651593779  1.0000
  H   H11       1.0  0.15660441925071916  0.42716570978377877  0.44925666761254485  1.0000
  H   H12       1.0  0.6566030038766969  0.07283953470156489  0.5507450925444387  1.0000
  H   H13       1.0  0.5037286856327583  0.7475667943100532  0.6682542503342432  1.0000
  H   H14       1.0  0.0037201427591569  0.7524364185567833  0.3317482749574694  1.0000
  H   H15       1.0  0.49627436668352937  0.2524375220383632  0.3317502713802227  1.0000
  H   H16       1.0  0.996274672942512  0.24756665623952748  0.6682499644409389  1.0000
  H   H17       1.0  0.595358079470337  0.8195815901843772  0.557892132472702  1.0000
  H   H18       1.0  0.0953437485471582  0.6804189442431648  0.44210731948635373  1.0000
  H   H19       1.0  0.4046436001507844  0.18041084663572346  0.4421070834985699  1.0000
  H   H20       1.0  0.9046428304554226  0.31958648997639455  0.5578902113310278  1.0000
  H   H21       1.0  0.5547374238005675  0.5736037936704007  0.09897196808781669  1.0000
  H   H22       1.0  0.054743610828502716  0.9263920863848581  0.9010223216409016  1.0000
  H   H23       1.0  0.4452670014691195  0.4263933207251113  0.9010214061481321  1.0000
  H   H24       1.0  0.9452635599691702  0.07360623657940119  0.09897379538084289  1.0000
  H   H25       1.0  0.6757623999441336  0.7427473209471953  0.1609985624628507  1.0000
  H   H26       1.0  0.17576387490987602  0.757254139042132  0.8389999883050763  1.0000
  H   H27       1.0  0.3242365341569736  0.25725217761127794  0.8389967578482139  1.0000
  H   H28       1.0  0.8242378046450513  0.24275134464143377  0.161002851765474  1.0000
  H   H29       1.0  0.6985324779038605  0.3697549661144208  0.9676225509022983  1.0000
  H   H30       1.0  0.19853285769893603  0.1302513110368295  0.03237701174557369  1.0000
  H   H31       1.0  0.30146645609472233  0.6302445984283976  0.03237984853684849  1.0000
  H   H32       1.0  0.8014756857861299  0.8697565320457343  0.9676251196510605  1.0000
  C   C1        1.0  0.6808197825440061  0.5518189757171398  0.2666814148842036  1.0000
  C   C2        1.0  0.18082391387671493  0.9481777492046317  0.7333184909092053  1.0000
  C   C3        1.0  0.3191764059188316  0.44817702084691285  0.7333189504008358  1.0000
  C   C4        1.0  0.8191791385137462  0.05182179058744651  0.266681253831571  1.0000
  C   C5        1.0  0.6827296631738236  0.612906947411183  0.14405942972873478  1.0000
  C   C6        1.0  0.18273174690583718  0.8870921142936723  0.8559379741660749  1.0000
  C   C7        1.0  0.3172706436065198  0.38708789006135197  0.8559435020743393  1.0000
  C   C8        1.0  0.8172726782333798  0.11291217730840937  0.1440638928669173  1.0000
  C   C9        1.0  0.8448497953352144  0.5588375361390094  0.06856424230016961  1.0000
  C   C10       1.0  0.34485232539635996  0.9411610791015689  0.9314391310284407  1.0000
  C   C11       1.0  0.15515325696262036  0.44115142342418073  0.9314426732927785  1.0000
  C   C12       1.0  0.6551534724811178  0.05884087783241649  0.0685660993008312  1.0000
  C   C13       1.0  0.8307794048834937  0.4292746485582413  0.9816276223626161  1.0000
  C   C14       1.0  0.3307844337639665  0.07072775132549938  0.018380667510719196  1.0000
  C   C15       1.0  0.1692222746145262  0.5707155030842229  0.01838026625944879  1.0000
  C   C16       1.0  0.6692268552925711  0.9292789079236171  0.9816213757393725  1.0000
  C   C17       1.0  0.0184771560762087  0.6292511161625357  0.08515729463161388  1.0000
  C   C18       1.0  0.518486538617239  0.8707543592282718  0.9148390311199606  1.0000
  C   C19       1.0  0.9815204052046981  0.37075313421035355  0.9148401479885492  1.0000
  C   C20       1.0  0.4815247504163978  0.1292570435850138  0.0851642495397726  1.0000
  O   O1        1.0  0.537914718725574  0.5813858741249689  0.3298622291412343  1.0000
  O   O2        1.0  0.03792348666463851  0.9186113097705261  0.6701394348010155  1.0000
  O   O3        1.0  0.46207597866323624  0.418604170310573  0.6701341559652434  1.0000
  O   O4        1.0  0.9620809385151433  0.08137995146417859  0.3298605779147223  1.0000
  O   O5        1.0  0.8225909856903684  0.4780483665762103  0.29747946506950024  1.0000
  O   O6        1.0  0.3225914160655421  0.021950351414496104  0.7025118482570107  1.0000
  O   O7        1.0  0.17740383010837488  0.5219451880996003  0.7025127599455772  1.0000
  O   O8        1.0  0.6774075180817789  0.9780514818098638  0.2974801087493333  1.0000
  O   O9        1.0  0.035068645268673  0.7594102640433745  0.16942587495925207  1.0000
  O   O10       1.0  0.5350670132783506  0.7405893791483038  0.8305848492319611  1.0000
  O   O11       1.0  0.9649357798218006  0.24059287672184837  0.8305794435081211  1.0000
  O   O12       1.0  0.4649305478796535  0.25941849694406477  0.1694208217962725  1.0000
  O   O13       1.0  0.7925636689438847  0.4724135290530426  0.5153757715632281  1.0000
  O   O14       1.0  0.29255666638361066  0.027581783392221792  0.48462095619560586  1.0000
  O   O15       1.0  0.207438010685209  0.5275871780741782  0.4846222915336326  1.0000
  O   O16       1.0  0.7074381493256254  0.9724177399169988  0.5153770188138295  1.0000
  O   O17       1.0  0.5130607787497893  0.7331341200111438  0.5810644451294706  1.0000
  O   O18       1.0  0.0130139893676926  0.7668489873391166  0.4189417767255748  1.0000
  O   O19       1.0  0.4869601197537961  0.2668512880362924  0.4189422059647183  1.0000
  O   O20       1.0  0.9869465066985939  0.23314109838513986  0.5810590330217451  1.0000
