data_image0
_chemical_formula_structural       Zn2H30C22N2O16
_chemical_formula_sum              "Zn2 H30 C22 N2 O16"
_cell_length_a       8.979448725884133
_cell_length_b       8.824656469238253
_cell_length_c       9.70081840614831
_cell_angle_alpha    86.41423987822411
_cell_angle_beta     81.72991973071751
_cell_angle_gamma    71.74511757570026

_space_group_name_H-M_alt    "P 1"
_space_group_IT_number       1

loop_
  _space_group_symop_operation_xyz
  'x, y, z'

loop_
  _atom_site_type_symbol
  _atom_site_label
  _atom_site_symmetry_multiplicity
  _atom_site_fract_x
  _atom_site_fract_y
  _atom_site_fract_z
  _atom_site_occupancy
  Zn  Zn1       1.0  0.1624633358838921  0.6183382054424128  0.6774059355885029  1.0000
  Zn  Zn2       1.0  0.8185704554628828  0.35350928606783316  0.41909754509546115  1.0000
  H   H1        1.0  0.01304459375577955  0.822560809100949  0.5286021608595208  1.0000
  H   H2        1.0  0.04065452017513147  0.6547554475266394  0.45688434325882116  1.0000
  H   H3        1.0  0.2836152072743515  0.8268803168008603  0.7628646525669468  1.0000
  H   H4        1.0  0.3974487474812848  0.7245962517238382  0.6324668102138348  1.0000
  H   H5        1.0  0.3390868430595475  0.3180087646845066  0.6031471879635647  1.0000
  H   H6        1.0  0.358522588949505  0.39912358959255545  0.4570563908075088  1.0000
  H   H7        1.0  0.018356773331348095  0.2578949792314589  0.5867744603243212  1.0000
  H   H8        1.0  0.9611094222095743  0.10626231847324158  0.5674545804400638  1.0000
  H   H9        1.0  0.6164724256707004  0.21685208714159637  0.34656183077027697  1.0000
  H   H10       1.0  0.7236024163875001  0.09666323313961561  0.453952869829763  1.0000
  H   H11       1.0  0.8088611405429094  0.4642511217629632  0.6526219244975024  1.0000
  H   H12       1.0  0.6483562151383282  0.5536356800766669  0.5833957234812531  1.0000
  H   H13       1.0  0.2560898102945971  0.41191531760281197  0.015132060846049513  1.0000
  H   H14       1.0  0.07879372809739492  0.2336583533724053  0.09360294467528969  1.0000
  H   H15       1.0  0.8113562501423388  0.8505152269030133  0.02157529353338112  1.0000
  H   H16       1.0  0.6148844036095085  0.024791506979759997  0.19906810159405816  1.0000
  H   H17       1.0  0.4595693587349601  0.3735582997126343  0.8750524910949196  1.0000
  H   H18       1.0  0.6528390614301856  0.20037520605104928  0.7023534398436126  1.0000
  H   H19       1.0  0.22394920579547775  0.5764510338296915  0.2771896467353443  1.0000
  H   H20       1.0  0.15765392027256564  0.7300322258898361  0.05595085590686474  1.0000
  H   H21       1.0  0.9923455308787225  0.7684920472610272  0.18870708815471468  1.0000
  H   H22       1.0  0.007681593469165242  0.6412506040870908  0.047320351406881414  1.0000
  H   H23       1.0  0.9586442998300768  0.1997230075387648  0.8361976544046142  1.0000
  H   H24       1.0  0.7791310633901887  0.3148865298163486  0.054560648884965694  1.0000
  H   H25       1.0  0.7500547481806805  0.44803720568463484  0.9080723945744539  1.0000
  H   H26       1.0  0.8565757405942238  0.47758571517580606  0.041025914077742684  1.0000
  H   H27       1.0  0.4510852676974154  0.7889083704733436  0.913147933610077  1.0000
  H   H28       1.0  0.6018838559888878  0.6143945607422552  0.09100291420966766  1.0000
  H   H29       1.0  0.3075548722462571  0.9214709249711674  0.41543018799654874  1.0000
  H   H30       1.0  0.1518279944791558  0.09002023924777798  0.2446334353116058  1.0000
  C   C1        1.0  0.8684828653600506  0.9095366401166486  0.7454860702710704  1.0000
  C   C2        1.0  0.744525269740265  0.012531139625352197  0.8505297993724739  1.0000
  C   C3        1.0  0.7333880406212286  0.9652579664082098  0.9912747484181496  1.0000
  C   C4        1.0  0.6242213637706442  0.06309714587312949  0.09019861900731743  1.0000
  C   C5        1.0  0.522592030986452  0.21007505945392774  0.0500237935876697  1.0000
  C   C6        1.0  0.5327761917695142  0.2574368425174355  0.908840515459694  1.0000
  C   C7        1.0  0.6425598357079635  0.1592663450166327  0.8102445045727863  1.0000
  C   C8        1.0  0.4091777658879891  0.314207859684501  0.15877406548463577  1.0000
  C   C9        1.0  0.16254980580141887  0.5351209602043169  0.2044380867496827  1.0000
  C   C10       1.0  0.07408333470258559  0.6776444598928248  0.11853534572991722  1.0000
  C   C11       1.0  0.039229242635862194  0.4684208370158629  0.2898842428305103  1.0000
  C   C12       1.0  0.05912767173646221  0.3893988085775816  0.8028851091165592  1.0000
  C   C13       1.0  0.9861573062598555  0.2823408974445555  0.9011966769671674  1.0000
  C   C14       1.0  0.8332755362683457  0.38808261743827904  0.9812207778879556  1.0000
  C   C15       1.0  0.19894641577479177  0.048655968868729395  0.9563715726304667  1.0000
  C   C16       1.0  0.2914981639500241  0.952044713235736  0.0650525278306375  1.0000
  C   C17       1.0  0.4193343193924832  0.8172921520658177  0.023234902016675118  1.0000
  C   C18       1.0  0.5038723264329124  0.7201093412787926  0.12192702679208625  1.0000
  C   C19       1.0  0.4653187960203554  0.7570492050721  0.2636994073880743  1.0000
  C   C20       1.0  0.33921260758090455  0.8926771803113808  0.30551361264228666  1.0000
  C   C21       1.0  0.2517528823379252  0.9882498487694346  0.20732904117537748  1.0000
  C   C22       1.0  0.5596748623087322  0.6499263443819245  0.36737107860736273  1.0000
  N   N1        1.0  0.2795970648700532  0.4182725082191324  0.11477039316974924  1.0000
  N   N2        1.0  0.09094592946222953  0.1881998868256787  0.9959233936432315  1.0000
  O   O1        1.0  0.9577651376155599  0.7785826643974829  0.7891076466590479  1.0000
  O   O2        1.0  0.8776545324575054  0.9615623686592443  0.6184713889104501  1.0000
  O   O3        1.0  0.43511994504716256  0.3051359485710066  0.28437916240510935  1.0000
  O   O4        1.0  0.006062688276671203  0.35054791129606133  0.24719315338568754  1.0000
  O   O5        1.0  0.9642895505909765  0.5400997423615266  0.40009334674807223  1.0000
  O   O6        1.0  0.008024391924770728  0.42785221239731897  0.6859693767974734  1.0000
  O   O7        1.0  0.16194608870394236  0.44571802138422356  0.8401146864197457  1.0000
  O   O8        1.0  0.21752501569142174  0.0026451496805038  0.8328610403262857  1.0000
  O   O9        1.0  0.5399867529309716  0.6946867585011702  0.4929199251612604  1.0000
  O   O10       1.0  0.6563234228572341  0.5187500923563063  0.31929306524408935  1.0000
  O   O11       1.0  0.09859229942831868  0.7222193547378524  0.49457077091825863  1.0000
  O   O12       1.0  0.324289483859772  0.7186280926465399  0.7187622986372447  1.0000
  O   O13       1.0  0.34742718187948196  0.4172706208065406  0.5583289409274672  1.0000
  O   O14       1.0  0.0021267332693000055  0.1897874764393777  0.5164875518924534  1.0000
  O   O15       1.0  0.7232453299016229  0.17624256694801227  0.379149174390591  1.0000
  O   O16       1.0  0.7176350120843082  0.4473134641567357  0.616826252256395  1.0000
