data_image0
_chemical_formula_structural       Cd4H48C36O32
_chemical_formula_sum              "Cd4 H48 C36 O32"
_cell_length_a       6.979837081
_cell_length_b       10.164390228775858
_cell_length_c       16.417
_cell_angle_alpha    90.0
_cell_angle_beta     90.0
_cell_angle_gamma    99.5658293929967

_space_group_name_H-M_alt    "P 1"
_space_group_IT_number       1

loop_
  _space_group_symop_operation_xyz
  'x, y, z'

loop_
  _atom_site_type_symbol
  _atom_site_label
  _atom_site_symmetry_multiplicity
  _atom_site_fract_x
  _atom_site_fract_y
  _atom_site_fract_z
  _atom_site_occupancy
  Cd  Cd1       1.0  0.7658282429719065  0.0264849319866869  0.6208600840592098  1.0000
  Cd  Cd2       1.0  0.23417353121595147  0.4735131901432368  0.1208606931838929  1.0000
  Cd  Cd3       1.0  0.2341693978503798  0.9735123099727048  0.3791393068161071  1.0000
  Cd  Cd4       1.0  0.7658322388731591  0.5264880426143108  0.8791405250654805  1.0000
  H   H1        1.0  0.303239486487314  0.6739240898253769  0.7397752329901905  1.0000
  H   H2        1.0  0.696760958981983  0.8260772604611758  0.239776451239571  1.0000
  H   H3        1.0  0.6967543391282973  0.3260751475330963  0.2602272035085562  1.0000
  H   H4        1.0  0.30324410274081265  0.1739269653949904  0.7602265943838731  1.0000
  H   H5        1.0  0.4354039323769072  0.7416788632808178  0.8264640311871858  1.0000
  H   H6        1.0  0.5645988956008664  0.7583204916066606  0.3264652494365592  1.0000
  H   H7        1.0  0.5645920502687858  0.2583233671762741  0.1735384053115681  1.0000
  H   H8        1.0  0.4354052003460823  0.24167974345134982  0.6735377961868778  1.0000
  H   H9        1.0  0.9065585561027802  0.9470174009906174  0.8229670463543854  1.0000
  H   H10       1.0  0.0934490528575012  0.5529839492959425  0.3229700919778296  1.0000
  H   H11       1.0  0.0934422075254204  0.052986824865556094  0.1770323445209243  1.0000
  H   H12       1.0  0.9065550430894478  0.447016285762068  0.677028080648107  1.0000
  H   H13       1.0  0.510043411620579  0.9389001175338336  0.8773302064932693  1.0000
  H   H14       1.0  0.4899606076114296  0.5610982396541004  0.3773277699945154  1.0000
  H   H15       1.0  0.4899547120896274  0.06109911982463959  0.12266918438204041  1.0000
  H   H16       1.0  0.510042764003643  0.4388990023052912  0.6226691843820404  1.0000
  H   H17       1.0  0.9129727933656328  0.1392030306076535  0.9172254370469659  1.0000
  H   H18       1.0  0.08702803101195401  0.3607970869213517  0.4172278735457127  1.0000
  H   H19       1.0  0.08703107710292811  0.8608021929480572  0.0827751720777243  1.0000
  H   H20       1.0  0.9129684185560979  0.6392011527375772  0.5827702990802237  1.0000
  H   H21       1.0  0.5147533643254789  0.1304252700554471  0.9689029664372271  1.0000
  H   H22       1.0  0.48524411176778404  0.3695728520744836  0.4688993116890998  1.0000
  H   H23       1.0  0.4852492989232715  0.8695749650025631  0.031098251812146302  1.0000
  H   H24       1.0  0.5147528047226189  0.6304213967862893  0.5310945970640191  1.0000
  H   H25       1.0  0.15140983526530505  0.012945151530445299  0.5767832125236012  1.0000
  H   H26       1.0  0.8485897818924713  0.4870499775008597  0.0767850398976648  1.0000
  H   H27       1.0  0.848588996811216  0.987051092729402  0.4232161783517085  1.0000
  H   H28       1.0  0.15141263991232276  0.5129492598576135  0.9232161783517085  1.0000
  H   H29       1.0  0.7514212715020607  0.21458920784392888  0.7560961198757354  1.0000
  H   H30       1.0  0.2485785870996793  0.2854069188869204  0.2560955107510523  1.0000
  H   H31       1.0  0.24857947616057882  0.785409031815  0.24390509837363789  1.0000
  H   H32       1.0  0.751422160562953  0.7145913207720156  0.7439044892489477  1.0000
  H   H33       1.0  0.6017445507462896  0.8476155981289465  0.4889486507888137  1.0000
  H   H34       1.0  0.3982570859772495  0.652384754458069  0.9889504781628774  1.0000
  H   H35       1.0  0.39825238170968197  0.1523846369290638  0.5110513492111863  1.0000
  H   H36       1.0  0.6017455772715082  0.3476154805999414  0.0110513492111863  1.0000
  H   H37       1.0  0.8328089641301304  0.8312473394770379  0.5011987573856374  1.0000
  H   H38       1.0  0.16719243114944501  0.6687520154104405  0.0011999756350107  1.0000
  H   H39       1.0  0.1671855858173643  0.168754890980054  0.498802460863736  1.0000
  H   H40       1.0  0.8328114233535474  0.3312472219480327  0.9988024608637361  1.0000
  H   H41       1.0  0.17620110223310803  0.9592272479601434  0.6640196138149506  1.0000
  H   H42       1.0  0.8237988603482762  0.540772106927335  0.1640202229396337  1.0000
  H   H43       1.0  0.8237984541752964  0.0407719893983298  0.3359809953097397  1.0000
  H   H44       1.0  0.1762047686763282  0.4592321189288385  0.8359791679356761  1.0000
  H   H45       1.0  0.9634260277234362  0.2130846769377328  0.723673021867576  1.0000
  H   H46       1.0  0.0365738468438721  0.2869174359903539  0.2236736309922662  1.0000
  H   H47       1.0  0.03657496138316671  0.7869145604207404  0.2763263690077338  1.0000
  H   H48       1.0  0.9634254840861376  0.7130867898658195  0.776326978132424  1.0000
  C   C1        1.0  0.48741766423577815  0.8607922159526566  0.716595602119753  1.0000
  C   C2        1.0  0.5125818154576791  0.6392051435357402  0.2165974294938167  1.0000
  C   C3        1.0  0.5125759199358768  0.1392060237062722  0.2834037887555567  1.0000
  C   C4        1.0  0.48742443751935133  0.360798084620896  0.7834025705061834  1.0000
  C   C5        1.0  0.3551277612609098  0.7671271854455242  0.7726521288907833  1.0000
  C   C6        1.0  0.6448722013204745  0.7328721694419471  0.2726527380154735  1.0000
  C   C7        1.0  0.6448703624492964  0.2328720519129419  0.2273496984832803  1.0000
  C   C8        1.0  0.355130944816203  0.2671300610151448  0.7273490893585901  1.0000
  C   C9        1.0  0.20456385107272726  0.9281977945691225  0.8463403788755528  1.0000
  C   C10       1.0  0.7954387354610901  0.5718005626188116  0.3463391606261794  1.0000
  C   C11       1.0  0.7954316486850461  0.071802440488888  0.1536608393738206  1.0000
  C   C12       1.0  0.20455866391723282  0.4281956816410357  0.653659011999757  1.0000
  C   C13       1.0  0.037558852413546624  0.9860693563821243  0.8570219894012325  1.0000
  C   C14       1.0  0.9624427843099923  0.5139309962048912  0.3570238167752962  1.0000
  C   C15       1.0  0.9624375971544981  0.0139288832768116  0.1429786197234577  1.0000
  C   C16       1.0  0.03755533940021389  0.4860682411535748  0.6429749649753305  1.0000
  C   C17       1.0  0.37805162922551727  0.9812764077923505  0.8857074983249049  1.0000
  C   C18       1.0  0.6219490417221821  0.5187199539965022  0.3857038435767777  1.0000
  C   C19       1.0  0.6219493598810858  0.0187228295661157  0.1142961564232223  1.0000
  C   C20       1.0  0.37805122305253763  0.4812762902633452  0.6142906743010315  1.0000
  C   C21       1.0  0.2145728334611618  0.2563299634955172  0.0109922641164673  1.0000
  C   C22       1.0  0.7854263167742631  0.2436691563339437  0.5109910458670868  1.0000
  C   C23       1.0  0.785431745373714  0.7436722669615747  0.9890089541329133  1.0000
  C   C24       1.0  0.2145744308883764  0.7563290833249852  0.4890071267588496  1.0000
  C   C25       1.0  0.21344017646551092  0.1464353545725245  0.9512840348419331  1.0000
  C   C26       1.0  0.7865553840416339  0.3535607721583176  0.4512803800938059  1.0000
  C   C27       1.0  0.7865550818482987  0.8535638827859485  0.0487190107815039  1.0000
  C   C28       1.0  0.2134424982246088  0.6464374675006113  0.5487153560333766  1.0000
  C   C29       1.0  0.042329751598380504  0.0937258901790656  0.9092513857586653  1.0000
  C   C30       1.0  0.9576722640334412  0.40627322965040247  0.4092519948833556  1.0000
  C   C31       1.0  0.9576714789521787  0.9062743448789448  0.0907480051166445  1.0000
  C   C32       1.0  0.04232394409064712  0.5937240123089893  0.5907431321191439  1.0000
  C   C33       1.0  0.38052078546035534  0.0900543558721623  0.9375695924955849  1.0000
  C   C34       1.0  0.6194783647750698  0.40994476395729856  0.4375677651215213  1.0000
  C   C35       1.0  0.6194771127714561  0.9099498699840041  0.06243101662910531  1.0000
  C   C36       1.0  0.38050995552615063  0.5900494849034743  0.5624249253822242  1.0000
  O   O1        1.0  0.65517487264934  0.8315865573206124  0.7019699092404181  1.0000
  O   O2        1.0  0.34482127472536933  0.6684147929659474  0.2019705183651084  1.0000
  O   O3        1.0  0.3448187115223149  0.1684116823383235  0.2980288725102014  1.0000
  O   O4        1.0  0.6551809056354613  0.3315834466929886  0.798033745507702  1.0000
  O   O5        1.0  0.43050911375258494  0.9617424485002816  0.6863489066211841  1.0000
  O   O6        1.0  0.5694870336221315  0.5382589017862784  0.1863476883718107  1.0000
  O   O7        1.0  0.5694866274491517  0.0382587842572732  0.3136523116281893  1.0000
  O   O8        1.0  0.43052113494101724  0.4617463217694322  0.8136523116281893  1.0000
  O   O9        1.0  0.18484913291950994  0.8196590593208839  0.7951196930011548  1.0000
  O   O10       1.0  0.8151491555197128  0.6803392978670573  0.29511908387647173  1.0000
  O   O11       1.0  0.8151475580924983  0.1803401780375893  0.2048815252482186  1.0000
  O   O12       1.0  0.1848551818711996  0.3196619348904974  0.7048815252482186  1.0000
  O   O13       1.0  0.3768148514538296  0.3114548584751233  0.0436425656331849  1.0000
  O   O14       1.0  0.6231869227340283  0.1885432636548074  0.543640129134431  1.0000
  O   O15       1.0  0.6231851878424877  0.6885463742824314  0.9563580434915053  1.0000
  O   O16       1.0  0.3768164488810442  0.8114539783045841  0.4563568252421248  1.0000
  O   O17       1.0  0.0563833245138099  0.2937357146461608  0.0314338795151343  1.0000
  O   O18       1.0  0.9436210895920495  0.20626739598146318  0.5314344886398246  1.0000
  O   O19       1.0  0.9436143163084765  0.7062615273132309  0.9685673387342391  1.0000
  O   O20       1.0  0.05638229798859128  0.793735832175166  0.4685636839861118  1.0000
  O   O21       1.0  0.07532157197029929  0.9700951890484788  0.6235773892915901  1.0000
  O   O22       1.0  0.9246776662792016  0.5299011727403737  0.1235798257903369  1.0000
  O   O23       1.0  0.9246763102959435  0.029903050610450097  0.3764220015837267  1.0000
  O   O24       1.0  0.07532499696955598  0.47009906231763665  0.8764213924590367  1.0000
  O   O25       1.0  0.838538223504351  0.1540917008418603  0.7334878479624791  1.0000
  O   O26       1.0  0.1614626008732287  0.3459084166871449  0.2334884570871623  1.0000
  O   O27       1.0  0.16145990020585543  0.8459075365166058  0.2665115429128377  1.0000
  O   O28       1.0  0.8385403038194852  0.6540928160704098  0.7665115429128306  1.0000
  O   O29       1.0  0.7361375198353032  0.8927046334365087  0.5045160504355266  1.0000
  O   O30       1.0  0.2638653081424707  0.6072947214509696  0.0045172686849  1.0000
  O   O31       1.0  0.2638598955085882  0.1072975970205832  0.4954821221904099  1.0000
  O   O32       1.0  0.7361373551062798  0.3927055136070408  0.9954845586891636  1.0000
