data_image0
_chemical_formula_structural       Cu4H18C16I4N6
_chemical_formula_sum              "Cu4 H18 C16 I4 N6"
_cell_length_a       7.5406925333341075
_cell_length_b       7.652319517994954
_cell_length_c       11.173654093774326
_cell_angle_alpha    104.483005939641
_cell_angle_beta     104.27304775647
_cell_angle_gamma    95.89825904303409

_space_group_name_H-M_alt    "P 1"
_space_group_IT_number       1

loop_
  _space_group_symop_operation_xyz
  'x, y, z'

loop_
  _atom_site_type_symbol
  _atom_site_label
  _atom_site_symmetry_multiplicity
  _atom_site_fract_x
  _atom_site_fract_y
  _atom_site_fract_z
  _atom_site_occupancy
  Cu  Cu1       1.0  0.3722471229218841  0.7110576246826669  0.2923900965959589  1.0000
  Cu  Cu2       1.0  0.6277549616230118  0.28894407134303896  0.7076089329801859  1.0000
  Cu  Cu3       1.0  0.49037753109769977  0.07930334033919449  0.41051087534511055  1.0000
  Cu  Cu4       1.0  0.5096232845138289  0.9207065869335551  0.589492032524859  1.0000
  H   H1        1.0  0.4164903005713115  0.8198764821296292  0.7821481489186012  1.0000
  H   H2        1.0  0.5835182856147442  0.18011562006834228  0.2178547995802163  1.0000
  H   H3        1.0  0.1990906804824704  0.8932071566358883  0.7669567875574897  1.0000
  H   H4        1.0  0.8009209878616018  0.10679455106636479  0.23305457696938697  1.0000
  H   H5        1.0  0.2835976018912589  0.5316815030154202  0.82143225532063  1.0000
  H   H6        1.0  0.7163932378280009  0.4682955051105395  0.17855084795924367  1.0000
  H   H7        1.0  0.25068012927158634  0.7253272090907997  0.9350749829473058  1.0000
  H   H8        1.0  0.7493298724145203  0.2746498066031009  0.06492294201285628  1.0000
  H   H9        1.0  0.0748399977912584  0.30853420078693006  0.18572730471726115  1.0000
  H   H10       1.0  0.9251680524633487  0.6914702453371433  0.814280345631147  1.0000
  H   H11       1.0  0.0363922488811568  0.5230694647495041  0.16182497936602394  1.0000
  H   H12       1.0  0.9636031374640766  0.47692536993379514  0.8381655011749273  1.0000
  H   H13       1.0  0.4191326415928813  0.22915569444246833  0.8958514107271539  1.0000
  H   H14       1.0  0.5808683704086164  0.7708322990361935  0.10414957747538983  1.0000
  H   H15       1.0  0.1751592011128338  0.20253307546614963  0.8824582315656784  1.0000
  H   H16       1.0  0.8248396059079967  0.7974809517194076  0.11753609223551102  1.0000
  H   H17       1.0  0.3222858530608335  0.10583556894977869  0.9897972228329692  1.0000
  H   H18       1.0  0.6776895045478568  0.8941620366189296  0.01020114003762966  1.0000
  C   C1        1.0  0.07023449799815751  0.5075238173480372  0.35343864982255  1.0000
  C   C2        1.0  0.9297569848035891  0.49248748779636736  0.6465638364221177  1.0000
  C   C3        1.0  0.9672289129625469  0.45767548438350036  0.43379154007747894  1.0000
  C   C4        1.0  0.032768676484074916  0.5423316998170761  0.5662085734734389  1.0000
  C   C5        1.0  0.20013674086356303  0.6716984994495832  0.6133140149503048  1.0000
  C   C6        1.0  0.7998659275568016  0.3283141573371466  0.38668250696226636  1.0000
  C   C7        1.0  0.2657296326424258  0.770511378070317  0.7534625759094169  1.0000
  C   C8        1.0  0.7342758302655739  0.22948622155568904  0.24654795096211754  1.0000
  C   C9        1.0  0.20953460731160328  0.6485240688604674  0.8324124774070112  1.0000
  C   C10       1.0  0.7904764705015879  0.35146665942559  0.1675897559765928  1.0000
  C   C11       1.0  0.9997912197739113  0.42284056498102257  0.21097736196804817  1.0000
  C   C12       1.0  0.00021707225489109758  0.5771652448609926  0.7890260864347738  1.0000
  C   C13       1.0  0.3456989506888987  0.3876031813213884  0.05308757343223647  1.0000
  C   C14       1.0  0.654302598948462  0.6124108615004501  0.9469179485791628  1.0000
  C   C15       1.0  0.31511587693184856  0.22283207347793876  0.949107908452504  1.0000
  C   C16       1.0  0.6848807351788865  0.7771696271505704  0.050891107024064235  1.0000
  I   I1        1.0  0.7776581220530333  0.03847054874910329  0.809342755179074  1.0000
  I   I2        1.0  0.22233316572607006  0.9615243055302185  0.1906577868315792  1.0000
  I   I3        1.0  0.7207669430517499  0.8302206544863608  0.4269360116896976  1.0000
  I   I4        1.0  0.2792306458829117  0.16978652827920368  0.5730632065683849  1.0000
  N   N1        1.0  0.22884252549630452  0.628000106567633  0.40336209220054536  1.0000
  N   N2        1.0  0.7711690822734242  0.372016649536384  0.5966312455994114  1.0000
  N   N3        1.0  0.29571648480096974  0.7086593135608011  0.5343714505058799  1.0000
  N   N4        1.0  0.7042711848886682  0.29133827914032645  0.46562537732631165  1.0000
  N   N5        1.0  0.3684717090838419  0.5179037078961528  0.13956875616847234  1.0000
  N   N6        1.0  0.631530422212613  0.48208290098241235  0.8604241272280788  1.0000
