data_image0
_chemical_formula_structural       Bi2H24C72S6N12F30
_chemical_formula_sum              "Bi2 H24 C72 S6 N12 F30"
_cell_length_a       7.603430817689421
_cell_length_b       14.131754875280668
_cell_length_c       17.931
_cell_angle_alpha    73.2149940088993
_cell_angle_beta     78.68226329359537
_cell_angle_gamma    75.11889530610165

_space_group_name_H-M_alt    "P 1"
_space_group_IT_number       1

loop_
  _space_group_symop_operation_xyz
  'x, y, z'

loop_
  _atom_site_type_symbol
  _atom_site_label
  _atom_site_symmetry_multiplicity
  _atom_site_fract_x
  _atom_site_fract_y
  _atom_site_fract_z
  _atom_site_occupancy
  Bi  Bi1       1.0  0.2774380294105113  0.2998511113901259  0.2941083503735983  1.0000
  Bi  Bi2       1.0  0.7225613245828695  0.7001483582976107  0.7058914336958537  1.0000
  H   H1        1.0  0.3112927408050226  0.5479358782512449  0.2799213290736233  1.0000
  H   H2        1.0  0.688708710385214  0.4520651044529345  0.7200779361192815  1.0000
  H   H3        1.0  0.16822997299720296  0.7340921256541293  0.24906376808086608  1.0000
  H   H4        1.0  0.8317725267914611  0.2659096135582715  0.7509324492068715  1.0000
  H   H5        1.0  0.6976556802680206  0.6617858264237384  0.19544139943590014  1.0000
  H   H6        1.0  0.3023430883655749  0.338215156280441  0.8045586466857486  1.0000
  H   H7        1.0  0.853468574400523  0.47893022438795907  0.23245002527266223  1.0000
  H   H8        1.0  0.14653182819129282  0.521070001807999  0.7675500570518993  1.0000
  H   H9        1.0  0.12725022657645715  0.918546986068563  0.039146367278519244  1.0000
  H   H10       1.0  0.8727495906555589  0.0814547531438379  0.9608523040180971  1.0000
  H   H11       1.0  0.3997337740864637  0.8439113980265064  0.1147023732084662  1.0000
  H   H12       1.0  0.6002628973502695  0.15608807166123034  0.8852970764029564  1.0000
  H   H13       1.0  0.4519745825128324  0.1486289006047059  0.08877274957749393  1.0000
  H   H14       1.0  0.5480231375223354  0.8513713255912523  0.9112286713691802  1.0000
  H   H15       1.0  0.18393444772948436  0.2094045015345358  0.013467821766639104  1.0000
  H   H16       1.0  0.8160646135840041  0.7905957246614221  0.9865334875623546  1.0000
  H   H17       1.0  0.9440199926851134  0.3013830405371252  0.1787424446169013  1.0000
  H   H18       1.0  0.055980117226802475  0.6986179421670542  0.821259162967209  1.0000
  H   H19       1.0  0.7843666111058452  0.19071572244930485  0.1420708658883569  1.0000
  H   H20       1.0  0.21563291344627794  0.8092867732713175  0.8579293306678082  1.0000
  H   H21       1.0  0.10223446806595855  0.9341711503515668  0.29105121328218786  1.0000
  H   H22       1.0  0.8977699583608185  0.0658290758443911  0.7089440726422895  1.0000
  H   H23       1.0  0.24585604181930165  0.0554535655968991  0.323943200009559  1.0000
  H   H24       1.0  0.7541449461322998  0.9445451475826161  0.6760549471826565  1.0000
  C   C1        1.0  0.5409102962268904  0.3756070881071025  0.4104206164911588  1.0000
  C   C2        1.0  0.45909291104272393  0.6243893555477484  0.5895806510120494  1.0000
  C   C3        1.0  0.7008559754471477  0.3648434891423734  0.4433390143817917  1.0000
  C   C4        1.0  0.29914664646268113  0.6351544675289205  0.5566608420934784  1.0000
  C   C5        1.0  0.697966478820497  0.3632185094842129  0.5215835708653175  1.0000
  C   C6        1.0  0.3020388256459794  0.6367794471870811  0.4784160623745918  1.0000
  C   C7        1.0  0.5310549582335611  0.3724547183512641  0.5708194021912973  1.0000
  C   C8        1.0  0.4689536141493489  0.6275417253035869  0.42917918806767125  1.0000
  C   C9        1.0  0.36924073358844106  0.3836797873306494  0.5405720732107113  1.0000
  C   C10       1.0  0.6307642781981285  0.6163189258488659  0.4594290852887467  1.0000
  C   C11       1.0  0.3762335267515623  0.3851201789829447  0.46203642760619357  1.0000
  C   C12       1.0  0.6237688024783595  0.6148785341965706  0.5379643964352425  1.0000
  C   C13       1.0  0.3860128338967285  0.44887263976139746  0.11002174362735669  1.0000
  C   C14       1.0  0.6139896658919353  0.5511290994510035  0.8899789352074166  1.0000
  C   C15       1.0  0.2188119625688997  0.49664235136020823  0.08054847203688804  1.0000
  C   C16       1.0  0.7811851721064683  0.5033593878521857  0.9194548840421252  1.0000
  C   C17       1.0  0.17602918332580939  0.5998724371299105  0.045690889508364294  1.0000
  C   C18       1.0  0.8239679513495658  0.4001293020824832  0.9543113511838897  1.0000
  C   C19       1.0  0.3016347515194013  0.6591660384553037  0.03973353391216245  1.0000
  C   C20       1.0  0.6983666996708351  0.3408349442488756  0.9602662889741255  1.0000
  C   C21       1.0  0.46951229588792387  0.6141507732882163  0.06817838716492014  1.0000
  C   C22       1.0  0.530490496580633  0.3858502094159633  0.9318196510235454  1.0000
  C   C23       1.0  0.5106396232690429  0.5103737320749175  0.10193521316945454  1.0000
  C   C24       1.0  0.4893631691995138  0.4896272506292618  0.8980628250190109  1.0000
  C   C25       1.0  0.500558790458868  0.1257082145326365  0.43024857651494847  1.0000
  C   C26       1.0  0.4994395149360924  0.8742904986468789  0.5697509092993868  1.0000
  C   C27       1.0  0.6613060028569677  0.11870067888389711  0.4608238554288775  1.0000
  C   C28       1.0  0.33869305845652053  0.8812995473120611  0.5391752231265983  1.0000
  C   C29       1.0  0.6587819090653682  0.12073871203057963  0.5381820169824962  1.0000
  C   C30       1.0  0.3412163963295852  0.8792600011489355  0.46181635344508015  1.0000
  C   C31       1.0  0.4928675544980903  0.1302472638570933  0.5878144034352746  1.0000
  C   C32       1.0  0.5071312141354979  0.8697537188470863  0.4121850849929913  1.0000
  C   C33       1.0  0.3302278045481088  0.1371299756494153  0.5597751456055988  1.0000
  C   C34       1.0  0.6697725980436998  0.8628702505465429  0.4402243790255724  1.0000
  C   C35       1.0  0.3363533031368107  0.1341175599144151  0.482390355860808  1.0000
  C   C36       1.0  0.6636450022581498  0.8658811532651001  0.5176102453402862  1.0000
  C   C37       1.0  0.17499277178375647  0.5765288629624479  0.2612098958445728  1.0000
  C   C38       1.0  0.8250086794064798  0.4234721197417315  0.7387888116549562  1.0000
  C   C39       1.0  0.09634807986969918  0.6794230590821402  0.24367164113107984  1.0000
  C   C40       1.0  0.9036533713205371  0.3205779236220395  0.7563265086750661  1.0000
  C   C41       1.0  0.922137014073499  0.712281993650109  0.21885009455327512  1.0000
  C   C42       1.0  0.07786414443684461  0.287719745562292  0.7811479074322847  1.0000
  C   C43       1.0  0.8332003863718  0.6391458049015669  0.21426453987536584  1.0000
  C   C44       1.0  0.16679867494168824  0.3608544212943912  0.7857350963734931  1.0000
  C   C45       1.0  0.9211172484612006  0.5375172470351758  0.23416179768765485  1.0000
  C   C46       1.0  0.07888181285228774  0.4624829791607823  0.7658378385612039  1.0000
  C   C47       1.0  0.20351654827305035  0.9666087098405856  0.05179643613347906  1.0000
  C   C48       1.0  0.7964811717621101  0.0333915163553726  0.9482027540396772  1.0000
  C   C49       1.0  0.35330623057008387  0.9253880899087434  0.09382415086385269  1.0000
  C   C50       1.0  0.6466877583100015  0.0746113797789931  0.906176079676314  1.0000
  C   C51       1.0  0.4465542269365414  0.9908646329222679  0.10767330532524254  1.0000
  C   C52       1.0  0.553441688581664  0.0091333237490332  0.8923271092384228  1.0000
  C   C53       1.0  0.3832027826981275  0.09523303736823152  0.0792388170376057  1.0000
  C   C54       1.0  0.6167946446571406  0.9047679453359481  0.9207613407017163  1.0000
  C   C55       1.0  0.2335216375799334  0.1287297083662864  0.0374174138031265  1.0000
  C   C56       1.0  0.7664744484970143  0.871271274337893  0.9625828555538832  1.0000
  C   C57       1.0  0.9753280739005558  0.21965821395848917  0.20284265443589797  1.0000
  C   C58       1.0  0.024669353454712065  0.7803427687456903  0.7971580609968072  1.0000
  C   C59       1.0  0.8871370699783938  0.1579838812624175  0.18203333798983581  1.0000
  C   C60       1.0  0.11285767482022639  0.8420171014417619  0.8179681583716133  1.0000
  C   C61       1.0  0.932731512035353  0.0532309444443584  0.21328260263847199  1.0000
  C   C62       1.0  0.06726754927813519  0.9467692817515997  0.7867164759170038  1.0000
  C   C63       1.0  0.0644315632943346  0.014996262459789  0.2649443730197305  1.0000
  C   C64       1.0  0.9355709364943292  0.985005476752612  0.7350529596547659  1.0000
  C   C65       1.0  0.1436905845263894  0.0820175952600692  0.2834837108240862  1.0000
  C   C66       1.0  0.8563117447035323  0.9179811179194459  0.7165154401372151  1.0000
  C   C67       1.0  0.8439334680231808  0.9828698540454541  0.1942958473540131  1.0000
  C   C68       1.0  0.15606530061040758  0.0171311286587255  0.8057030833808696  1.0000
  C   C69       1.0  0.6124623171432756  0.9521533507586286  0.14783263607534278  1.0000
  C   C70       1.0  0.3875351102119851  0.04784763194555101  0.8521675216639865  1.0000
  C   C71       1.0  0.836432892018955  0.8218818786384716  0.19847474511772126  1.0000
  C   C72       1.0  0.16356587661464056  0.17811910406570775  0.8015253010039205  1.0000
  S   S1        1.0  0.5576399007929638  0.3773652132121086  0.31156230882763236  1.0000
  S   S2        1.0  0.44236301379675785  0.6226319869509638  0.688438253161607  1.0000
  S   S3        1.0  0.4396638962326804  0.3179354404069841  0.1505775585906974  1.0000
  S   S4        1.0  0.5603365063591282  0.6820647857889739  0.8494225237338568  1.0000
  S   S5        1.0  0.5110324767559788  0.12205503633467173  0.3327336603432728  1.0000
  S   S6        1.0  0.4889682185157297  0.8779444333530648  0.6672654544151086  1.0000
  N   N1        1.0  0.10215230398673467  0.1825371120748471  0.2527064801489018  1.0000
  N   N2        1.0  0.8978480986050741  0.8174631141211108  0.7472936021756595  1.0000
  N   N3        1.0  0.1440758808427702  0.066543976112996  0.0231687643692737  1.0000
  N   N4        1.0  0.8559225951109252  0.9334577630994049  0.976831133931782  1.0000
  N   N5        1.0  0.09014982596075778  0.5062976657815526  0.25631740327695945  1.0000
  N   N6        1.0  0.9098502839511581  0.4937033169226269  0.7436825312270088  1.0000
  N   N7        1.0  0.9252012697389062  0.8842514423893988  0.2125382711093309  1.0000
  N   N8        1.0  0.07479884017300982  0.1157495403147806  0.7874594326211126  1.0000
  N   N9        1.0  0.6888888625437914  0.0207555595443054  0.1612284239120356  1.0000
  N   N10       1.0  0.31111154004801717  0.9792446666516528  0.8387699853323836  1.0000
  N   N11       1.0  0.6786886359154138  0.8515112796120905  0.1671677479515025  1.0000
  N   N12       1.0  0.3213107180779673  0.1484881900756534  0.8328331515047012  1.0000
  F   F1        1.0  0.8664160675482362  0.35472519168993705  0.39786964078615483  1.0000
  F   F2        1.0  0.13359040763781835  0.6452697389484785  0.6021305837361126  1.0000
  F   F3        1.0  0.8548352682131506  0.3528951983039548  0.550348515936058  1.0000
  F   F4        1.0  0.1451737674084015  0.6471035148755604  0.44965286540374183  1.0000
  F   F5        1.0  0.5264871131926725  0.3702275581494021  0.6470206745969733  1.0000
  F   F6        1.0  0.4735198252320173  0.6297696420136776  0.3529795525392245  1.0000
  F   F7        1.0  0.20689830623621927  0.3930771324487168  0.5875071146640921  1.0000
  F   F8        1.0  0.7931061201905575  0.6069230937472414  0.4124926328074281  1.0000
  F   F9        1.0  0.2148719108628185  0.394606792071059  0.4356443908286778  1.0000
  F   F10       1.0  0.7851335157248085  0.6053873820591279  0.5643572085186223  1.0000
  F   F11       1.0  0.0918844012834796  0.44238482526030515  0.08691631713527669  1.0000
  F   F12       1.0  0.9081113921135681  0.5576169139520957  0.9130888236415585  1.0000
  F   F13       1.0  0.01379976166128224  0.6429185113984062  0.018322288309874986  1.0000
  F   F14       1.0  0.9861939345389028  0.3570817147975518  0.9816816982633654  1.0000
  F   F15       1.0  0.26112660149420464  0.7591030439401152  0.006530342035851779  1.0000
  F   F16       1.0  0.7388708258610632  0.2408979387640642  0.9934714887836196  1.0000
  F   F17       1.0  0.5911928392316383  0.6715803383576998  0.06222626909697476  1.0000
  F   F18       1.0  0.4088069780003848  0.32842140085470123  0.9377701714261235  1.0000
  F   F19       1.0  0.6772184785495696  0.4696062605672965  0.12639995821519528  1.0000
  F   F20       1.0  0.3227832653205596  0.5303939656286616  0.8735961086380186  1.0000
  F   F21       1.0  0.8245598947519212  0.11068471777690553  0.4146719565906309  1.0000
  F   F22       1.0  0.17543875176051665  0.889320047468381  0.585326681117003  1.0000
  F   F23       1.0  0.8154729194080514  0.11582216510397103  0.565170728018238  1.0000
  F   F24       1.0  0.18452387414984628  0.8841735220426656  0.4348295723138236  1.0000
  F   F25       1.0  0.48984495845475345  0.1344647971877393  0.6622998496281058  1.0000
  F   F26       1.0  0.5101508349422943  0.8655369420246615  0.3376997142149278  1.0000
  F   F27       1.0  0.16956707748216357  0.1469093574189628  0.6075378893274532  1.0000
  F   F28       1.0  0.8304257406783363  0.8530931383016593  0.392460634543589  1.0000
  F   F29       1.0  0.1754108344892273  0.1409329424750894  0.45704320308458796  1.0000
  F   F30       1.0  0.8245888121840468  0.8590657707044258  0.5429544980319321  1.0000
