data_image0
_chemical_formula_structural       Ba2H24C24S8N4O20
_chemical_formula_sum              "Ba2 H24 C24 S8 N4 O20"
_cell_length_a       7.5125784220779614
_cell_length_b       11.407406750944979
_cell_length_c       12.46850293969717
_cell_angle_alpha    117.23546022552165
_cell_angle_beta     99.63174172411519
_cell_angle_gamma    90.00753225006791

_space_group_name_H-M_alt    "P 1"
_space_group_IT_number       1

loop_
  _space_group_symop_operation_xyz
  'x, y, z'

loop_
  _atom_site_type_symbol
  _atom_site_label
  _atom_site_symmetry_multiplicity
  _atom_site_fract_x
  _atom_site_fract_y
  _atom_site_fract_z
  _atom_site_occupancy
  Ba  Ba1       1.0  0.7501397415498801  0.21346155185430857  0.9999864454977258  1.0000
  Ba  Ba2       1.0  0.24986064418278894  0.7865391336110363  1.465327810013963e-05  1.0000
  H   H1        1.0  0.03341233321825849  0.3265839549779344  0.8727444974916596  1.0000
  H   H2        1.0  0.46691349129802273  0.45391275653295077  0.12727747557015326  1.0000
  H   H3        1.0  0.9665921005906669  0.673415383850255  0.12725454784909837  1.0000
  H   H4        1.0  0.5330846948978589  0.5460905585656163  0.8727217806453069  1.0000
  H   H5        1.0  0.8781720749151275  0.41972607620232344  0.8859743623526627  1.0000
  H   H6        1.0  0.6221580886896589  0.5339011000205501  0.11411914730883402  1.0000
  H   H7        1.0  0.12183553440053883  0.5802772222117697  0.11402986829687481  1.0000
  H   H8        1.0  0.3778439786018951  0.46610123284441585  0.8858873179087042  1.0000
  H   H9        1.0  0.9837843402728764  0.7585748443442809  0.5905591017965008  1.0000
  H   H10       1.0  0.5159002828687989  0.16795457682164988  0.4093096422874254  1.0000
  H   H11       1.0  0.0162144519708534  0.24142252854836238  0.4094377408651583  1.0000
  H   H12       1.0  0.4841030345261643  0.8320467517490897  0.5906925231629004  1.0000
  H   H13       1.0  0.018385733187543003  0.6898115492421439  0.373306135313392  1.0000
  H   H14       1.0  0.4812851852382495  0.31638802611091416  0.6264734872762007  1.0000
  H   H15       1.0  0.9816141608351289  0.3101838403099891  0.6266899944835985  1.0000
  H   H16       1.0  0.5187185088333734  0.6836162694748821  0.3735291512760099  1.0000
  H   H17       1.0  0.19427355981294883  0.8370458745819889  0.3252857731963772  1.0000
  H   H18       1.0  0.305659901347724  0.5117441852915903  0.6747378075633891  1.0000
  H   H19       1.0  0.8057330824322053  0.1629494954311781  0.6747110440000696  1.0000
  H   H20       1.0  0.694340736271599  0.4882571425586805  0.3252608732672898  1.0000
  H   H21       1.0  0.33909414724740833  0.0558405763834742  0.4904844978791587  1.0000
  H   H22       1.0  0.1610912225649912  0.5655398334113926  0.5096193959856379  1.0000
  H   H23       1.0  0.660912842404379  0.9441577734488432  0.5095176069089646  1.0000
  H   H24       1.0  0.8389135732855807  0.4344624788339003  0.49038252970189694  1.0000
  C   C1        1.0  0.24667512690859889  0.02631987416535961  0.6327611205243926  1.0000
  C   C2        1.0  0.25330158218095994  0.3936727938647735  0.3672664194779288  1.0000
  C   C3        1.0  0.7533237746328895  0.9736784948456858  0.3672385545544472  1.0000
  C   C4        1.0  0.7466975818610919  0.6063275481769282  0.6327316987005747  1.0000
  C   C5        1.0  0.14739478410088225  0.9430038153299592  0.6593993161110918  1.0000
  C   C6        1.0  0.3525543576384323  0.2836995659044206  0.34052278154025123  1.0000
  C   C7        1.0  0.8526011702860643  0.056992582063955424  0.3405992336633902  1.0000
  C   C8        1.0  0.6474462702242151  0.7163017662138742  0.6594775041203604  1.0000
  C   C9        1.0  0.06238502381562229  0.8218216238618155  0.5680920499479074  1.0000
  C   C10       1.0  0.4374104376939556  0.2537096418488076  0.4317680838723135  1.0000
  C   C11       1.0  0.9376164579604236  0.1781757454832729  0.43190667250347303  1.0000
  C   C12       1.0  0.5625930133904619  0.746292672170263  0.5682329019203679  1.0000
  C   C13       1.0  0.08220130381126718  0.784347430857565  0.44742957780017883  1.0000
  C   C14       1.0  0.4174857760191628  0.3368496116736494  0.5524290585368874  1.0000
  C   C15       1.0  0.9178004404653352  0.21565191151818638  0.5525675877508646  1.0000
  C   C16       1.0  0.5825202552998051  0.6631517026794641  0.4475709746283273  1.0000
  C   C17       1.0  0.18089661359810805  0.8679807975238845  0.4199177172779401  1.0000
  C   C18       1.0  0.31888676033771907  0.4480702519387449  0.580070240874548  1.0000
  C   C19       1.0  0.8191034092356733  0.13201557961059512  0.5800780352763654  1.0000
  C   C20       1.0  0.6811153459805368  0.5519320638541032  0.4199298050232798  1.0000
  C   C21       1.0  0.2632154025758737  0.9909448954336566  0.5124015147323746  1.0000
  C   C22       1.0  0.23666903852665652  0.4785797829959506  0.4876395528630653  1.0000
  C   C23       1.0  0.7367836277767241  0.009054461159728099  0.4875977831037802  1.0000
  C   C24       1.0  0.7633313414704406  0.521419569689641  0.5123598824529836  1.0000
  S   S1        1.0  0.34174531822075954  0.17187858691740837  0.7713346495489901  1.0000
  S   S2        1.0  0.15827660763702062  0.4007185729649335  0.22874782343410524  1.0000
  S   S3        1.0  0.6582549232085455  0.828119782453868  0.22866676783966264  1.0000
  S   S4        1.0  0.8417213111799597  0.5992827712369857  0.771253792096651  1.0000
  S   S5        1.0  0.13940241351627242  0.0174528824787146  0.8185634244288809  1.0000
  S   S6        1.0  0.36054276466371254  0.19901914620960065  0.18135619712676032  1.0000
  S   S7        1.0  0.8605932832484486  0.9825415397505212  0.18143587983097126  1.0000
  S   S8        1.0  0.6394550350988342  0.800981206141941  0.8186441908167481  1.0000
  N   N1        1.0  0.3125617518998142  0.12364852051907597  0.8692625447837797  1.0000
  N   N2        1.0  0.18740392688746252  0.25455746253029327  0.13073279620552114  1.0000
  N   N3        1.0  0.6874312455759155  0.8763459095257458  0.13073648451629077  1.0000
  N   N4        1.0  0.8125953513306854  0.7454438734958018  0.8692673519751962  1.0000
  O   O1        1.0  0.9292775709016112  0.3568637367093856  0.9133559024171661  1.0000
  O   O2        1.0  0.5710549986664617  0.4436128903155138  0.08668782576412339  1.0000
  O   O3        1.0  0.07072807398402148  0.6431346148967092  0.08664526247609665  1.0000
  O   O4        1.0  0.4289418427632584  0.556390426556824  0.9133104905564764  1.0000
  O   O5        1.0  0.5357798681263689  0.19369614261930224  0.7782142794359218  1.0000
  O   O6        1.0  0.9642429183802365  0.4156729489560361  0.2218918075188441  1.0000
  O   O7        1.0  0.46421889484733475  0.8063012430774277  0.22178737771552176  1.0000
  O   O8        1.0  0.035753660548920194  0.5843283948856451  0.7781080657020922  1.0000
  O   O9        1.0  0.23959171096784354  0.2843241849552243  0.7792079157068983  1.0000
  O   O10       1.0  0.26048579173286157  0.5053107987667289  0.22090689882986678  1.0000
  O   O11       1.0  0.7604084114070274  0.7156731925656813  0.22079227409451366  1.0000
  O   O12       1.0  0.7395094473084712  0.4946905447147145  0.7790912320812496  1.0000
  O   O13       1.0  0.16686234423651314  0.923096237106371  0.8657950241763999  1.0000
  O   O14       1.0  0.3328878497647949  0.057420364903691706  0.134080787816103  1.0000
  O   O15       1.0  0.8331272386046181  0.07690314684155913  0.13420331130050306  1.0000
  O   O16       1.0  0.6671120481172322  0.9425859197041788  0.8659214862260287  1.0000
  O   O17       1.0  0.9679097260726054  0.07766616208505889  0.8308337556462391  1.0000
  O   O18       1.0  0.532082142203663  0.2469072115004209  0.16908474516531416  1.0000
  O   O19       1.0  0.03208256581418572  0.9223332097792537  0.16916324996051915  1.0000
  O   O20       1.0  0.4679176415022681  0.7530980791230633  0.8309154988746101  1.0000
