data_image0
_chemical_formula_structural       Zn4H64C96N8O20
_chemical_formula_sum              "Zn4 H64 C96 N8 O20"
_cell_length_a       10.355609676597647
_cell_length_b       15.318200626990086
_cell_length_c       27.436137270120636
_cell_angle_alpha    78.66880822460476
_cell_angle_beta     79.11095142550187
_cell_angle_gamma    70.24722868203352

_space_group_name_H-M_alt    "P 1"
_space_group_IT_number       1

loop_
  _space_group_symop_operation_xyz
  'x, y, z'

loop_
  _atom_site_type_symbol
  _atom_site_label
  _atom_site_symmetry_multiplicity
  _atom_site_fract_x
  _atom_site_fract_y
  _atom_site_fract_z
  _atom_site_occupancy
  Zn  Zn1       1.0  0.8465866593095298  0.2705460619925404  0.5210051860784191  1.0000
  Zn  Zn2       1.0  0.6386900577283824  0.22923311600870017  0.9789211270959157  1.0000
  Zn  Zn3       1.0  0.15341018610079263  0.7294554235117658  0.4789947164502379  1.0000
  Zn  Zn4       1.0  0.36130943746477584  0.7707690765731314  0.021079591573076976  1.0000
  H   H1        1.0  0.8408200571113015  0.3355123044580139  0.07490418894714419  1.0000
  H   H2        1.0  0.2509919438181996  0.1649878016422548  0.4250575536069192  1.0000
  H   H3        1.0  0.15918727672355706  0.6644877770292652  0.9250954554261882  1.0000
  H   H4        1.0  0.7490048347568109  0.8350094668042302  0.5749410082028206  1.0000
  H   H5        1.0  0.690558959612879  0.4646513052348595  0.20969465470099646  1.0000
  H   H6        1.0  0.3643731651681392  0.035748805902258596  0.2902823961184779  1.0000
  H   H7        1.0  0.30943458937817786  0.5353466808023554  0.7903062535749683  1.0000
  H   H8        1.0  0.6356301749416176  0.9642470629911203  0.7097165640869106  1.0000
  H   H9        1.0  0.9790365909541521  0.0430822664419281  0.033133057388361885  1.0000
  H   H10       1.0  0.05483094296080537  0.4573491117822072  0.46680198559604247  1.0000
  H   H11       1.0  0.020958286841292282  0.9569171229449579  0.9668679577214975  1.0000
  H   H12       1.0  0.9451622691162597  0.5426516671243391  0.5331971740134448  1.0000
  H   H13       1.0  0.8516918244669823  0.19099583652160854  0.0672808192630541  1.0000
  H   H14       1.0  0.10932518457226342  0.30958496857343215  0.4325057894009205  1.0000
  H   H15       1.0  0.1483073547198757  0.8090049624103273  0.9327211740160593  1.0000
  H   H16       1.0  0.8906771866109082  0.6904109058894788  0.5674939713582176  1.0000
  H   H17       1.0  0.14062642637475883  0.1220848106668058  0.1733988393614325  1.0000
  H   H18       1.0  0.43610119391253493  0.37828070356906096  0.3266038300009626  1.0000
  H   H19       1.0  0.8593815614084476  0.8779180657549261  0.8265993467905446  1.0000
  H   H20       1.0  0.5638956441858765  0.6217207793903654  0.6733957088614062  1.0000
  H   H21       1.0  0.0443514141836019  0.191380420799355  0.36078808385752137  1.0000
  H   H22       1.0  0.5965426625013491  0.3088339697212847  0.1391616296341383  1.0000
  H   H23       1.0  0.9556556417466309  0.8086245709932597  0.6392117550408117  1.0000
  H   H24       1.0  0.4034633571529439  0.6911647135060904  0.8608386352378974  1.0000
  H   H25       1.0  0.6330984932931188  0.4132456129074312  0.2864606455909282  1.0000
  H   H26       1.0  0.33256288028778874  0.08707695120205018  0.21348008370090102  1.0000
  H   H27       1.0  0.36690458250778585  0.5867509772271688  0.7135411687497637  1.0000
  H   H28       1.0  0.6674368787001937  0.9129224230616229  0.7865187469716447  1.0000
  H   H29       1.0  0.6393282326042778  0.3920894966493762  0.3783457137264605  1.0000
  H   H30       1.0  0.4095970264072051  0.10819433164967758  0.12157805820962153  1.0000
  H   H31       1.0  0.3606725903652118  0.6079099051282455  0.6216570440541389  1.0000
  H   H32       1.0  0.590395570337222  0.8918120533545846  0.878420513397252  1.0000
  H   H33       1.0  0.038932832588344  0.21093918411569493  0.2684210341941125  1.0000
  H   H34       1.0  0.5179904195860345  0.28941677369525826  0.2315123200212525  1.0000
  H   H35       1.0  0.9610709196106979  0.7890623056649417  0.7315794467852399  1.0000
  H   H36       1.0  0.4820132945113258  0.7105784121301468  0.7684892410432199  1.0000
  H   H37       1.0  0.27403695869049477  0.9730203258475782  0.13718801962077984  1.0000
  H   H38       1.0  0.38438882656716095  0.5272383704197097  0.3628836966080016  1.0000
  H   H39       1.0  0.7259729967075899  0.0269846466915737  0.8628090539499951  1.0000
  H   H40       1.0  0.6156109392187045  0.4727589093119137  0.6371164638696953  1.0000
  H   H41       1.0  0.06557223593593159  0.273236954332269  0.5415523576409385  1.0000
  H   H42       1.0  0.8810393954479423  0.22662856489024108  0.9583303897135096  1.0000
  H   H43       1.0  0.9344258270579293  0.7267596051176498  0.4584450951437872  1.0000
  H   H44       1.0  0.11896304308457674  0.773373623707428  0.041669745625682694  1.0000
  H   H45       1.0  0.08432718710232481  0.18233020251653898  0.5803575947589934  1.0000
  H   H46       1.0  0.8472684891085506  0.3175434555593172  0.9195567285348006  1.0000
  H   H47       1.0  0.9156729390753708  0.8176705832112177  0.4196425069674845  1.0000
  H   H48       1.0  0.152731622445316  0.6824573250786725  0.08044264585909394  1.0000
  H   H49       1.0  0.6357449665547535  0.42294960126903897  0.055489805503356075  1.0000
  H   H50       1.0  0.11391900525071459  0.07742870080989661  0.44451945764982526  1.0000
  H   H51       1.0  0.36425808833846673  0.5770511753847885  0.9445089855607378  1.0000
  H   H52       1.0  0.8860715873192436  0.9225755753525318  0.5554784082067741  1.0000
  H   H53       1.0  0.4851103287131054  0.5705101205855528  0.010126823938186584  1.0000
  H   H54       1.0  0.06572486834409831  0.9297950326926668  0.4899778174665173  1.0000
  H   H55       1.0  0.5148855174948963  0.42948716615487825  0.9898743567567793  1.0000
  H   H56       1.0  0.93426473336352  0.0702092414046405  0.5100197579449599  1.0000
  H   H57       1.0  0.5105061893277139  0.732806788264675  0.10907788769068111  1.0000
  H   H58       1.0  0.3527696454852318  0.7674810996376706  0.39108898895096905  1.0000
  H   H59       1.0  0.4894880360614735  0.26719609741857653  0.8909216872239512  1.0000
  H   H60       1.0  0.6472206446741993  0.23251759381074066  0.6089128111260605  1.0000
  H   H61       1.0  0.6715760297397679  0.5953474344548226  0.15658807593349885  1.0000
  H   H62       1.0  0.42350695916176323  0.9049922294925068  0.3434666184598925  1.0000
  H   H63       1.0  0.32842179922098325  0.404654050569725  0.8434117533739922  1.0000
  H   H64       1.0  0.5764941051527614  0.0950022492553799  0.6565341264642441  1.0000
  C   C1        1.0  0.6679933814427983  0.4968237951381482  0.10996658182308748  1.0000
  C   C2        1.0  0.27456329570168947  0.0035448188702603  0.3900500175887416  1.0000
  C   C3        1.0  0.33200184160661916  0.5031769980781746  0.8900346133418254  1.0000
  C   C4        1.0  0.7254341801791426  0.9964531627030411  0.6099502341362566  1.0000
  C   C5        1.0  0.7552798792103275  0.4121984111984461  0.1383264628019774  1.0000
  C   C6        1.0  0.3054315148341971  0.08822081274006877  0.3616487037223095  1.0000
  C   C7        1.0  0.2447218834380892  0.5878009748301237  0.8616740397596984  1.0000
  C   C8        1.0  0.6945672527774107  0.9117764623815461  0.6383508026439701  1.0000
  C   C9        1.0  0.9115131681201517  0.2534185877567481  0.1441405195665197  1.0000
  C   C10       1.0  0.30879597270551074  0.24700492109786856  0.3557916514740073  1.0000
  C   C11       1.0  0.08848731113747026  0.7465857014222619  0.855859159742444  1.0000
  C   C12       1.0  0.6912067359056806  0.7529902575726553  0.6442088918127524  1.0000
  C   C13       1.0  0.8351317806039875  0.3240069043846318  0.21631494759311212  1.0000
  C   C14       1.0  0.3750945142732363  0.1763847632355251  0.2836244178578937  1.0000
  C   C15       1.0  0.16486932912413726  0.6759938808633591  0.7836850809121998  1.0000
  C   C16       1.0  0.6249058976350382  0.8236132118087268  0.7163748868710159  1.0000
  C   C17       1.0  0.8362069853014946  0.3342016216619824  0.1150163449686161  1.0000
  C   C18       1.0  0.2851046169265389  0.16624336596495937  0.3849463421293606  1.0000
  C   C19       1.0  0.16379513042683416  0.6658012678178409  0.8849837351755456  1.0000
  C   C20       1.0  0.7148934972507491  0.8337532112991396  0.6150536563194181  1.0000
  C   C21       1.0  0.9899285246185202  0.16667571922536684  0.12218426777533149  1.0000
  C   C22       1.0  0.278549075976791  0.33374514585236875  0.3777433594975578  1.0000
  C   C23       1.0  0.01007259242151552  0.8333250685675181  0.8778161243962757  1.0000
  C   C24       1.0  0.7214490601362441  0.6662514390463842  0.6222577299500998  1.0000
  C   C25       1.0  0.8369529823729422  0.3140346241020353  0.2710149330208936  1.0000
  C   C26       1.0  0.42169438393438713  0.18632987093418757  0.2289209736181306  1.0000
  C   C27       1.0  0.16305076251418169  0.6859668631337142  0.7289851842921706  1.0000
  C   C28       1.0  0.5783053672276425  0.8136674037076688  0.7710784595269831  1.0000
  C   C29       1.0  0.7544011659477478  0.4062601743600994  0.1899732339329105  1.0000
  C   C30       1.0  0.35016607014589607  0.0941478096732382  0.3099919703282055  1.0000
  C   C31       1.0  0.24560094195463475  0.5937406154979074  0.8100274486838189  1.0000
  C   C32       1.0  0.6498326901537934  0.9058494629034969  0.6900071723717857  1.0000
  C   C33       1.0  0.8455499263320333  0.27880234579087215  0.43002552396352917  1.0000
  C   C34       1.0  0.5545177256920297  0.2214145634517236  0.0698970758458444  1.0000
  C   C35       1.0  0.1544544939251652  0.7211998469370399  0.5699751922659148  1.0000
  C   C36       1.0  0.4454824229354557  0.7785883269876237  0.9301031507406564  1.0000
  C   C37       1.0  0.8423961403660342  0.29058708756058854  0.3750821133690962  1.0000
  C   C38       1.0  0.5079111405379848  0.20973546357497236  0.12483971811211352  1.0000
  C   C39       1.0  0.15761057710811602  0.7094144058705325  0.6249188752793415  1.0000
  C   C40       1.0  0.4920883395173162  0.7902646268401553  0.8751612393631519  1.0000
  C   C41       1.0  0.016141950415018903  0.060435908894461904  0.0634191908551216  1.0000
  C   C42       1.0  0.13965140024134837  0.4399699664155534  0.4365271306718839  1.0000
  C   C43       1.0  0.9838591661109889  0.9395627818214792  0.9365821674553415  1.0000
  C   C44       1.0  0.8603440871169142  0.5600301055595551  0.5634712103577185  1.0000
  C   C45       1.0  0.9451958406723336  0.14419191383120025  0.0823931293415043  1.0000
  C   C46       1.0  0.17133941411540826  0.3563041914623994  0.41748112847024293  1.0000
  C   C47       1.0  0.05480526122983777  0.855806771794974  0.9176075016363754  1.0000
  C   C48       1.0  0.8286590453158457  0.6436937896311361  0.5825190500335893  1.0000
  C   C49       1.0  0.1348806055188447  0.9987183416336405  0.08317451717758931  1.0000
  C   C50       1.0  0.21670750866957897  0.5015636808821995  0.416872840336346  1.0000
  C   C51       1.0  0.8651234616584345  0.0012803476430250018  0.9168266214693689  1.0000
  C   C52       1.0  0.78329483326592  0.498432183401178  0.5831254657576254  1.0000
  C   C53       1.0  0.10769001364306524  0.10388807146770059  0.1423925316074843  1.0000
  C   C54       1.0  0.3539951222898736  0.3964330738805728  0.3576267651173808  1.0000
  C   C55       1.0  0.8923153760547536  0.8961162127676231  0.8576064179293397  1.0000
  C   C56       1.0  0.646004944364428  0.6035634973342496  0.6423723595564752  1.0000
  C   C57       1.0  0.9547370096035972  0.2395046125169458  0.3439956781296658  1.0000
  C   C58       1.0  0.5380660316990457  0.2608094101557655  0.1559369204442902  1.0000
  C   C59       1.0  0.04526741065360802  0.7604975802109735  0.656005038099778  1.0000
  C   C60       1.0  0.4619419764778172  0.7391871826698022  0.8440652551231481  1.0000
  C   C61       1.0  0.7247397494404808  0.3652569400199823  0.302342132431491  1.0000
  C   C62       1.0  0.3921586075720569  0.13504112649957278  0.1975908876887758  1.0000
  C   C63       1.0  0.27526596151943056  0.6347403521023762  0.6976597707169534  1.0000
  C   C64       1.0  0.6078382378382725  0.8649603590047336  0.8024090148398885  1.0000
  C   C65       1.0  0.7268885579493797  0.35360487731654894  0.353802121046435  1.0000
  C   C66       1.0  0.4341211912030829  0.1467022628895407  0.1461163683097197  1.0000
  C   C67       1.0  0.2731151942496625  0.6463966124640874  0.6461983599329173  1.0000
  C   C68       1.0  0.5658812248796536  0.8532978209965378  0.8538836421694569  1.0000
  C   C69       1.0  0.9520567873793766  0.2507564512076286  0.2926679159249304  1.0000
  C   C70       1.0  0.49519849734322463  0.2496100033593081  0.20725643375944  1.0000
  C   C71       1.0  0.04794596613137975  0.7492429368860627  0.7073328770818677  1.0000
  C   C72       1.0  0.5048048647022868  0.7503858731687244  0.7927436174448205  1.0000
  C   C73       1.0  0.1806132339281561  0.0213600320762453  0.122687482041556  1.0000
  C   C74       1.0  0.32468654702856264  0.47892847242916764  0.377371401388885  1.0000
  C   C75       1.0  0.8193947611669682  0.9786428468903664  0.8773110677767093  1.0000
  C   C76       1.0  0.6753122205830449  0.5210688026924473  0.6226281049774017  1.0000
  C   C77       1.0  0.21314527492975083  0.9104801319880523  0.06209037899768789  1.0000
  C   C78       1.0  0.18561806171728523  0.589758785937903  0.43798763113326095  1.0000
  C   C79       1.0  0.7868584772692914  0.0895213577925844  0.9379101019816716  1.0000
  C   C80       1.0  0.8143852862184175  0.4102391825772997  0.56201072659956  1.0000
  C   C81       1.0  0.6145123685146955  0.4906199883603152  0.06778368111458381  1.0000
  C   C82       1.0  0.1727545753049782  0.009738840513428198  0.4322712406224198  1.0000
  C   C83       1.0  0.38548286915855107  0.5093808099457745  0.9322182413829125  1.0000
  C   C84       1.0  0.8272386519099517  0.9902640405598147  0.5677276801807949  1.0000
  C   C85       1.0  0.5288448760449073  0.5711653056037918  0.043120794375234084  1.0000
  C   C86       1.0  0.14312634510211814  0.9291333457005422  0.4569844619188927  1.0000
  C   C87       1.0  0.4711510004388302  0.4288361854700399  0.9568799087071796  1.0000
  C   C88       1.0  0.8568612816787039  0.0708688297344651  0.5430138624074843  1.0000
  C   C89       1.0  0.5436066828015313  0.6628092766668701  0.09849173861556441  1.0000
  C   C90       1.0  0.30508063797378066  0.8375115638031616  0.40164290377827433  1.0000
  C   C91       1.0  0.4563930981222057  0.33719010523145704  0.90150818305586  1.0000
  C   C92       1.0  0.6949138726319434  0.16248641411964823  0.5983568402776457  1.0000
  C   C93       1.0  0.6314188255177413  0.5857479098111824  0.12474747230451297  1.0000
  C   C94       1.0  0.34187353454638714  0.914612250965618  0.3753053152108166  1.0000
  C   C95       1.0  0.3685753847335817  0.4142528737053652  0.8752523414163919  1.0000
  C   C96       1.0  0.6581272367256547  0.08538503592089339  0.6246958630445932  1.0000
  N   N1        1.0  0.9130255863353935  0.24969824782559866  0.19343529032376242  1.0000
  N   N2        1.0  0.3558786751638864  0.25069251242936724  0.306497487964883  1.0000
  N   N3        1.0  0.08697848135592079  0.7503025385279968  0.8065648821843326  1.0000
  N   N4        1.0  0.6441233878389239  0.7493040680054578  0.693502944931808  1.0000
  N   N5        1.0  0.49273892157808047  0.6556290101042137  0.05826100492108565  1.0000
  N   N6        1.0  0.20680878299199876  0.8446532361155479  0.44187474326366066  1.0000
  N   N7        1.0  0.5072648013732958  0.34437246949689654  0.9417380213930926  1.0000
  N   N8        1.0  0.7931785429203941  0.15534964783626043  0.5581246168665643  1.0000
  O   O1        1.0  0.9519513321725982  0.2213498963158287  0.4495431386471154  1.0000
  O   O2        1.0  0.6227206096200746  0.2790107795845671  0.05035523921934979  1.0000
  O   O3        1.0  0.04805736754025956  0.7786536983224792  0.5504574647527107  1.0000
  O   O4        1.0  0.3772834726950691  0.7209900118587953  0.9496456606213358  1.0000
  O   O5        1.0  0.7428389318064035  0.32679321421743873  0.4577063400169338  1.0000
  O   O6        1.0  0.5280182090483263  0.17308526330499774  0.04226753554665659  1.0000
  O   O7        1.0  0.25716216226982175  0.6732033717869184  0.5422948934335068  1.0000
  O   O8        1.0  0.47197835794334947  0.8269190354277003  0.9577335276458712  1.0000
  O   O9        1.0  0.16755308944956226  0.8877068622869686  0.027438113592495494  1.0000
  O   O10       1.0  0.08256076128992622  0.6125004385310291  0.4726335872094864  1.0000
  O   O11       1.0  0.832445788868867  0.11229464516176792  0.9725649154904659  1.0000
  O   O12       1.0  0.9174416255451378  0.3874996351755228  0.5273649686045161  1.0000
  O   O13       1.0  0.32670934250001693  0.8576583944356526  0.07788959840019767  1.0000
  O   O14       1.0  0.26214377470921596  0.6426199409177044  0.4222112995554212  1.0000
  O   O15       1.0  0.6732940571331412  0.14234168897066715  0.9221103388578129  1.0000
  O   O16       1.0  0.7378644977764993  0.3573759306666489  0.5777880218766994  1.0000
  O   O17       1.0  0.0782297947252744  0.2056418132665883  0.5449637629455921  1.0000
  O   O18       1.0  0.8293516247150023  0.29417429717602067  0.9549579201570566  1.0000
  O   O19       1.0  0.9217607816787563  0.7943561665752626  0.45503627399500607  1.0000
  O   O20       1.0  0.1706481786585102  0.7058271894338899  0.04504212637439051  1.0000
