data_image0
_chemical_formula_structural       U4H24C24O24
_chemical_formula_sum              "U4 H24 C24 O24"
_cell_length_a       7.6340977710053695
_cell_length_b       10.465367776094178
_cell_length_c       10.715252441405504
_cell_angle_alpha    113.43232121326454
_cell_angle_beta     89.99987638157123
_cell_angle_gamma    90.00000215697773

_space_group_name_H-M_alt    "P 1"
_space_group_IT_number       1

loop_
  _space_group_symop_operation_xyz
  'x, y, z'

loop_
  _atom_site_type_symbol
  _atom_site_label
  _atom_site_symmetry_multiplicity
  _atom_site_fract_x
  _atom_site_fract_y
  _atom_site_fract_z
  _atom_site_occupancy
  U   U1        1.0  0.26465422667516947  0.0834884059022443  0.3319452919750816  1.0000
  U   U2        1.0  0.7646507008698648  0.9165165402013573  0.16805028653406853  1.0000
  U   U3        1.0  0.735345904970636  0.9165117090418134  0.6680549794766861  1.0000
  U   U4        1.0  0.2353507406912101  0.08348357154918057  0.8319481171802752  1.0000
  H   H1        1.0  0.8559314863724267  0.47101694164550884  0.4763949061996442  1.0000
  H   H2        1.0  0.35593201479464637  0.5289817004622178  0.023603689159301652  1.0000
  H   H3        1.0  0.14406864527279586  0.5289842147151871  0.523605768299106  1.0000
  H   H4        1.0  0.6440681168517416  0.4710173730652017  0.9763961792454837  1.0000
  H   H5        1.0  0.6305138211994077  0.4735758574703084  0.5200424303963304  1.0000
  H   H6        1.0  0.1305156119160813  0.5264226125298563  0.9799564652281206  1.0000
  H   H7        1.0  0.3694850005333236  0.5264252988908565  0.4799582441036279  1.0000
  H   H8        1.0  0.8694858296441836  0.47357645940057586  0.02004246930735581  1.0000
  H   H9        1.0  0.721065092413852  0.5669722838630307  0.7626355394357986  1.0000
  H   H10       1.0  0.2210662916419821  0.43302716299778865  0.7373635924997403  1.0000
  H   H11       1.0  0.278933729319469  0.4330278310814961  0.23736473201718414  1.0000
  H   H12       1.0  0.7789338400043987  0.5669719105296309  0.2626362759050452  1.0000
  H   H13       1.0  0.9411618984647561  0.5192959402248363  0.7148395772995357  1.0000
  H   H14       1.0  0.4411629571452094  0.48070439114034247  0.7851595524082101  1.0000
  H   H15       1.0  0.058836923267172395  0.4807041763162159  0.28516162802154804  1.0000
  H   H16       1.0  0.5588371745019812  0.5192957222071897  0.21483978517544955  1.0000
  H   H17       1.0  0.6477074408708104  0.3181943770189406  0.7143520618536103  1.0000
  H   H18       1.0  0.14770981486106646  0.6818051237364315  0.7856481390259447  1.0000
  H   H19       1.0  0.3522913808644788  0.6818046949124221  0.28564687268427486  1.0000
  H   H20       1.0  0.8522903167853142  0.31819394979098803  0.21435172937884064  1.0000
  H   H21       1.0  0.8790576417392157  0.28592316217427793  0.7093348743781293  1.0000
  H   H22       1.0  0.37905869199027353  0.7140782580762206  0.790666640468402  1.0000
  H   H23       1.0  0.1209411799935225  0.7140779941868871  0.290665800121829  1.0000
  H   H24       1.0  0.620941439654139  0.2859218584643628  0.20933456485148133  1.0000
  C   C1        1.0  0.7642702986378253  0.28345842341888533  0.5155519712451949  1.0000
  C   C2        1.0  0.2642707725576939  0.7165420356533259  0.9844484180502635  1.0000
  C   C3        1.0  0.23572983300797998  0.7165416915251727  0.484448300206573  1.0000
  C   C4        1.0  0.7357293590886937  0.28345703787410054  0.01555145035452905  1.0000
  C   C5        1.0  0.7619438627250901  0.4430109255212214  0.5384476563049958  1.0000
  C   C6        1.0  0.2619443993172722  0.5569884921963749  0.9615514003590919  1.0000
  C   C7        1.0  0.23805495900822385  0.5569891894233052  0.46155261514797996  1.0000
  C   C8        1.0  0.7380557323291157  0.44301058133104476  0.03844846804569358  1.0000
  C   C9        1.0  0.8048341018803454  0.48665672926183134  0.6905122301215912  1.0000
  C   C10       1.0  0.304836399219667  0.5133447423074529  0.8094884875270766  1.0000
  C   C11       1.0  0.19516340993909853  0.5133433872796829  0.3094889752007006  1.0000
  C   C12       1.0  0.6951650423386225  0.4866553726361429  0.19051178392349039  1.0000
  C   C13       1.0  0.7740145012722619  0.33540429107245007  0.6750676676416489  1.0000
  C   C14       1.0  0.2740167578227854  0.6645961610522447  0.8249327037096921  1.0000
  C   C15       1.0  0.22598432046244446  0.6645958222755509  0.32493166994321854  1.0000
  C   C16       1.0  0.725983373821627  0.3354039554883314  0.1750685016101841  1.0000
  C   C17       1.0  0.5976167737183431  0.20886201444895386  0.45332011983067844  1.0000
  C   C18       1.0  0.097617242429429  0.791139936067509  0.046680160316654465  1.0000
  C   C19       1.0  0.4023833579288478  0.7911380988985854  0.5466792177529812  1.0000
  C   C20       1.0  0.9023828892163762  0.2088601788765487  0.9533201111351207  1.0000
  C   C21       1.0  0.931602547173739  0.21402812388847536  0.4490916569934314  1.0000
  C   C22       1.0  0.43160300313040517  0.7859715088812322  0.05090906981199338  1.0000
  C   C23       1.0  0.06839758447205918  0.7859719910555825  0.5509086144583436  1.0000
  C   C24       1.0  0.5683971285159828  0.21402756464618725  0.949090798592792  1.0000
  O   O1        1.0  0.2567579417509478  0.9795945658123058  0.43126121627579284  1.0000
  O   O2        1.0  0.7567586105750692  0.020406233024914393  0.0687402355262492  1.0000
  O   O3        1.0  0.7432421898970529  0.020406587355339  0.5687375904867409  1.0000
  O   O4        1.0  0.24324414090045815  0.9795928357119977  0.9312568312717958  1.0000
  O   O5        1.0  0.2732932464073273  0.1883986856467956  0.23439002154661645  1.0000
  O   O6        1.0  0.7732894268321856  0.8116062702631978  0.2656148797364466  1.0000
  O   O7        1.0  0.7267068852412562  0.8116014261042108  0.765608382168935  1.0000
  O   O8        1.0  0.22671070481303696  0.18839488609749822  0.7343857947623037  1.0000
  O   O9        1.0  0.4519373975172413  0.25826113894796526  0.5068307213845102  1.0000
  O   O10       1.0  0.9519381383307175  0.7417391895247859  0.9931711900864003  1.0000
  O   O11       1.0  0.5480627341299494  0.7417389743995668  0.4931686161991493  1.0000
  O   O12       1.0  0.04806199331427759  0.2582598855991591  0.006829612186493287  1.0000
  O   O13       1.0  0.5933754404256533  0.0968968832877124  0.34221217121980635  1.0000
  O   O14       1.0  0.09337689236364347  0.9031050734451892  0.15778998447260745  1.0000
  O   O15       1.0  0.4066246912215449  0.9031032300598199  0.6577871663638534  1.0000
  O   O16       1.0  0.9066232392835545  0.0968950399023427  0.842209353111052  1.0000
  O   O17       1.0  0.9354459929268869  0.10151442462520778  0.3385329285096788  1.0000
  O   O18       1.0  0.43544612385196757  0.8984872882378098  0.16146859731288998  1.0000
  O   O19       1.0  0.0645541387189184  0.8984856903188502  0.6614673429420962  1.0000
  O   O20       1.0  0.564555317706322  0.10151282670578608  0.8385316741376769  1.0000
  O   O21       1.0  0.07750940307044368  0.2662668179433609  0.4996832020894146  1.0000
  O   O22       1.0  0.5775116096260361  0.7337330672672806  0.00031817672324760225  1.0000
  O   O23       1.0  0.9224894186628703  0.7337332970011587  0.500317069363561  1.0000
  O   O24       1.0  0.42248852202035175  0.26626600626013897  0.999681691681545  1.0000
