data_image0
_chemical_formula_structural       CuH12C14Cl2O8
_chemical_formula_sum              "Cu1 H12 C14 Cl2 O8"
_cell_length_a       3.7090341219866816
_cell_length_b       7.132736923081259
_cell_length_c       14.886550719233743
_cell_angle_alpha    78.08522353151282
_cell_angle_beta     87.95864393825227
_cell_angle_gamma    84.438522976598

_space_group_name_H-M_alt    "P 1"
_space_group_IT_number       1

loop_
  _space_group_symop_operation_xyz
  'x, y, z'

loop_
  _atom_site_type_symbol
  _atom_site_label
  _atom_site_symmetry_multiplicity
  _atom_site_fract_x
  _atom_site_fract_y
  _atom_site_fract_z
  _atom_site_occupancy
  Cu  Cu1       1.0  0.4999957230562657  0.499996019897246  0.5000029528067529  1.0000
  H   H1        1.0  0.3280118262607772  0.831106170237234  0.24611225962215147  1.0000
  H   H2        1.0  0.6719845175996327  0.1688887479966041  0.7538933024763494  1.0000
  H   H3        1.0  0.530405847492709  0.9381107128961969  0.08552425297035177  1.0000
  H   H4        1.0  0.4695765686603083  0.0618869469045791  0.9144764355438328  1.0000
  H   H5        1.0  0.8356614907548305  0.4635882161625061  0.14898582609769312  1.0000
  H   H6        1.0  0.16433968677270633  0.536410598853358  0.8510045062861097  1.0000
  H   H7        1.0  0.992996476993838  0.3738187695095759  0.6226927991211825  1.0000
  H   H8        1.0  0.006997194315438503  0.6261760909497551  0.37731077608270175  1.0000
  H   H9        1.0  0.8284656641090039  0.19347215673221996  0.5881527894004392  1.0000
  H   H10       1.0  0.17153048967347223  0.8065240665041529  0.41184793456224617  1.0000
  H   H11       1.0  0.3865357206686256  0.13206947622103368  0.40995173143030444  1.0000
  H   H12       1.0  0.6134486403120578  0.8679482509020173  0.5900441456131348  1.0000
  C   C1        1.0  0.614317140017377  0.26546426424205544  0.2611829352426582  1.0000
  C   C2        1.0  0.3856909840587477  0.7345406512017901  0.7388187905059524  1.0000
  C   C3        1.0  0.46527758400390706  0.08679794842986147  0.2886490929516654  1.0000
  C   C4        1.0  0.5347310630248998  0.9132040321277513  0.7113509212628415  1.0000
  C   C5        1.0  0.4384250616988866  0.9696319435132706  0.22506482781273016  1.0000
  C   C6        1.0  0.5615919022588045  0.030368656926817995  0.7749372768993865  1.0000
  C   C7        1.0  0.5516048228427693  0.029786934798813995  0.1347319696243758  1.0000
  C   C8        1.0  0.4483915630166989  0.9702078878817416  0.8652702431194967  1.0000
  C   C9        1.0  0.6893125196328997  0.20869561361794098  0.10691772144148362  1.0000
  C   C10       1.0  0.31068392502525205  0.7912990752880159  0.8930798022059181  1.0000
  C   C11       1.0  0.7228130585104539  0.32576027625417936  0.16923605887669885  1.0000
  C   C12       1.0  0.27718924790960403  0.674247343862923  0.8307593853912467  1.0000
  C   C13       1.0  0.6658827709722177  0.3902514885053137  0.327051472343797  1.0000
  C   C14       1.0  0.3341261501326472  0.6097489959431995  0.6729466812972762  1.0000
  Cl  Cl1       1.0  0.8265997945221814  0.28032506425940795  0.993478828632796  1.0000
  Cl  Cl2       1.0  0.17341089181170594  0.7196495599795368  0.006523370176353209  1.0000
  O   O1        1.0  0.5311473495817298  0.3332796142195491  0.40998436281446266  1.0000
  O   O2        1.0  0.468858359219702  0.6667237855619987  0.5900148552079543  1.0000
  O   O3        1.0  0.8306736704537274  0.5387589395232979  0.30339680288146553  1.0000
  O   O4        1.0  0.1693438164566459  0.46123872603056526  0.6966035902965545  1.0000
  O   O5        1.0  0.8954363747374218  0.3278640883147047  0.5682016078183879  1.0000
  O   O6        1.0  0.10456143089025723  0.6721380051366734  0.4318025164943365  1.0000
  O   O7        1.0  0.34727423976453764  0.024930265208759298  0.3768833397980416  1.0000
  O   O8        1.0  0.6527071661891454  0.9750889193595355  0.6231130807951503  1.0000
