data_image0
_chemical_formula_structural       Cd2H36C40N8O12
_chemical_formula_sum              "Cd2 H36 C40 N8 O12"
_cell_length_a       9.770939069729854
_cell_length_b       11.72670233432271
_cell_length_c       12.36939404319536
_cell_angle_alpha    86.22837149186697
_cell_angle_beta     66.73826454521964
_cell_angle_gamma    65.37261070076755

_space_group_name_H-M_alt    "P 1"
_space_group_IT_number       1

loop_
  _space_group_symop_operation_xyz
  'x, y, z'

loop_
  _atom_site_type_symbol
  _atom_site_label
  _atom_site_symmetry_multiplicity
  _atom_site_fract_x
  _atom_site_fract_y
  _atom_site_fract_z
  _atom_site_occupancy
  Cd  Cd1       1.0  0.5467343583177283  0.5000566191352291  0.49999189719038367  1.0000
  Cd  Cd2       1.0  0.3351911750406201  0.9998926636097067  0.9999982942521939  1.0000
  H   H1        1.0  0.3823389521292172  0.6827185066096818  0.7625300831799606  1.0000
  H   H2        1.0  0.8276773414306078  0.3173386679264141  0.23748432346047815  1.0000
  H   H3        1.0  0.1502396322919993  0.6173253251092987  0.12356520610804715  1.0000
  H   H4        1.0  0.891402693875442  0.38273952333429406  0.8764128592364032  1.0000
  H   H5        1.0  0.11394879988370117  0.4401646478245738  0.0560600042898045  1.0000
  H   H6        1.0  0.610347030022702  0.559769036148232  0.9438471420682716  1.0000
  H   H7        1.0  0.383793888021522  0.19502021211175696  0.6138513736548745  1.0000
  H   H8        1.0  0.19250445972510732  0.804920796014706  0.3861196330437835  1.0000
  H   H9        1.0  0.20578283668817213  0.2706103358857988  0.49785058727881903  1.0000
  H   H10       1.0  0.9741262112362179  0.729366976779609  0.5022089133421873  1.0000
  H   H11       1.0  0.13481473815583908  0.42964554942977884  0.5577016874006588  1.0000
  H   H12       1.0  0.1220105224050912  0.5703245366708882  0.4423926366847938  1.0000
  H   H13       1.0  0.09116779841340161  0.31626147391467896  0.6520138739799678  1.0000
  H   H14       1.0  0.05920567419398991  0.683672426036722  0.34807901215622655  1.0000
  H   H15       1.0  0.04668817944121881  0.1819528809009938  0.2664903664107356  1.0000
  H   H16       1.0  0.4952461898935854  0.8180132193169739  0.7335840859627112  1.0000
  H   H17       1.0  0.007715571694156215  0.12337400701297696  0.6241295773120541  1.0000
  H   H18       1.0  0.7552585702952259  0.8765960503668425  0.37593456618046883  1.0000
  H   H19       1.0  0.2939906376208086  0.9511333420949127  0.5503389953454487  1.0000
  H   H20       1.0  0.795224730085863  0.048982791044451815  0.4497039376571692  1.0000
  H   H21       1.0  0.719717329447612  0.900342612238738  0.04157517796627975  1.0000
  H   H22       1.0  0.6621120976798025  0.09957682499037192  0.958278888796741  1.0000
  H   H23       1.0  0.9037879882995553  0.6723922256213655  0.02391801911888791  1.0000
  H   H24       1.0  0.6005407453655707  0.3275456710463017  0.9759012764233577  1.0000
  H   H25       1.0  0.7476760112471441  0.6516325176762975  0.14909399316407965  1.0000
  H   H26       1.0  0.5487320673545354  0.34831196784124785  0.8507849164804285  1.0000
  H   H27       1.0  0.8348074621392672  0.7513387131624539  0.16559749400793317  1.0000
  H   H28       1.0  0.7521207243638629  0.24859786050423338  0.8342128834419144  1.0000
  H   H29       1.0  0.49110245018961524  0.2469864472902542  0.4195437840217551  1.0000
  H   H30       1.0  0.1576007194358766  0.7530832601111896  0.5804011007706934  1.0000
  H   H31       1.0  0.6385661777502135  0.7123542501032105  0.9926525274021999  1.0000
  H   H32       1.0  0.3438982179484923  0.2875557923515757  0.007322321950937292  1.0000
  H   H33       1.0  0.19342328449805993  0.2992413755396726  0.8364634520927013  1.0000
  H   H34       1.0  0.3290817089063084  0.7007137345077014  0.1634926521565987  1.0000
  H   H35       1.0  0.5690228521856754  0.8176595240296151  0.3290250577620171  1.0000
  H   H36       1.0  0.7155548264303135  0.18241926648376247  0.6710364741232695  1.0000
  C   C1        1.0  0.3135832726509521  0.5265457752745986  0.7869641880522665  1.0000
  C   C2        1.0  0.6271558273352514  0.47348639429956296  0.2130092893161475  1.0000
  C   C3        1.0  0.3258811891192649  0.6294813230015778  0.825626076503987  1.0000
  C   C4        1.0  0.7811074119813313  0.3705933992014748  0.17437021511247516  1.0000
  C   C5        1.0  0.2645814100056968  0.6613785118928844  0.9481472358131101  1.0000
  C   C6        1.0  0.8743390732522305  0.3386869949124076  0.05186396953542513  1.0000
  C   C7        1.0  0.19637678756777177  0.5891555621492088  0.02921873016484259  1.0000
  C   C8        1.0  0.8149897810419446  0.41091552130786374  0.9707678838754392  1.0000
  C   C9        1.0  0.17855388966501803  0.4884778324621736  0.9920071837819863  1.0000
  C   C10       1.0  0.65918730811498  0.5115142362261125  0.007949633188481192  1.0000
  C   C11       1.0  0.23646644266034408  0.45917054553165565  0.8696514922278881  1.0000
  C   C12       1.0  0.5653470409506696  0.5408507613238385  0.13029950720825673  1.0000
  C   C13       1.0  0.3198144794468122  0.3776325793810501  0.6868277067317266  1.0000
  C   C14       1.0  0.3842099749167502  0.6223256563447351  0.3131170091147979  1.0000
  C   C15       1.0  0.34403370693944174  0.29229390310182174  0.5893312360719776  1.0000
  C   C16       1.0  0.2255600213744344  0.7076399278443404  0.4106233312046683  1.0000
  C   C17       1.0  0.1840373883875941  0.3302210163760718  0.5730801952545832  1.0000
  C   C18       1.0  0.08720731833528818  0.6697295616598211  0.4269679570766627  1.0000
  C   C19       1.0  0.26637321577801737  0.7765628827328896  0.9934443757236622  1.0000
  C   C20       1.0  0.03664605488784635  0.22349377967950804  0.006616648646691207  1.0000
  C   C21       1.0  0.2578053679784773  0.033940227919678996  0.2861537629270074  1.0000
  C   C22       1.0  0.5779259155983781  0.9660516698116907  0.7139068622093205  1.0000
  C   C23       1.0  0.0992294085938212  0.131518778437993  0.3277324143146815  1.0000
  C   C24       1.0  0.5585477548865541  0.8684792947923581  0.6723274358707273  1.0000
  C   C25       1.0  0.011557118745123805  0.16317809012452497  0.45030481084803853  1.0000
  C   C26       1.0  0.6250836178564542  0.8368210418870986  0.5497592970076397  1.0000
  C   C27       1.0  0.08047364004810481  0.09548299557994258  0.5292757825181981  1.0000
  C   C28       1.0  0.705210450610416  0.9045501822803319  0.47078376194832566  1.0000
  C   C29       1.0  0.23980744136611074  0.9997445589920702  0.4891425750927851  1.0000
  C   C30       1.0  0.7285568051032741  0.0003332416102210999  0.5109142975844064  1.0000
  C   C31       1.0  0.32844979164964616  0.9713236862246505  0.3661827383151036  1.0000
  C   C32       1.0  0.6658348171035159  0.0287594092445573  0.6338771001998397  1.0000
  C   C33       1.0  0.5089949714331893  0.8987106327461236  0.18125463558100563  1.0000
  C   C34       1.0  0.5890396080964991  0.10128882455595799  0.8187875262415147  1.0000
  C   C35       1.0  0.6694257736642796  0.8304847101499464  0.0763519670348103  1.0000
  C   C36       1.0  0.5766049367658398  0.16947443009265578  0.9235954981675933  1.0000
  C   C37       1.0  0.7955402870606891  0.7199457488013224  0.1059548156323232  1.0000
  C   C38       1.0  0.6218177601317408  0.2799813503273541  0.8938951715197092  1.0000
  C   C39       1.0  0.8456035656435859  0.2745644394413986  0.4979798737780499  1.0000
  C   C40       1.0  0.6181747717250445  0.7254514371453454  0.5020737055136025  1.0000
  N   N1        1.0  0.3647720917575867  0.47207507360761986  0.6729297992761119  1.0000
  N   N2        1.0  0.5097504721723852  0.5279462911990791  0.32703690654423667  1.0000
  N   N3        1.0  0.24169836720255947  0.36674716599006263  0.8028347907242263  1.0000
  N   N4        1.0  0.4112622736204514  0.6332372930735916  0.19710455066176288  1.0000
  N   N5        1.0  0.37409579065099063  0.9846217833976495  0.1712380428174569  1.0000
  N   N6        1.0  0.5300966924853158  0.0153487128694678  0.8288154949283637  1.0000
  N   N7        1.0  0.4874470503843469  0.8870590460295492  0.2964559770406652  1.0000
  N   N8        1.0  0.6708481417263458  0.1130195887807517  0.7035802659591752  1.0000
  O   O1        1.0  0.47285917905905006  0.30030256010603307  0.4853976783043378  1.0000
  O   O2        1.0  0.2584749819602123  0.6996627776221516  0.5145547521746822  1.0000
  O   O3        1.0  0.3105134578806954  0.8468629301028232  0.9167377425198213  1.0000
  O   O4        1.0  0.07427671263322108  0.1531763539899345  0.0833268330599637  1.0000
  O   O5        1.0  0.22491722877654763  0.8000109800291071  0.10374062714212329  1.0000
  O   O6        1.0  0.12899477009213461  0.2000317841454304  0.8963136597319378  1.0000
  O   O7        1.0  0.6389321703679369  0.7956446148610895  0.9816135288916926  1.0000
  O   O8        1.0  0.4166270438446703  0.20437854257684762  0.018498819090183374  1.0000
  O   O9        1.0  0.8041627198055753  0.3452222809808347  0.42233610447640046  1.0000
  O   O10       1.0  0.5718685603007215  0.6547300735357027  0.5776893398674261  1.0000
  O   O11       1.0  0.7561730551387243  0.2946025245123138  0.6083461762926134  1.0000
  O   O12       1.0  0.6590741250517028  0.7054441253245612  0.3917198186007553  1.0000
