data_image0
_chemical_formula_structural       Zn4H36C72Br2N16Cl2
_chemical_formula_sum              "Zn4 H36 C72 Br2 N16 Cl2"
_cell_length_a       20.660618307356707
_cell_length_b       20.5587156495348
_cell_length_c       19.989741455412183
_cell_angle_alpha    69.84010401983153
_cell_angle_beta     74.5787288796527
_cell_angle_gamma    111.68507982017084

_space_group_name_H-M_alt    "P 1"
_space_group_IT_number       1

loop_
  _space_group_symop_operation_xyz
  'x, y, z'

loop_
  _atom_site_type_symbol
  _atom_site_label
  _atom_site_symmetry_multiplicity
  _atom_site_fract_x
  _atom_site_fract_y
  _atom_site_fract_z
  _atom_site_occupancy
  Zn  Zn1       1.0  0.11278419031226854  0.6005370848389973  0.00648430247645144  1.0000
  Zn  Zn2       1.0  0.891187228104215  0.4019686184982234  0.017543308974566612  1.0000
  Zn  Zn3       1.0  0.9902002303976759  0.5988202679767698  0.9208802605203773  1.0000
  Zn  Zn4       1.0  0.008899837743854264  0.39156647798062494  0.10984903024944263  1.0000
  H   H1        1.0  0.13508489436107848  0.776209099836116  0.025411745760912742  1.0000
  H   H2        1.0  0.4729363329698872  0.09497128949459477  0.40380858582184215  1.0000
  H   H3        1.0  0.47298813228400854  0.41839416082815717  0.8593915127992772  1.0000
  H   H4        1.0  0.5661263982602733  0.5700793999609675  0.9899587613186751  1.0000
  H   H5        1.0  0.6196265439384732  0.5600651873259324  0.7877454230064771  1.0000
  H   H6        1.0  0.4180075192751432  0.42726346093754597  0.06241424973336502  1.0000
  H   H7        1.0  0.4936653844783054  0.35675566034496614  0.997577439000814  1.0000
  H   H8        1.0  0.5449581371486119  0.6311574433469932  0.8512706760755007  1.0000
  H   H9        1.0  0.8394523146872004  0.8683468780187625  0.13468694807487933  1.0000
  H   H10       1.0  0.09827249679769069  0.1034410626785416  0.9352561199698215  1.0000
  H   H11       1.0  0.7347783303332704  0.3037253810124911  0.17805203681093917  1.0000
  H   H12       1.0  0.918259308936598  0.3046578062247179  0.9350660876580362  1.0000
  H   H13       1.0  0.27356157093537076  0.7219152036458428  0.8485802117300026  1.0000
  H   H14       1.0  0.872226482103052  0.9881093972147998  0.9858182460197893  1.0000
  H   H15       1.0  0.06479550408084114  0.9826165394855265  0.08479329748324464  1.0000
  H   H16       1.0  0.8490959382531217  0.6313620705892051  0.927686665888231  1.0000
  H   H17       1.0  0.15895306989296637  0.3624493455222649  0.0933262541184803  1.0000
  H   H18       1.0  0.8925500317831095  0.36531663792683844  0.2725924330711818  1.0000
  H   H19       1.0  0.9851545820933723  0.6297288294338802  0.7452119095485441  1.0000
  H   H20       1.0  0.7223072995461023  0.3711596790795753  0.060408871471451984  1.0000
  H   H21       1.0  0.28151616239475885  0.6189003788317536  0.9332223000770413  1.0000
  H   H22       1.0  0.02650948226591506  0.6258943572352252  0.14674112487142574  1.0000
  H   H23       1.0  0.7499956496001019  0.43990577118702856  0.6134360482527369  1.0000
  H   H24       1.0  0.8439982648749407  0.3695713627697758  0.8730771746447341  1.0000
  H   H25       1.0  0.8603467865461738  0.21696296997925674  0.29048893583426116  1.0000
  H   H26       1.0  0.11882513239326885  0.7145345671170702  0.7383567417495485  1.0000
  H   H27       1.0  0.9261312439094239  0.68797331111891  0.9942079660879414  1.0000
  H   H28       1.0  0.07009270356450509  0.2952433417604681  0.046749443146453004  1.0000
  H   H29       1.0  0.8301808183957746  0.577091509544303  0.4592317643426538  1.0000
  H   H30       1.0  0.9406850442115342  0.42097981825157416  0.5763968181281384  1.0000
  H   H31       1.0  0.021095122538092318  0.5584475782810472  0.4216325797888061  1.0000
  H   H32       1.0  0.9615621437602825  0.6384242202164218  0.48755868882686554  1.0000
  H   H33       1.0  0.8090814430908039  0.3598235123385152  0.54786449275916  1.0000
  H   H34       1.0  0.3991896789651007  0.07409149987371683  0.5573450369830083  1.0000
  H   H35       1.0  0.5730237844436772  0.9730019472342091  0.4855049145066914  1.0000
  H   H36       1.0  0.49851923028486317  0.9519812784409964  0.6395828749248692  1.0000
  C   C1        1.0  0.08813943196734898  0.7469110394675555  0.012450959370376307  1.0000
  C   C2        1.0  0.9610320537036472  0.5321592943659113  0.4652318906896014  1.0000
  C   C3        1.0  0.8548722183372631  0.542470221168202  0.48555638588534544  1.0000
  C   C4        1.0  0.9163133181173677  0.45558473860710086  0.5493586594902949  1.0000
  C   C5        1.0  0.9153700823459516  0.49572862046696314  0.3133464469960142  1.0000
  C   C6        1.0  0.8965594269568625  0.5021209415996923  0.7134781069713722  1.0000
  C   C7        1.0  0.8431814905427969  0.42168641243598864  0.5350320626230454  1.0000
  C   C8        1.0  0.9279225920743743  0.5765611432622607  0.5001835247449404  1.0000
  C   C9        1.0  0.8881616798836944  0.49795797089193883  0.4485253326786276  1.0000
  C   C10       1.0  0.8836310328670648  0.5002894028509742  0.5865289864579993  1.0000
  C   C11       1.0  0.8970070900858431  0.4966230116050882  0.37624435368287085  1.0000
  C   C12       1.0  0.9551860510750103  0.31317641212297803  0.9647561029903923  1.0000
  C   C13       1.0  0.8864731775797167  0.5016640614808453  0.6560990765316743  1.0000
  C   C14       1.0  0.4374653754920389  0.05124075308385304  0.5411494461501076  1.0000
  C   C15       1.0  0.5337879446944171  0.994594519581803  0.5023789391864142  1.0000
  C   C16       1.0  0.7770338787565975  0.2902611602455921  0.19232658735247524  1.0000
  C   C17       1.0  0.22466997225834692  0.707350543489504  0.8343680273822474  1.0000
  C   C18       1.0  0.5157268131986327  0.07376041980164423  0.5476924671145652  1.0000
  C   C19       1.0  0.4563659150970309  0.9730217250408089  0.49479549641762327  1.0000
  C   C20       1.0  0.6972001599567008  0.1893569475236703  0.33851212380510276  1.0000
  C   C21       1.0  0.2857643575809094  0.8237440165662876  0.6962888015185624  1.0000
  C   C22       1.0  0.4783676473706678  0.06300998802728233  0.4564677055958199  1.0000
  C   C23       1.0  0.76703648031598  0.23829728896220811  0.266872551403651  1.0000
  C   C24       1.0  0.4934780472059117  0.9836207296285338  0.5865101765563451  1.0000
  C   C25       1.0  0.5586382415979756  0.08664433550752201  0.46109707118651494  1.0000
  C   C26       1.0  0.41332528846342587  0.9591009891839664  0.5817418807571003  1.0000
  C   C27       1.0  0.6335648282951495  0.14688770189567174  0.3971815844623308  1.0000
  C   C28       1.0  0.34217590972706785  0.8892269247054118  0.6435168760668332  1.0000
  C   C29       1.0  0.574509488352561  0.5307141167288523  0.8489237460034643  1.0000
  C   C30       1.0  0.46410058298905454  0.45689558787371  0.0018080117563669075  1.0000
  C   C31       1.0  0.49343055762401644  0.4519243730785691  0.8888683203141308  1.0000
  C   C32       1.0  0.5438840864172363  0.5362365294859402  0.9614841538330694  1.0000
  C   C33       1.0  0.3188657072304937  0.48921081677390543  0.9632937014227492  1.0000
  C   C34       1.0  0.22338640160435824  0.7502016194689535  0.7629691044338144  1.0000
  C   C35       1.0  0.7005476302824929  0.49886403059942114  0.9611736062197307  1.0000
  C   C36       1.0  0.5339812933484678  0.5702559497383249  0.8844015442290784  1.0000
  C   C37       1.0  0.5040120170135938  0.41758330792891485  0.9657244416358067  1.0000
  C   C38       1.0  0.4513680009753501  0.4912873465670417  0.9253910053492617  1.0000
  C   C39       1.0  0.5860262879979956  0.496516950230337  0.926576104574778  1.0000
  C   C40       1.0  0.8290008105772911  0.5680518998212138  0.963786377680719  1.0000
  C   C41       1.0  0.1768450649469884  0.4255100202013439  0.0602471261468196  1.0000
  C   C42       1.0  0.379591544592792  0.48933446947805265  0.9368891452807729  1.0000
  C   C43       1.0  0.6514321615139805  0.49824559714834044  0.93783427852086  1.0000
  C   C44       1.0  0.9490034117293362  0.9873148942471776  0.10331085954327074  1.0000
  C   C45       1.0  0.7591685212981287  0.500382192531575  0.984818546302172  1.0000
  C   C46       1.0  0.988803515632796  0.9846074026569768  0.9660512277384469  1.0000
  C   C47       1.0  0.8970080492794068  0.9204019556446212  0.0898946464743488  1.0000
  C   C48       1.0  0.041111960643540606  0.05072498903463453  0.9797369252521547  1.0000
  C   C49       1.0  0.00037011936611002963  0.8046531902306172  0.04097758974818088  1.0000
  C   C50       1.0  0.980831605275192  0.196250436016385  0.9928231873835782  1.0000
  C   C51       1.0  0.022698666188347247  0.984681091972675  0.06193590152905411  1.0000
  C   C52       1.0  0.9150975482517082  0.9870034774228954  0.007800298679526875  1.0000
  C   C53       1.0  0.971142093956992  0.9159440398810618  0.0485689047983864  1.0000
  C   C54       1.0  0.9675550169795529  0.05612976115290986  0.02036130110728607  1.0000
  C   C55       1.0  0.9805135659140591  0.8497632399913471  0.05430073118480995  1.0000
  C   C56       1.0  0.25007971805399615  0.48990287674077854  0.9970648321398983  1.0000
  C   C57       1.0  0.9709971224370477  0.13007832325715182  0.005179473071258614  1.0000
  C   C58       1.0  0.932050845155061  0.42889344321424266  0.22984477726868838  1.0000
  C   C59       1.0  0.9532394832673035  0.5657807240802273  0.7880337699652242  1.0000
  C   C60       1.0  0.7641548276530374  0.4350888763308519  0.031905657214664825  1.0000
  C   C61       1.0  0.23934334467967483  0.5565365494707921  0.9784860026220201  1.0000
  C   C62       1.0  0.0008718742222768902  0.5623534736165042  0.1653634269194981  1.0000
  C   C63       1.0  0.880784103183494  0.4327123400696637  0.8535306144603254  1.0000
  C   C64       1.0  0.84115253887709  0.2458613785063336  0.24994950734303947  1.0000
  C   C65       1.0  0.14569922843584499  0.7046608560522998  0.7778449974636172  1.0000
  C   C66       1.0  0.981239447699501  0.701728300802266  0.9964606433673069  1.0000
  C   C67       1.0  0.9445826568435721  0.4955988773918919  0.24116330963483507  1.0000
  C   C68       1.0  0.033508078173824174  0.30915457815414277  0.021231216130779322  1.0000
  C   C69       1.0  0.02140963902542831  0.754033025185052  0.020400967218812193  1.0000
  C   C70       1.0  0.9907377719370061  0.26900026235132657  0.9895530252352884  1.0000
  C   C71       1.0  0.9089794478109924  0.5006409180673046  0.7797415132946098  1.0000
  C   C72       1.0  0.8103171045325083  0.46621136552092696  0.5703721993444971  1.0000
  Br  Br1       1.0  0.9198816721176898  0.989715288875644  0.20146342383618757  1.0000
  Br  Br2       1.0  0.016698928573965818  0.9810536706959642  0.8686568143009482  1.0000
  N   N1        1.0  0.08775655835668066  0.6955074677172777  0.9851740570244018  1.0000
  N   N2        1.0  0.16631526884912512  0.5336960672873873  0.026293853418934574  1.0000
  N   N3        1.0  0.02098474665311299  0.536664188386034  0.11399297921118291  1.0000
  N   N4        1.0  0.9058256544170931  0.4561536721121727  0.9012221968325986  1.0000
  N   N5        1.0  0.8905241570425418  0.29752439111820195  0.1719463748618394  1.0000
  N   N6        1.0  0.10455575215810602  0.6413551112562104  0.8526925024490523  1.0000
  N   N7        1.0  0.021395341849064605  0.6677312690873978  0.975167725315444  1.0000
  N   N8        1.0  0.02188228226177102  0.37029672236753447  0.01783641438522918  1.0000
  N   N9        1.0  0.973743293215776  0.37286303580011565  0.98304964708344  1.0000
  N   N10       1.0  0.8501291329687959  0.32457559493862226  0.13634873447093526  1.0000
  N   N11       1.0  0.15330233126322665  0.6429495723711014  0.8873894803560984  1.0000
  N   N12       1.0  0.8724355289179186  0.5444709402937917  0.9941334869918492  1.0000
  N   N13       1.0  0.12704611241696276  0.4516855094452553  0.0774419066367855  1.0000
  N   N14       1.0  0.9786994977712383  0.4547149701273838  0.15360432163454615  1.0000
  N   N15       1.0  0.9508334334199731  0.5383426616270416  0.860781777139486  1.0000
  N   N16       1.0  0.8323138094713729  0.4618954996446477  0.036552763027514965  1.0000
  Cl  Cl1       1.0  0.553890559640429  0.13899295913548565  0.5820512650419046  1.0000
  Cl  Cl2       1.0  0.4172372653776362  0.907863807275966  0.4609200862733048  1.0000
