data_image0
_chemical_formula_structural       Cu4H40C16N40
_chemical_formula_sum              "Cu4 H40 C16 N40"
_cell_length_a       6.910749874808378
_cell_length_b       9.776634281997248
_cell_length_c       13.74520725642759
_cell_angle_alpha    89.99724431369971
_cell_angle_beta     102.93514182298965
_cell_angle_gamma    90.00012438387095

_space_group_name_H-M_alt    "P 1"
_space_group_IT_number       1

loop_
  _space_group_symop_operation_xyz
  'x, y, z'

loop_
  _atom_site_type_symbol
  _atom_site_label
  _atom_site_symmetry_multiplicity
  _atom_site_fract_x
  _atom_site_fract_y
  _atom_site_fract_z
  _atom_site_occupancy
  Cu  Cu1       1.0  0.5025373680447843  0.18105912086132747  0.3810362832664822  1.0000
  Cu  Cu2       1.0  0.9972998066743205  0.6810111638983612  0.1189104878601199  1.0000
  Cu  Cu3       1.0  0.4973812178352333  0.8189823859640479  0.6189651673455501  1.0000
  Cu  Cu4       1.0  0.0027677659998559994  0.31896488117961747  0.8810800161299213  1.0000
  H   H1        1.0  0.6569341117514823  0.3832189093419273  0.4994777700798351  1.0000
  H   H2        1.0  0.843000347807582  0.883272760677059  0.0005373988592439364  1.0000
  H   H3        1.0  0.3429932748689311  0.6167960032412195  0.5005305308598551  1.0000
  H   H4        1.0  0.15710391161374557  0.11673499175780218  0.9994806776069751  1.0000
  H   H5        1.0  0.8107453815926107  0.25302323404834937  0.5191257317792122  1.0000
  H   H6        1.0  0.6890505492849144  0.7531758169742558  0.9808146638326177  1.0000
  H   H7        1.0  0.18917614687553913  0.7469978157809577  0.48087751849254795  1.0000
  H   H8        1.0  0.3109080979645285  0.24691478901228692  0.0191121682905546  1.0000
  H   H9        1.0  0.9595322458021941  0.4205195048939814  0.43036867923723315  1.0000
  H   H10       1.0  0.5403927659388119  0.9205919144666482  0.06964845716471052  1.0000
  H   H11       1.0  0.0403672545153881  0.5794851798940854  0.5696188986864428  1.0000
  H   H12       1.0  0.4596566960062845  0.079414815544574  0.9303559341202289  1.0000
  H   H13       1.0  0.7284133690786165  0.43038460669000517  0.341830680057086  1.0000
  H   H14       1.0  0.7715403060421482  0.9303920680019785  0.15815818348754362  1.0000
  H   H15       1.0  0.2714978206454576  0.5696221234138718  0.6581684509200372  1.0000
  H   H16       1.0  0.22851819807046073  0.069565565570926  0.8418399907470473  1.0000
  H   H17       1.0  0.958567125429781  0.2743874114479893  0.2769710086854857  1.0000
  H   H18       1.0  0.5413910784875213  0.7744066400565969  0.22304343360987386  1.0000
  H   H19       1.0  0.041384055663151315  0.7256142041197506  0.7230378930467579  1.0000
  H   H20       1.0  0.4586056607927915  0.2255407663178701  0.7769155037309899  1.0000
  H   H21       1.0  0.9901061486329824  0.17395964358057367  0.3866885874315357  1.0000
  H   H22       1.0  0.5097508790495626  0.6740117176846495  0.1133160444019694  1.0000
  H   H23       1.0  0.009785445952807902  0.8260409489732652  0.6133242578476724  1.0000
  H   H24       1.0  0.49026671196394034  0.325967396995928  0.8866416936287392  1.0000
  H   H25       1.0  0.7401460958584141  0.05787127108672508  0.30104909275578967  1.0000
  H   H26       1.0  0.7597080288149913  0.557872931598915  0.19895267477791384  1.0000
  H   H27       1.0  0.2597633680293399  0.9421211387299593  0.6989629326065199  1.0000
  H   H28       1.0  0.24031568505736808  0.4421133406381727  0.8010763522464117  1.0000
  H   H29       1.0  0.6478356492765158  0.18706863800714757  0.2214043539794446  1.0000
  H   H30       1.0  0.8521546366816897  0.6870763543154721  0.27854556619844584  1.0000
  H   H31       1.0  0.3521205891031727  0.8129074074624754  0.7785723997259238  1.0000
  H   H32       1.0  0.14786128168049834  0.31295901661039943  0.721422160991871  1.0000
  H   H33       1.0  0.30227383449218354  0.3818148246813635  0.5152876262695187  1.0000
  H   H34       1.0  0.19773679670086614  0.8818321416188791  0.9847930355830172  1.0000
  H   H35       1.0  0.6975881578794303  0.6181888339895991  0.4847974222182216  1.0000
  H   H36       1.0  0.8024714574105689  0.1182022073042006  0.015152808147796314  1.0000
  H   H37       1.0  0.27017986789707044  0.8724870607990308  0.3520077325699517  1.0000
  H   H38       1.0  0.22966888511792402  0.3724556964790223  0.14799662338487  1.0000
  H   H39       1.0  0.72988608590925  0.12751864660178566  0.6479898571075751  1.0000
  H   H40       1.0  0.7704292344147918  0.6275960380289051  0.8520316474785831  1.0000
  C   C1        1.0  0.8282769644630152  0.3616650397520259  0.392963143566412  1.0000
  C   C2        1.0  0.6716581896370286  0.8617044288374843  0.10702957190132874  1.0000
  C   C3        1.0  0.17164162158708515  0.6383488502072154  0.6070383075439736  1.0000
  C   C4        1.0  0.3283721732714326  0.13827673042806046  0.892961672480233  1.0000
  C   C5        1.0  0.8858049019429545  0.24069384159554372  0.3361698926354109  1.0000
  C   C6        1.0  0.6141137389631339  0.7407303995620963  0.1638352687046094  1.0000
  C   C7        1.0  0.11412093302947572  0.7593190251777314  0.6638418646239259  1.0000
  C   C8        1.0  0.3858915997003295  0.2592364403173946  0.8361414079533843  1.0000
  C   C9        1.0  0.2773786803480861  0.2757307224652479  0.5316329840822576  1.0000
  C   C10       1.0  0.22259266620906712  0.7757645029149886  0.9683936465429639  1.0000
  C   C11       1.0  0.7225198683526344  0.724252480819949  0.4684061393773007  1.0000
  C   C12       1.0  0.7775585820253852  0.2242524567323301  0.03157754199681048  1.0000
  C   C13       1.0  0.24796162607519528  0.9352992166358974  0.2856847955960333  1.0000
  C   C14       1.0  0.25192970253435487  0.43527675648086017  0.2143063576191722  1.0000
  C   C15       1.0  0.7520805735678522  0.0647044451495233  0.7143100156017893  1.0000
  C   C16       1.0  0.7481577432699353  0.5647381550650008  0.7857359440557941  1.0000
  N   N1        1.0  0.7163328768189459  0.3066815171527465  0.4639893340325045  1.0000
  N   N2        1.0  0.7835260081509078  0.8067247511188428  0.03598254178194787  1.0000
  N   N3        1.0  0.28360202674025464  0.6933456697380291  0.5360147530561079  1.0000
  N   N4        1.0  0.21648989710243433  0.19326254597881132  0.9639859122638725  1.0000
  N   N5        1.0  0.7051506101310141  0.16024001026251966  0.29512774553930404  1.0000
  N   N6        1.0  0.794750539532835  0.6602249538086795  0.20483377751524756  1.0000
  N   N7        1.0  0.29476068680089906  0.8397718342694203  0.7048655774415095  1.0000
  N   N8        1.0  0.20527870068499965  0.33975416042133577  0.7951376915698346  1.0000
  N   N9        1.0  0.3502040203705335  0.1707073209938343  0.4880812465725128  1.0000
  N   N10       1.0  0.1497513702786293  0.6707141538974425  0.011930205181492695  1.0000
  N   N11       1.0  0.6497438293601476  0.82931986510269  0.511946909059823  1.0000
  N   N12       1.0  0.8504672059251064  0.3293242835669971  0.9881012423422463  1.0000
  N   N13       1.0  0.29011281720634946  0.05567763698219609  0.5273757010265498  1.0000
  N   N14       1.0  0.20981182130754664  0.5557049832354083  0.9725956140779601  1.0000
  N   N15       1.0  0.7098122973489893  0.944312728543622  0.47259450166533407  1.0000
  N   N16       1.0  0.7903563041767826  0.44431811174058566  0.027428477398807168  1.0000
  N   N17       1.0  0.1848245274682584  0.0919752352247087  0.591967301352362  1.0000
  N   N18       1.0  0.3150656109008168  0.5920428117580625  0.9079936270043873  1.0000
  N   N19       1.0  0.8150191335718519  0.907951714426119  0.4079824615129368  1.0000
  N   N20       1.0  0.6849772054440425  0.4079485769777591  0.0919677889667483  1.0000
  N   N21       1.0  0.17265714695194845  0.2302496784920506  0.5958564884390327  1.0000
  N   N22       1.0  0.32724385901702396  0.730318550288352  0.9041438457476827  1.0000
  N   N23       1.0  0.827160390558035  0.7696762467980702  0.40413823747906  1.0000
  N   N24       1.0  0.6727758198222632  0.2696656797107265  0.09578139638785642  1.0000
  N   N25       1.0  0.316070395196654  0.06368344251404778  0.28277867694541914  1.0000
  N   N26       1.0  0.1838467783006408  0.5636694755986369  0.2172021834438169  1.0000
  N   N27       1.0  0.6838838488199956  0.9363478357732049  0.7172254896501116  1.0000
  N   N28       1.0  0.8162596594521363  0.43634645817386536  0.7828590734815394  1.0000
  N   N29       1.0  0.25860496143769757  0.10530112604228489  0.1869822966967334  1.0000
  N   N30       1.0  0.24136835680634053  0.6052992553280632  0.3129905926759733  1.0000
  N   N31       1.0  0.7413552479453644  0.8947281065799826  0.8130211125888634  1.0000
  N   N32       1.0  0.758694691638013  0.3946747412589032  0.6870837786448547  1.0000
  N   N33       1.0  0.1589890371767808  0.004969709677396799  0.134743834401192  1.0000
  N   N34       1.0  0.3409705499317965  0.504965499320022  0.3652374733153181  1.0000
  N   N35       1.0  0.841051664431653  0.9950329292418302  0.8652515291458086  1.0000
  N   N36       1.0  0.6590435995419244  0.49497883503808265  0.6348260859342147  1.0000
  N   N37       1.0  0.15030220338623937  0.8960350988280582  0.194666940698518  1.0000
  N   N38       1.0  0.34960004153956703  0.3960118040407322  0.3053246672192387  1.0000
  N   N39       1.0  0.8497847096697911  0.10395731180913262  0.8053236425769583  1.0000
  N   N40       1.0  0.6504249023887428  0.603956056487597  0.6947183275666832  1.0000
