data_image0
_chemical_formula_structural       Cu12H24C63N24
_chemical_formula_sum              "Cu12 H24 C63 N24"
_cell_length_a       20.886794926097345
_cell_length_b       21.05348995437497
_cell_length_c       21.273245113277103
_cell_angle_alpha    89.72495527346145
_cell_angle_beta     90.05536756708837
_cell_angle_gamma    89.78775341146883

_space_group_name_H-M_alt    "P 1"
_space_group_IT_number       1

loop_
  _space_group_symop_operation_xyz
  'x, y, z'

loop_
  _atom_site_type_symbol
  _atom_site_label
  _atom_site_symmetry_multiplicity
  _atom_site_fract_x
  _atom_site_fract_y
  _atom_site_fract_z
  _atom_site_occupancy
  Cu  Cu1       1.0  0.7569863695872102  0.7561068869154398  0.8575111001143303  1.0000
  Cu  Cu2       1.0  0.8667279593917598  0.7568453567057176  0.7547313997874385  1.0000
  Cu  Cu3       1.0  0.759404236657332  0.8660513196386715  0.7554680235588267  1.0000
  Cu  Cu4       1.0  0.7575371303215022  0.2422718490619928  0.13838203386027464  1.0000
  Cu  Cu5       1.0  0.8644369890049575  0.2443378992622414  0.24458078089119797  1.0000
  Cu  Cu6       1.0  0.759060402760042  0.13495769872684346  0.24367639505014446  1.0000
  Cu  Cu7       1.0  0.2406363598877093  0.7595414720425708  0.13524936863720433  1.0000
  Cu  Cu8       1.0  0.1307169622386724  0.7630535944800841  0.23779107313244208  1.0000
  Cu  Cu9       1.0  0.24498549661100805  0.8633280586114509  0.2430939540957696  1.0000
  Cu  Cu10      1.0  0.23978737812795003  0.23934276117664405  0.866611917496805  1.0000
  Cu  Cu11      1.0  0.1310013642583385  0.23864042686238213  0.7625847248858195  1.0000
  Cu  Cu12      1.0  0.24448368871490087  0.13639761079772947  0.7583674087590779  1.0000
  H   H1        1.0  0.8035892212080995  0.6429113586245379  0.9448747063428303  1.0000
  H   H2        1.0  0.95531988820742  0.643870173337774  0.8061218623432115  1.0000
  H   H3        1.0  0.6479971526323425  0.9559084425313246  0.8074210172538729  1.0000
  H   H4        1.0  0.6443707226310663  0.803802477927242  0.945279499888301  1.0000
  H   H5        1.0  0.95532146970406  0.806601127045646  0.6440762162047025  1.0000
  H   H6        1.0  0.8101607287832948  0.9541401097527213  0.6453679561414847  1.0000
  H   H7        1.0  0.8051862890314326  0.354615924334837  0.05059032214543182  1.0000
  H   H8        1.0  0.9510388458252381  0.3584309452012562  0.19544131964433126  1.0000
  H   H9        1.0  0.6477219903359667  0.0451613681542256  0.1936852049558838  1.0000
  H   H10       1.0  0.64644553242303  0.1918780135565186  0.05017200685682611  1.0000
  H   H11       1.0  0.9531613898599076  0.19611734602039382  0.3565496761085002  1.0000
  H   H12       1.0  0.8099656675416397  0.04773006771632281  0.35495580747714695  1.0000
  H   H13       1.0  0.1929561039223557  0.6458608758824909  0.04979673081449222  1.0000
  H   H14       1.0  0.0401060158940751  0.6526139149986818  0.18724048331339568  1.0000
  H   H15       1.0  0.36128434338900206  0.9484172326334389  0.19535309965657188  1.0000
  H   H16       1.0  0.35277435351262915  0.8080882675471349  0.04730889475297322  1.0000
  H   H17       1.0  0.04242217547020031  0.815360272433317  0.3474384556788622  1.0000
  H   H18       1.0  0.2005260693108895  0.9475034312406335  0.35861110857649703  1.0000
  H   H19       1.0  0.19224024913912532  0.35282482019107414  0.9523911405806306  1.0000
  H   H20       1.0  0.041223085115475996  0.3506550316231839  0.8126497040652156  1.0000
  H   H21       1.0  0.3606358243180381  0.04994709169500309  0.8061429884186285  1.0000
  H   H22       1.0  0.35071234831175957  0.1885267705372797  0.9557490193269162  1.0000
  H   H23       1.0  0.0428942077898427  0.1874104367137903  0.6524525288124894  1.0000
  H   H24       1.0  0.2002579011132326  0.053175075107297694  0.6423601636011969  1.0000
  C   C1        1.0  0.8348713494760034  0.651264813946483  0.9050631328977164  1.0000
  C   C2        1.0  0.8939670238055868  0.6225182999146811  0.890693312827651  1.0000
  C   C3        1.0  0.9125933989494897  0.6518143593021151  0.8339792537195196  1.0000
  C   C4        1.0  0.6552142782351424  0.9130560533766713  0.8350571894157286  1.0000
  C   C5        1.0  0.6254649605856457  0.8944768051560743  0.8915692255006252  1.0000
  C   C6        1.0  0.6533227612152218  0.8351281650672107  0.905679941854793  1.0000
  C   C7        1.0  0.9140822061356886  0.8368231504075253  0.6524089517296334  1.0000
  C   C8        1.0  0.8976293973163505  0.8950978997344237  0.6238131213699918  1.0000
  C   C9        1.0  0.8397368521505302  0.912391237207423  0.6530643460622232  1.0000
  C   C10       1.0  0.835050552286475  0.3474300745790159  0.09172700934976774  1.0000
  C   C11       1.0  0.8926582242130224  0.3776220774909405  0.10820298577110783  1.0000
  C   C12       1.0  0.9097475568881279  0.34931918060543404  0.16595309777088127  1.0000
  C   C13       1.0  0.6554899995828904  0.08681584254370729  0.16452850453806894  1.0000
  C   C14       1.0  0.626362773681592  0.10362488809612813  0.10707219329250256  1.0000
  C   C15       1.0  0.6548111200246254  0.16198419274385153  0.09101889902230913  1.0000
  C   C16       1.0  0.9123392992779529  0.1656296136531594  0.3480920421099257  1.0000
  C   C17       1.0  0.896545890608074  0.10735078547758552  0.3767963951257728  1.0000
  C   C18       1.0  0.8389982305183493  0.08963533165695031  0.347284927228877  1.0000
  C   C19       1.0  0.1613462287133274  0.6557093079738437  0.08899013688412083  1.0000
  C   C20       1.0  0.10214984352408153  0.6278247777745847  0.10416436608428374  1.0000
  C   C21       1.0  0.0830693800502402  0.6592249216160795  0.15940879930739277  1.0000
  C   C22       1.0  0.350929317565992  0.9084736458918315  0.16504564577964945  1.0000
  C   C23       1.0  0.3783021001485096  0.8927181750249603  0.10668095834280684  1.0000
  C   C24       1.0  0.3466170247242247  0.8366111283200726  0.08919228668013093  1.0000
  C   C25       1.0  0.08652624539931959  0.8418097290122972  0.3419549224720272  1.0000
  C   C26       1.0  0.107381897878561  0.8960820795625395  0.3744382466049176  1.0000
  C   C27       1.0  0.16749063133828912  0.9095036680330751  0.3477057274517677  1.0000
  C   C28       1.0  0.1610798912339888  0.34404290461350234  0.9126200184403789  1.0000
  C   C29       1.0  0.1023515370844592  0.373114893044125  0.8970331186581507  1.0000
  C   C30       1.0  0.0837254459403951  0.3429080134911118  0.8410199567973395  1.0000
  C   C31       1.0  0.349944431850929  0.08954978837747521  0.8368392417616238  1.0000
  C   C32       1.0  0.37689275548630263  0.10454205001669692  0.8955973434635428  1.0000
  C   C33       1.0  0.34488672769343515  0.16055187706041352  0.9134829274413223  1.0000
  C   C34       1.0  0.0868203180899982  0.1603893574906294  0.6582346381930437  1.0000
  C   C35       1.0  0.1074969236116345  0.1058113567350034  0.6259309031387448  1.0000
  C   C36       1.0  0.167398263301834  0.09161178227012103  0.6530512175093082  1.0000
  C   C37       1.0  0.0036684320479523  0.0011984566976437003  0.5002509549622263  1.0000
  C   C38       1.0  0.9985969727247692  0.5003741392157224  0.0009376382591312996  1.0000
  C   C39       1.0  0.5025907560728768  0.9984010235247001  0.0007351924986451982  1.0000
  C   C40       1.0  0.9281780799639494  0.5775692432692311  0.9267923367946128  1.0000
  C   C41       1.0  0.9584019141547059  0.5407061212282755  0.9595106451240841  1.0000
  C   C42       1.0  0.9270899686128615  0.42295108333291864  0.07315980480838392  1.0000
  C   C43       1.0  0.9578999139618105  0.4601676321446249  0.041686399522831215  1.0000
  C   C44       1.0  0.0684777092877695  0.5813131665385712  0.07027358819581053  1.0000
  C   C45       1.0  0.03866324827161801  0.5425090835680351  0.04006147187536161  1.0000
  C   C46       1.0  0.06867919181299699  0.4194965661180631  0.931326271682352  1.0000
  C   C47       1.0  0.03899560600404331  0.45808765086627545  0.962122431687668  1.0000
  C   C48       1.0  0.5806904241846027  0.9287020830384876  0.9275710926819588  1.0000
  C   C49       1.0  0.5437142945559401  0.9588445022905603  0.9599471070029185  1.0000
  C   C50       1.0  0.4227709215822131  0.0698339400653012  0.9302092631294417  1.0000
  C   C51       1.0  0.4606764907291064  0.0390317887529505  0.9612856932276517  1.0000
  C   C52       1.0  0.5813752437751631  0.06879740384068361  0.07211086991345893  1.0000
  C   C53       1.0  0.5440825491222157  0.0381249722978652  0.04076834613081812  1.0000
  C   C54       1.0  0.42404792616601833  0.927061596294337  0.07194944254867153  1.0000
  C   C55       1.0  0.46161443615257985  0.9577577613867448  0.04071398422791361  1.0000
  C   C56       1.0  0.9324816169635783  0.9297127791440543  0.5786210942027454  1.0000
  C   C57       1.0  0.963297719771731  0.9606547822117193  0.5410519190539989  1.0000
  C   C58       1.0  0.0740492269699189  0.9306225922870863  0.4206547573065792  1.0000
  C   C59       1.0  0.0439964754111557  0.9612102428926903  0.4589851682287789  1.0000
  C   C60       1.0  0.07412653344293571  0.07154042843625058  0.5796585084739763  1.0000
  C   C61       1.0  0.04405597738563221  0.041102867483068906  0.5413409265459352  1.0000
  C   C62       1.0  0.9317448626837715  0.07292505736158011  0.42215488245110333  1.0000
  C   C63       1.0  0.9628792614569265  0.041903223024249314  0.4596525261785659  1.0000
  N   N1        1.0  0.8681059688096369  0.6948697990200685  0.8164534581031619  1.0000
  N   N2        1.0  0.8199357616123706  0.6944815862291165  0.8605258387015131  1.0000
  N   N3        1.0  0.6964024835606963  0.8199614697219458  0.8611467074131841  1.0000
  N   N4        1.0  0.6976104279216174  0.8682538399488066  0.8173758673299222  1.0000
  N   N5        1.0  0.8234294353643532  0.8679456818346979  0.6957908803675397  1.0000
  N   N6        1.0  0.8695228913008749  0.8210819954332321  0.695399634581584  1.0000
  N   N7        1.0  0.8658678592749497  0.3055003214364831  0.18211155486339695  1.0000
  N   N8        1.0  0.8195643940326036  0.30436445635032067  0.13609699482302776  1.0000
  N   N9        1.0  0.6976777551985833  0.1781978892146938  0.13536488301031116  1.0000
  N   N10       1.0  0.6981251994726848  0.1316162872741131  0.18093019380784636  1.0000
  N   N11       1.0  0.8223136377767589  0.1338076932529688  0.30427123875544043  1.0000
  N   N12       1.0  0.8677712744992832  0.18093608247662024  0.30475592349002073  1.0000
  N   N13       1.0  0.12749885994463034  0.702387494891319  0.17549652709941205  1.0000
  N   N14       1.0  0.1759928982713888  0.7002042810667817  0.13183821517179695  1.0000
  N   N15       1.0  0.303622508318476  0.8206901714742969  0.13358717875275522  1.0000
  N   N16       1.0  0.3062477719137817  0.8652382234314401  0.18061751585793226  1.0000
  N   N17       1.0  0.1809522939238803  0.8666823321926601  0.30274642676019436  1.0000
  N   N18       1.0  0.1307492458113018  0.8247085963934496  0.29919709167377573  1.0000
  N   N19       1.0  0.1279207820568971  0.29917628508530214  0.8249907060263768  1.0000
  N   N20       1.0  0.1758561285639573  0.2999141458092396  0.8693687767848747  1.0000
  N   N21       1.0  0.3021572591519686  0.17717519361170275  0.8689001590745494  1.0000
  N   N22       1.0  0.30523442489852926  0.1331680234186479  0.8213966178024565  1.0000
  N   N23       1.0  0.18090640594009946  0.1342825194789157  0.6980714470417981  1.0000
  N   N24       1.0  0.13094725599406593  0.17693461379842998  0.7012607299418223  1.0000
