data_image0
_chemical_formula_structural       YH9C5N2O8
_chemical_formula_sum              "Y1 H9 C5 N2 O8"
_cell_length_a       6.555042619782892
_cell_length_b       6.70202171381048
_cell_length_c       6.701902344011115
_cell_angle_alpha    64.32192156130478
_cell_angle_beta     73.28613798109572
_cell_angle_gamma    73.28686090682244

_space_group_name_H-M_alt    "P 1"
_space_group_IT_number       1

loop_
  _space_group_symop_operation_xyz
  'x, y, z'

loop_
  _atom_site_type_symbol
  _atom_site_label
  _atom_site_symmetry_multiplicity
  _atom_site_fract_x
  _atom_site_fract_y
  _atom_site_fract_z
  _atom_site_occupancy
  Y   Y1        1.0  2.8521041741559467e-06  0.94370064155067  0.05629896745293914  1.0000
  H   H1        1.0  0.5986971627191764  0.14932295639689389  0.41482524941957893  1.0000
  H   H2        1.0  0.4013130702569896  0.5851515865014818  0.850677479898735  1.0000
  H   H3        1.0  0.4703803365852792  0.44044772838176977  0.3154076062245608  1.0000
  H   H4        1.0  0.5296446380647737  0.6845269752663016  0.5595647813084953  1.0000
  H   H5        1.0  0.8692779276730463  0.4233211221130233  0.19437245846271625  1.0000
  H   H6        1.0  0.13070417937734644  0.8056428681033339  0.5766623082589605  1.0000
  H   H7        1.0  0.17696927903696041  0.39314531247325835  0.5887668387851335  1.0000
  H   H8        1.0  0.8230563089585274  0.41117843969104934  0.6068815973329721  1.0000
  H   H9        1.0  0.4999995030880057  0.025184220571063096  0.9748161957967483  1.0000
  C   C1        1.0  0.038916081647521104  0.41758195243108515  0.10028433122504772  1.0000
  C   C2        1.0  0.9610844601881467  0.8997233908153957  0.5823996975365234  1.0000
  C   C3        1.0  0.2966381695287125  0.23952903042534496  0.5868255421311376  1.0000
  C   C4        1.0  0.7034015927795494  0.41314350435258246  0.7605028526979255  1.0000
  C   C5        1.0  0.4999919678437621  0.8712269208518462  0.1287840895288498  1.0000
  N   N1        1.0  0.468648972469147  0.27705885634538413  0.4250158341185113  1.0000
  N   N2        1.0  0.5313590765902916  0.5749621317865417  0.7229357763186213  1.0000
  O   O1        1.0  0.6680030989579463  0.7926747534413964  0.21825120864076547  1.0000
  O   O2        1.0  0.3319748112563802  0.7817606101915615  0.2073293513712784  1.0000
  O   O3        1.0  0.1273469015528264  0.581362417845092  0.06042265148708753  1.0000
  O   O4        1.0  0.8726361714027889  0.9395893967815354  0.41865799693233907  1.0000
  O   O5        1.0  0.2650605721261813  0.0478184787044071  0.7301088342511193  1.0000
  O   O6        1.0  0.734927828593257  0.2698996838251944  0.9522003100281465  1.0000
  O   O7        1.0  0.1313339549287349  0.25523706631145865  0.0397496728450335  1.0000
  O   O8        1.0  0.8686419036170464  0.9602710135020794  0.7447916820142029  1.0000
