data_image0
_chemical_formula_structural       Gd4H28C56N8O32
_chemical_formula_sum              "Gd4 H28 C56 N8 O32"
_cell_length_a       8.356717348007031
_cell_length_b       12.27168953821079
_cell_length_c       13.526933259686546
_cell_angle_alpha    102.06403024780663
_cell_angle_beta     90.00011710312707
_cell_angle_gamma    89.99988805086076

_space_group_name_H-M_alt    "P 1"
_space_group_IT_number       1

loop_
  _space_group_symop_operation_xyz
  'x, y, z'

loop_
  _atom_site_type_symbol
  _atom_site_label
  _atom_site_symmetry_multiplicity
  _atom_site_fract_x
  _atom_site_fract_y
  _atom_site_fract_z
  _atom_site_occupancy
  Gd  Gd1       1.0  0.22820632524937423  0.30037005950566004  0.6837065217379745  1.0000
  Gd  Gd2       1.0  0.7282049343083656  0.6996263680445126  0.8162953885004854  1.0000
  Gd  Gd3       1.0  0.7717941997237786  0.6996291937554276  0.316296651669724  1.0000
  Gd  Gd4       1.0  0.271796787301426  0.3003745588816571  0.18370588866095264  1.0000
  H   H1        1.0  0.6427455273341992  0.4766810045325799  0.6137028613764386  1.0000
  H   H2        1.0  0.14274574767581782  0.5233163448090252  0.8863005950783888  1.0000
  H   H3        1.0  0.3572466211584882  0.5233107373486304  0.38630256521662437  1.0000
  H   H4        1.0  0.8572511873745158  0.47668622739301025  0.1137076516046989  1.0000
  H   H5        1.0  0.6500783138511893  0.4244259457310875  0.4234405016677912  1.0000
  H   H6        1.0  0.1500809624681949  0.5755720972512606  0.07656374290167628  1.0000
  H   H7        1.0  0.3499114413556725  0.5755682936367991  0.5765661440320643  1.0000
  H   H8        1.0  0.8499219557899808  0.42443297479892567  0.9234449840784293  1.0000
  H   H9        1.0  0.9040248895595654  0.34667817358247544  0.33760866323211763  1.0000
  H   H10       1.0  0.4040275968876941  0.6533195923356488  0.1623958532619909  1.0000
  H   H11       1.0  0.0959672589183569  0.6533235748025206  0.6623964680934337  1.0000
  H   H12       1.0  0.5959813045821107  0.3466813203903599  0.8376098567888449  1.0000
  H   H13       1.0  0.9036164380277895  0.154951487215456  0.6597295790152558  1.0000
  H   H14       1.0  0.40361319648628313  0.8450447513234778  0.8402717802361509  1.0000
  H   H15       1.0  0.0963876768678205  0.8450469422240301  0.3402704790393898  1.0000
  H   H16       1.0  0.5963861318335687  0.1549536923148551  0.1597238449303831  1.0000
  H   H17       1.0  0.6963807228550039  0.9767903190478011  0.6233796710911719  1.0000
  H   H18       1.0  0.1963763555176214  0.023202859778407994  0.8766060495758197  1.0000
  H   H19       1.0  0.303625785294507  0.023211495578479506  0.37660477344280713  1.0000
  H   H20       1.0  0.8036217761502585  0.9768022548631093  0.12338937874505967  1.0000
  H   H21       1.0  0.21959437781742253  0.8349932707109174  0.5932418110427946  1.0000
  H   H22       1.0  0.7195936116159273  0.1650015588182256  0.9067412994220235  1.0000
  H   H23       1.0  0.7804133269903132  0.1650060180368556  0.4067502801548599  1.0000
  H   H24       1.0  0.2804021267817447  0.8349985395594788  0.09325834000975425  1.0000
  H   H25       1.0  0.5206360628019695  0.8080822582974817  0.5896174305037363  1.0000
  H   H26       1.0  0.0206349142928275  0.1919136357820719  0.9103611941297842  1.0000
  H   H27       1.0  0.47937164198724247  0.19191956106022448  0.4103655364023667  1.0000
  H   H28       1.0  0.9793596274541657  0.8080898051956709  0.08963613043606947  1.0000
  C   C1        1.0  0.17932430454411016  0.29161250939187516  0.4395555591079088  1.0000
  C   C2        1.0  0.6793280354444562  0.7083863562596949  0.06044222754819377  1.0000
  C   C3        1.0  0.8206690405765755  0.7083875747908978  0.5604485132081436  1.0000
  C   C4        1.0  0.3206736861644758  0.29161207791317884  0.9395563528766502  1.0000
  C   C5        1.0  0.020432960080981395  0.34137402105587006  0.47898993809472057  1.0000
  C   C6        1.0  0.5204343108067846  0.6586224968069773  0.02101384745463972  1.0000
  C   C7        1.0  0.9795615816821124  0.6586268940440122  0.5210150331341694  1.0000
  C   C8        1.0  0.4795674108072774  0.3413767588195  0.9789885871394404  1.0000
  C   C9        1.0  0.8808917814472254  0.413230928659118  0.6266268588720223  1.0000
  C   C10       1.0  0.38089297511202597  0.5867644990209088  0.8733750547646367  1.0000
  C   C11       1.0  0.1191039569586394  0.5867683222385408  0.3733770533473688  1.0000
  C   C12       1.0  0.619105156575955  0.4132355875252927  0.126628278739723  1.0000
  C   C13       1.0  0.7472614370010291  0.43739204596263903  0.5732147802588514  1.0000
  C   C14       1.0  0.2472640708610214  0.5626043584295318  0.9267878892001349  1.0000
  C   C15       1.0  0.2527307114858033  0.5626038647036324  0.4267907080096478  1.0000
  C   C16       1.0  0.7527352574705758  0.4373965566677428  0.07321708203132002  1.0000
  C   C17       1.0  0.7529429618174532  0.40948298699319713  0.4680979258650879  1.0000
  C   C18       1.0  0.2529442251634251  0.5905149461271861  0.03190569003628946  1.0000
  C   C19       1.0  0.2470503833105795  0.5905137569562342  0.531907722501991  1.0000
  C   C20       1.0  0.747057496452058  0.4094884640881205  0.9681012391187807  1.0000
  C   C21       1.0  0.8931666682611805  0.3640435297930439  0.41966239033694563  1.0000
  C   C22       1.0  0.3931679602673698  0.6359542550706507  0.0803398980867058  1.0000
  C   C23       1.0  0.1068266768647135  0.63595404980623  0.5803426793138087  1.0000
  C   C24       1.0  0.6068349579881769  0.36404666475674224  0.9196635955181522  1.0000
  C   C25       1.0  0.8950601683195033  0.44178228612396714  0.7397255579158895  1.0000
  C   C26       1.0  0.3950646636694799  0.5582156235814537  0.7602775900020405  1.0000
  C   C27       1.0  0.1049367667275547  0.5582177980568447  0.2602785144020814  1.0000
  C   C28       1.0  0.6049322713794396  0.4417827940317522  0.23972616212005704  1.0000
  C   C29       1.0  0.06470820856253572  0.03332257975120711  0.6300893906812846  1.0000
  C   C30       1.0  0.5647002475852007  0.966675711680381  0.869906754162571  1.0000
  C   C31       1.0  0.9353042828175334  0.966680858850701  0.36990867270844063  1.0000
  C   C32       1.0  0.4352942941675622  0.03332688654939631  0.13009336556238082  1.0000
  C   C33       1.0  0.5906382282165623  0.19793747219379298  0.665373436682046  1.0000
  C   C34       1.0  0.0906303043296717  0.8020557770481819  0.8346262082254797  1.0000
  C   C35       1.0  0.4093622967392747  0.8020643093111917  0.33462135124835873  1.0000
  C   C36       1.0  0.9093678273424858  0.19794766629363642  0.16537037752804204  1.0000
  C   C37       1.0  0.5662351130319011  0.984687872584182  0.624755736049913  1.0000
  C   C38       1.0  0.06623076373853821  0.015306269688821305  0.8752336994271135  1.0000
  C   C39       1.0  0.433770198487025  0.015312256546813802  0.3752342988016224  1.0000
  C   C40       1.0  0.9337673679348273  0.9846971712869604  0.12476362514066615  1.0000
  C   C41       1.0  0.301871823594233  0.9052462841485893  0.6076037063416706  1.0000
  C   C42       1.0  0.8018700142930656  0.09474927470125039  0.8923840852083204  1.0000
  C   C43       1.0  0.6981346845689558  0.0947530093319173  0.3923869072268289  1.0000
  C   C44       1.0  0.19812692074636834  0.9052533187951396  0.10761751214643304  1.0000
  C   C45       1.0  0.4956393224322043  0.09029427410545311  0.6443216281009683  1.0000
  C   C46       1.0  0.9956386573717778  0.9096993807429001  0.8556741776957821  1.0000
  C   C47       1.0  0.5043635958097354  0.9097058408306112  0.3556728396348348  1.0000
  C   C48       1.0  0.0043618675882584  0.0903040554994945  0.1443246245017917  1.0000
  C   C49       1.0  0.24117824400085647  0.013485990029877801  0.6278943622981785  1.0000
  C   C50       1.0  0.7411774134458824  0.9865079471761721  0.872099693394432  1.0000
  C   C51       1.0  0.7588246742468527  0.9865132821582281  0.37210290059672974  1.0000
  C   C52       1.0  0.2588207182384608  0.013492146468145397  0.1279014236671401  1.0000
  C   C53       1.0  0.4673219755360876  0.8908679033810716  0.606396730785555  1.0000
  C   C54       1.0  0.9673237190687515  0.1091266558676196  0.8935866449459624  1.0000
  C   C55       1.0  0.5326821393361527  0.10913306613250741  0.3935912477205008  1.0000
  C   C56       1.0  0.03267441260582161  0.8908767827421257  0.1064114184360746  1.0000
  N   N1        1.0  0.011138775071181299  0.36334837356977806  0.5803820774081956  1.0000
  N   N2        1.0  0.5111402949056653  0.6366482884407105  0.9196203392113276  1.0000
  N   N3        1.0  0.9888569633356138  0.6366500440440745  0.41962167471325534  1.0000
  N   N4        1.0  0.4888602300641338  0.3633518028362701  0.08038151666578841  1.0000
  N   N5        1.0  0.3358923690818543  0.10385844725342962  0.6461801953037636  1.0000
  N   N6        1.0  0.8358905400167772  0.8961353724206591  0.8538183946932422  1.0000
  N   N7        1.0  0.6641105491682779  0.8961408202025967  0.35381854521966727  1.0000
  N   N8        1.0  0.1641099849496754  0.1038655568722007  0.1461821436532986  1.0000
  O   O1        1.0  0.2118824080854083  0.27999609760890115  0.34658883019731235  1.0000
  O   O2        1.0  0.7118840164703926  0.7200027088614436  0.15341637946328754  1.0000
  O   O3        1.0  0.7881121336691378  0.7200081600903658  0.6534138261663004  1.0000
  O   O4        1.0  0.2881200984316337  0.27999321362850077  0.8465854147403178  1.0000
  O   O5        1.0  0.2724567124504348  0.26583024908082825  0.5055475133970901  1.0000
  O   O6        1.0  0.7724570019873838  0.734164458890085  0.9944556016579824  1.0000
  O   O7        1.0  0.7275402225893616  0.7341698492962223  0.494452126035327  1.0000
  O   O8        1.0  0.2275471129112887  0.2658323016157453  0.005544875015047504  1.0000
  O   O9        1.0  0.8040698658869658  0.5173333379804674  0.7881941829995469  1.0000
  O   O10       1.0  0.3040756150489869  0.48265716907743433  0.7118081654199528  1.0000
  O   O11       1.0  0.19592826580436204  0.482665910549848  0.21181046803538808  1.0000
  O   O12       1.0  0.6959237132866036  0.5173412438023777  0.28819706433194636  1.0000
  O   O13       1.0  0.0007151125085656001  0.39030938050387226  0.7794974134252897  1.0000
  O   O14       1.0  0.5007148617388425  0.60968645486426  0.7205063095622677  1.0000
  O   O15       1.0  0.9992818225406312  0.609689868027097  0.22050723760899876  1.0000
  O   O16       1.0  0.4992844665943253  0.3903119627476386  0.2794974425611088  1.0000
  O   O17       1.0  0.027430297887789803  0.14271083995977563  0.6550921554368686  1.0000
  O   O18       1.0  0.5274273539285658  0.8572824711433287  0.8449096382333894  1.0000
  O   O19       1.0  0.9725726203717502  0.8572875776501617  0.34491159668842636  1.0000
  O   O20       1.0  0.4725743676837268  0.14271512501365183  0.1550902597220372  1.0000
  O   O21       1.0  0.9653691266776931  0.9585534563623811  0.6118985640201657  1.0000
  O   O22       1.0  0.465368334762303  0.0414410789918804  0.8880929365757453  1.0000
  O   O23       1.0  0.034630201641945704  0.0414408303210863  0.3880933053996358  1.0000
  O   O24       1.0  0.5346321902060822  0.9585548576962635  0.11190442474038055  1.0000
  O   O25       1.0  0.5095476629776597  0.2874200618432639  0.6751618028302034  1.0000
  O   O26       1.0  0.0095483389471696  0.7125766042696783  0.824839873270861  1.0000
  O   O27       1.0  0.49045166534853035  0.7125792008826366  0.32483841531981744  1.0000
  O   O28       1.0  0.9904545792986141  0.28742766052313584  0.17516056665445492  1.0000
  O   O29       1.0  0.7404434814938838  0.19516802601670952  0.6745879622534688  1.0000
  O   O30       1.0  0.2404450927187156  0.8048242288597721  0.8254109441576105  1.0000
  O   O31       1.0  0.2595606333841332  0.8048321007489038  0.325402811411685  1.0000
  O   O32       1.0  0.7595578255085371  0.19518256654298233  0.17458037147615363  1.0000
