data_image0
_chemical_formula_structural       Cd4H28C24N12O20
_chemical_formula_sum              "Cd4 H28 C24 N12 O20"
_cell_length_a       5.003497995007812
_cell_length_b       9.701633228076073
_cell_length_c       18.152721425137308
_cell_angle_alpha    89.99957130399443
_cell_angle_beta     89.999907236982
_cell_angle_gamma    89.99994719006338

_space_group_name_H-M_alt    "P 1"
_space_group_IT_number       1

loop_
  _space_group_symop_operation_xyz
  'x, y, z'

loop_
  _atom_site_type_symbol
  _atom_site_label
  _atom_site_symmetry_multiplicity
  _atom_site_fract_x
  _atom_site_fract_y
  _atom_site_fract_z
  _atom_site_occupancy
  Cd  Cd1       1.0  0.31404863178577347  0.304904876594989  0.7925020132577458  1.0000
  Cd  Cd2       1.0  0.1859415103724587  0.6951034975306456  0.2924973953195931  1.0000
  Cd  Cd3       1.0  0.6859696935454878  0.8048992782053617  0.7074988302586576  1.0000
  Cd  Cd4       1.0  0.8140337316169236  0.19510315328174943  0.207501226566464  1.0000
  H   H1        1.0  0.719769719647985  0.17216493220974627  0.9554965615886388  1.0000
  H   H2        1.0  0.780207123631257  0.8278351784429105  0.4554935889152604  1.0000
  H   H3        1.0  0.280238182032015  0.6721746416032772  0.5445020766790877  1.0000
  H   H4        1.0  0.21976255316521073  0.32782471505931443  0.044509441770053094  1.0000
  H   H5        1.0  0.7669307835362461  0.9818192152185929  0.0507991302279578  1.0000
  H   H6        1.0  0.7330682878124861  0.0181739957493718  0.5508010860743652  1.0000
  H   H7        1.0  0.23305738030965978  0.4818290272089528  0.44920491597480344  1.0000
  H   H8        1.0  0.2669491072007517  0.5181689830414627  0.949202045507505  1.0000
  H   H9        1.0  0.6839807356121526  0.8163958405063099  0.014778982056697003  1.0000
  H   H10       1.0  0.8160127173641384  0.183603011019521  0.5147846525347433  1.0000
  H   H11       1.0  0.31600889010841365  0.31639883072195835  0.4852240959282669  1.0000
  H   H12       1.0  0.1840012171548793  0.6835914774452263  0.9852222016772244  1.0000
  H   H13       1.0  0.2193615410169798  0.8417328683238523  0.06872733680514641  1.0000
  H   H14       1.0  0.2806429375736314  0.15826719173711012  0.5687276067030709  1.0000
  H   H15       1.0  0.7806141767298341  0.34172852974503337  0.4312673731439034  1.0000
  H   H16       1.0  0.7193889022374192  0.6582832465781222  0.9312727416948334  1.0000
  H   H17       1.0  0.477280744471571  0.8312339645140338  0.13347741703040578  1.0000
  H   H18       1.0  0.0227270528065731  0.16877243569624062  0.6334837280394865  1.0000
  H   H19       1.0  0.5226849462003429  0.331239214834767  0.3665206416263658  1.0000
  H   H20       1.0  0.9773228084663046  0.6687662213057735  0.8665171278214245  1.0000
  H   H21       1.0  0.5230307129609031  0.13081102007249257  0.6842712086698981  1.0000
  H   H22       1.0  0.9769669598314648  0.8692092481754087  0.1842713511816143  1.0000
  H   H23       1.0  0.4769790531037258  0.6308053687485325  0.8157309060142808  1.0000
  H   H24       1.0  0.0230188400381905  0.3691995991595647  0.3157282030330677  1.0000
  H   H25       1.0  0.7624790105510045  0.1757276503821288  0.7333915627422841  1.0000
  H   H26       1.0  0.7375181475153594  0.824288861744641  0.23339246506264996  1.0000
  H   H27       1.0  0.23753689707558578  0.6757179434643061  0.766604857298688  1.0000
  H   H28       1.0  0.2624575136227989  0.324281503843288  0.2666034188276356  1.0000
  C   C1        1.0  0.5598116227699991  0.10628867374865789  0.9357481515371476  1.0000
  C   C2        1.0  0.9401754204220509  0.8937096422437347  0.435750950591256  1.0000
  C   C3        1.0  0.4402140525751009  0.6062998875991852  0.564253513687099  1.0000
  C   C4        1.0  0.059808460327929  0.39370229443405685  0.0642512566602136  1.0000
  C   C5        1.0  0.24057913483004964  0.016742600838398396  0.8741994541336453  1.0000
  C   C6        1.0  0.2594101512108935  0.9832605461066487  0.3742002474770061  1.0000
  C   C7        1.0  0.7594182695357503  0.5167359118409323  0.6258003780852945  1.0000
  C   C8        1.0  0.7405780173295184  0.48325834704694876  0.1257966313266863  1.0000
  C   C9        1.0  0.6029694894255186  0.9169108393853022  0.0309432964575933  1.0000
  C   C10       1.0  0.8970357857868196  0.08309294744037739  0.5309493749798619  1.0000
  C   C11       1.0  0.39703445266746223  0.41690977815252256  0.46905165332800186  1.0000
  C   C12       1.0  0.10298781554179469  0.5830673486252991  0.9690705653816638  1.0000
  C   C13       1.0  0.04056736068285011  0.0028867652259734  0.8131067243599119  1.0000
  C   C14       1.0  0.4594225654949469  0.9971202995880827  0.3131151534290524  1.0000
  C   C15       1.0  0.9594459875851697  0.5028840416107272  0.6868860037157347  1.0000
  C   C16       1.0  0.5405336703402525  0.4971114531977819  0.1868882786264479  1.0000
  C   C17       1.0  0.2976391618628114  0.0310678743769159  0.1259799299159283  1.0000
  C   C18       1.0  0.20240468885598517  0.9689252274080786  0.6259735480855468  1.0000
  C   C19       1.0  0.7023555339096106  0.5310579342332388  0.3740188197787758  1.0000
  C   C20       1.0  0.7976161672780505  0.468924723958736  0.8740227606409476  1.0000
  C   C21       1.0  0.3928661350630023  0.8978334281917739  0.0903537217588948  1.0000
  C   C22       1.0  0.10715210708002589  0.1021632472666951  0.5903614019575371  1.0000
  C   C23       1.0  0.6071217563079897  0.39782969655733064  0.4096424087259223  1.0000
  C   C24       1.0  0.8929015352468639  0.6021689721870871  0.909649645332003  1.0000
  N   N1        1.0  0.4034033874109113  0.1300614921373366  0.8779562242939463  1.0000
  N   N2        1.0  0.09657986343605529  0.8699292349863723  0.3779575021991519  1.0000
  N   N3        1.0  0.5966283608817803  0.63006648750914  0.6220414864154975  1.0000
  N   N4        1.0  0.9033859528215656  0.3699412219844334  0.12203543841386022  1.0000
  N   N5        1.0  0.49150267911872436  0.9839922967315359  0.9657660803912478  1.0000
  N   N6        1.0  0.008491643203818499  0.016003428155379095  0.46576979801854174  1.0000
  N   N7        1.0  0.5085082328826614  0.48398763308177445  0.5342307168883167  1.0000
  N   N8        1.0  0.9915010050886011  0.5159965250251161  0.034230115759911  1.0000
  N   N9        1.0  0.28851879168146866  0.9254592954561572  0.9275702854950083  1.0000
  N   N10       1.0  0.2114919196914968  0.0745503453960907  0.4275792501690958  1.0000
  N   N11       1.0  0.7115079192167784  0.42544859366151394  0.5724256522041031  1.0000
  N   N12       1.0  0.7885209045412791  0.5745319559753597  0.07242372669310268  1.0000
  O   O1        1.0  0.44437467064791736  0.1365839873607939  0.1272186372556661  1.0000
  O   O2        1.0  0.055651179616411584  0.8634101283763799  0.6272237237578864  1.0000
  O   O3        1.0  0.5556263633034603  0.6365763916225761  0.37277637058820545  1.0000
  O   O4        1.0  0.9443653369425746  0.3634083448745287  0.8727768776945339  1.0000
  O   O5        1.0  0.8996258306450642  0.8950646557158494  0.8096645818140402  1.0000
  O   O6        1.0  0.6003565379386869  0.10493742579213011  0.3096668208842885  1.0000
  O   O7        1.0  0.10036680539651138  0.39507305312820046  0.690339193942421  1.0000
  O   O8        1.0  0.39961841151571775  0.6049418555109298  0.1903310722765283  1.0000
  O   O9        1.0  0.601230013311273  0.21404419430252358  0.7084211306424635  1.0000
  O   O10       1.0  0.8987554148150708  0.7859705938190231  0.2084188706609496  1.0000
  O   O11       1.0  0.39877602561310244  0.7140369497041377  0.7915784361548148  1.0000
  O   O12       1.0  0.10122212059052768  0.28596319082814153  0.2915788244098465  1.0000
  O   O13       1.0  0.033276859675844206  0.1043163869960466  0.7684939203871367  1.0000
  O   O14       1.0  0.4667095367928836  0.8956778809921814  0.2684961578499738  1.0000
  O   O15       1.0  0.9667188302258223  0.6043078934258619  0.7315049986314079  1.0000
  O   O16       1.0  0.533256362995452  0.3956859676780979  0.23149777800334453  1.0000
  O   O17       1.0  0.0591998235436151  0.0256203719820931  0.1529489116866074  1.0000
  O   O18       1.0  0.44083175295207866  0.9743981341192695  0.6529529510296825  1.0000
  O   O19       1.0  0.9407748685412115  0.5256134561396095  0.3470498605409773  1.0000
  O   O20       1.0  0.5591551446586249  0.474400489199766  0.8470538017994257  1.0000
