data_image0
_chemical_formula_structural       K2H22C10S4N2O2
_chemical_formula_sum              "K2 H22 C10 S4 N2 O2"
_cell_length_a       6.318007641365811
_cell_length_b       7.17084964460029
_cell_length_c       11.501215727117332
_cell_angle_alpha    80.35167934937381
_cell_angle_beta     76.09125523811313
_cell_angle_gamma    67.29615183053848

_space_group_name_H-M_alt    "P 1"
_space_group_IT_number       1

loop_
  _space_group_symop_operation_xyz
  'x, y, z'

loop_
  _atom_site_type_symbol
  _atom_site_label
  _atom_site_symmetry_multiplicity
  _atom_site_fract_x
  _atom_site_fract_y
  _atom_site_fract_z
  _atom_site_occupancy
  K   K1        1.0  0.3141857313884629  0.8009039380017028  0.9473409959246908  1.0000
  K   K2        1.0  0.685843436192208  0.19909285394132326  0.05266467974539073  1.0000
  H   H1        1.0  0.20719137363900597  0.43191216124367315  0.8507846016025199  1.0000
  H   H2        1.0  0.7928320340091874  0.5680909794607415  0.14918466543741002  1.0000
  H   H3        1.0  0.443617770973319  0.2180668796961313  0.7901451457769469  1.0000
  H   H4        1.0  0.5564100756101669  0.7819453677141084  0.20981565599427646  1.0000
  H   H5        1.0  0.2921832454838623  0.6556394564855169  0.6711257703220355  1.0000
  H   H6        1.0  0.7078537860544928  0.34437416617878813  0.32884585896015744  1.0000
  H   H7        1.0  0.2546076583406887  0.4462623671311263  0.6258037027470992  1.0000
  H   H8        1.0  0.7454344340440997  0.5537588515649148  0.3741586639430423  1.0000
  H   H9        1.0  0.5405721110332281  0.45074891314212095  0.6086207215032147  1.0000
  H   H10       1.0  0.45944772420120483  0.5492708269734337  0.3913568890185318  1.0000
  H   H11       1.0  0.876735052506959  0.2031260871499043  0.5569066404331195  1.0000
  H   H12       1.0  0.12322991498495398  0.796880051810369  0.44311868093383583  1.0000
  H   H13       1.0  0.7429535735849842  0.08235975614898898  0.48778505548085604  1.0000
  H   H14       1.0  0.25703154135333517  0.9176251265253796  0.5122336993573953  1.0000
  H   H15       1.0  0.7850873734327027  0.6635202824252243  0.7092946768490761  1.0000
  H   H16       1.0  0.2148382126609932  0.336478462067653  0.29074265118009635  1.0000
  H   H17       1.0  0.7738916553580779  0.7508660372315459  0.5543482229489953  1.0000
  H   H18       1.0  0.2260344800308261  0.24914327376082207  0.4456914354051166  1.0000
  H   H19       1.0  0.5338321908059815  0.8677989107005784  0.6700444604425327  1.0000
  H   H20       1.0  0.4661113118415443  0.1322436582137669  0.32998170844414443  1.0000
  H   H21       1.0  0.6941376794339079  0.36440048652639934  0.8078160693198628  1.0000
  H   H22       1.0  0.305884790356551  0.6355889250394281  0.19217036889386926  1.0000
  C   C1        1.0  0.8932269678658789  0.9628813288574987  0.7528818144904932  1.0000
  C   C2        1.0  0.10677822326260872  0.03709426824711669  0.2471482933146234  1.0000
  C   C3        1.0  0.3810308882890684  0.38391355879297606  0.7922515306345518  1.0000
  C   C4        1.0  0.6190048857657617  0.6160713829813104  0.20771361867335972  1.0000
  C   C5        1.0  0.3667492602647189  0.4903864013304683  0.667006225483519  1.0000
  C   C6        1.0  0.6333086264284591  0.5096241170116542  0.3329577662673345  1.0000
  C   C7        1.0  0.8810186801996951  0.05697395346621191  0.537683156607379  1.0000
  C   C8        1.0  0.11893630987142262  0.9429929142298473  0.4623439933431542  1.0000
  C   C9        1.0  0.7260100261510092  0.7967084034126014  0.6464355879504496  1.0000
  C   C10       1.0  0.27392770666195804  0.20330851770150096  0.3535869927922946  1.0000
  S   S1        1.0  0.035983549461285215  0.1286548484867112  0.7471156068415611  1.0000
  S   S2        1.0  0.9640210176765298  0.8713224221092232  0.25289267546163796  1.0000
  S   S3        1.0  0.8269169268235574  0.8266167405553304  0.8846250108436708  1.0000
  S   S4        1.0  0.17313581714503817  0.1733662122693858  0.11539115250306511  1.0000
  N   N1        1.0  0.8356293285292085  0.9402552773465587  0.6511483028096522  1.0000
  N   N2        1.0  0.16433430838335994  0.05973429547048428  0.3488684455793205  1.0000
  O   O1        1.0  0.5302523453256288  0.43556480247314494  0.8485672262640946  1.0000
  O   O2        1.0  0.46978865022833843  0.5644351454554765  0.15140962216677425  1.0000
