data_image0
_chemical_formula_structural       Al4H16C32O20
_chemical_formula_sum              "Al4 H16 C32 O20"
_cell_length_a       11.909818472124428
_cell_length_b       12.095353659315167
_cell_length_c       12.09545164488514
_cell_angle_alpha    75.97241715800709
_cell_angle_beta     60.50637301112668
_cell_angle_gamma    60.506069482648265

_space_group_name_H-M_alt    "P 1"
_space_group_IT_number       1

loop_
  _space_group_symop_operation_xyz
  'x, y, z'

loop_
  _atom_site_type_symbol
  _atom_site_label
  _atom_site_symmetry_multiplicity
  _atom_site_fract_x
  _atom_site_fract_y
  _atom_site_fract_z
  _atom_site_occupancy
  Al  Al1       1.0  0.19212868589264778  0.9999997746904088  0.61574315122882  1.0000
  Al  Al2       1.0  0.9420889725578829  0.11582317349397918  0.4999992666280095  1.0000
  Al  Al3       1.0  0.5579106915004319  0.8841772693725646  0.5000008969830461  1.0000
  Al  Al4       1.0  0.8078718957721235  0.999999996546521  0.3842557262417047  1.0000
  H   H1        1.0  0.375035088920292  0.06408862027450375  0.43589140310569974  1.0000
  H   H2        1.0  0.8750138116346308  0.9359133991128773  0.5641097760920318  1.0000
  H   H3        1.0  0.18907293489569793  0.9359123772701142  0.43589103175568067  1.0000
  H   H4        1.0  0.5608765687520432  0.06408819941499641  0.5641083792808176  1.0000
  H   H5        1.0  0.10950349739928826  0.9999995190703358  4.389991730000001e-07  1.0000
  H   H6        1.0  0.6403832007738328  0.500000198458139  0.49999631124727273  1.0000
  H   H7        1.0  0.8904989075421526  0.9999987023642807  0.9999993740711234  1.0000
  H   H8        1.0  0.8596170619288301  0.5000010717757777  0.5000010028216054  1.0000
  H   H9        1.0  0.5487080512532502  0.9415365814945249  0.8032272448637843  1.0000
  H   H10       1.0  0.4564942124287724  0.30324875981102656  0.4414364743941307  1.0000
  H   H11       1.0  0.6480659114788238  0.0584641404681677  0.8032266945670232  1.0000
  H   H12       1.0  0.10206940911802324  0.696750931827687  0.441435428078421  1.0000
  H   H13       1.0  0.24025506385048345  0.3032479958872899  0.558565989863837  1.0000
  H   H14       1.0  0.5097562687095522  0.9415367348625524  0.1967716593464317  1.0000
  H   H15       1.0  0.20117643144060807  0.6967522704608485  0.5585686599959062  1.0000
  H   H16       1.0  0.29347222277799284  0.058463951104251136  0.19677119206766494  1.0000
  C   C1        1.0  0.34259957641619826  0.9523093134925278  0.7654993627819381  1.0000
  C   C2        1.0  0.6895706611015769  0.26551157142938564  0.45223049495382395  1.0000
  C   C3        1.0  0.8919031248062907  0.04769066248582734  0.7654987045300461  1.0000
  C   C4        1.0  0.8581968958961567  0.7344893352592338  0.45223117438065696  1.0000
  C   C5        1.0  0.04491645464124606  0.2655126251485598  0.5477691462183503  1.0000
  C   C6        1.0  0.7050908769068158  0.9523066632947915  0.23450143357176506  1.0000
  C   C7        1.0  0.4073143694150757  0.7344885976548314  0.547768824834421  1.0000
  C   C8        1.0  0.060407134432445296  0.04769171417914464  0.23450108935190175  1.0000
  C   C9        1.0  0.32947606167969207  0.9733126176287785  0.8886717426413997  1.0000
  C   C10       1.0  0.5585042110196097  0.3886889057968974  0.47320879548244943  1.0000
  C   C11       1.0  0.7818533411748447  0.02668662608154912  0.8886720799790879  1.0000
  C   C12       1.0  0.9682845560374888  0.6113119556399982  0.4732104800845606  1.0000
  C   C13       1.0  0.05280507662994437  0.38868929754147535  0.5267917091799391  1.0000
  C   C14       1.0  0.69721243667653  0.9733120363805201  0.11132713929149671  1.0000
  C   C15       1.0  0.42040356437168175  0.6113115039311129  0.5267896054879844  1.0000
  C   C16       1.0  0.19146032094939608  0.026687539944987352  0.11132772862865892  1.0000
  C   C17       1.0  0.200916299130995  5.42726176929736e-07  3.74866715e-08  1.0000
  C   C18       1.0  0.5489641161510191  0.49999974534006253  0.5000001346807041  1.0000
  C   C19       1.0  0.7990848690802393  0.9999979942662096  0.9999993981145184  1.0000
  C   C20       1.0  0.9510337487862018  0.5000010583082497  0.5000009787778624  1.0000
  C   C21       1.0  0.44801582222650177  0.9694863520448538  0.890021446190815  1.0000
  C   C22       1.0  0.4424516865355272  0.3900348875913553  0.4694008879004202  1.0000
  C   C23       1.0  0.661964821411125  0.030513355336601874  0.8900208927018484  1.0000
  C   C24       1.0  0.08814439707850122  0.6099659318724807  0.4694018249177391  1.0000
  C   C25       1.0  0.1675097417334755  0.3900346264868233  0.5306005656663474  1.0000
  C   C26       1.0  0.58249955591117  0.9694855963140375  0.10997743842453644  1.0000
  C   C27       1.0  0.30188854278839733  0.6099652336058913  0.5305994744588177  1.0000
  C   C28       1.0  0.3075234319989661  0.030514449504380488  0.10997796337539971  1.0000
  C   C29       1.0  0.438125029359824  0.9999990982699887  0.9999994930510003  1.0000
  C   C30       1.0  0.31183762561542483  0.5000005412276922  0.5000011468948032  1.0000
  C   C31       1.0  0.5618771118467477  0.9999999053049183  0.9999989927024943  1.0000
  C   C32       1.0  0.18815867046627935  0.5000002122317043  0.5000011794240963  1.0000
  O   O1        1.0  0.3750311620326553  0.9990623425567055  0.5008614512729894  1.0000
  O   O2        1.0  0.8749555770197831  0.0009382009869512532  0.49913782824738473  1.0000
  O   O3        1.0  0.1241073681710247  0.0009389814276729898  0.5008610485647582  1.0000
  O   O4        1.0  0.6259064241540885  0.9990614163735929  0.4991393123021269  1.0000
  O   O5        1.0  0.227241322765849  0.00017711127907217239  0.7540351962961085  1.0000
  O   O6        1.0  0.7685137203365215  0.2540732953607901  0.5000989795942133  1.0000
  O   O7        1.0  0.018724810910306745  0.9998220118745494  0.754035719109524  1.0000
  O   O8        1.0  0.7313857117425117  0.7459266807091256  0.5001006519570909  1.0000
  O   O9        1.0  0.9774130689811855  0.25407308345581464  0.4998994567374738  1.0000
  O   O10       1.0  0.7725799692075412  0.00017600460469684618  0.24596558074566133  1.0000
  O   O11       1.0  0.5226876300335589  0.7459265322625799  0.49990028908653983  1.0000
  O   O12       1.0  0.9814542816242665  0.9998245196397806  0.24596409408383124  1.0000
  O   O13       1.0  0.4696156915291568  0.8908942978014952  0.680207828946138  1.0000
  O   O14       1.0  0.7092565121432414  0.180173924882574  0.39086945143506574  1.0000
  O   O15       1.0  0.8501775243814149  0.10910539556999764  0.6802081057129002  1.0000
  O   O16       1.0  0.8998724219180971  0.8198258202174173  0.39087004280530385  1.0000
  O   O17       1.0  0.11056902606241434  0.1801738261846922  0.6091302495661638  1.0000
  O   O18       1.0  0.6394892291629548  0.8908938834324833  0.31979301046361297  1.0000
  O   O19       1.0  0.2803015751098528  0.8198264368972237  0.6091298965814361  1.0000
  O   O20       1.0  0.04071758823204867  0.10910689795943539  0.3197906952649562  1.0000
