data_image0
_chemical_formula_structural       Mn2H16C18O12
_chemical_formula_sum              "Mn2 H16 C18 O12"
_cell_length_a       5.097561075658559
_cell_length_b       9.342555638715154
_cell_length_c       9.748277727773532
_cell_angle_alpha    90.025518322864
_cell_angle_beta     89.08379755439664
_cell_angle_gamma    90.0055163002809

_space_group_name_H-M_alt    "P 1"
_space_group_IT_number       1

loop_
  _space_group_symop_operation_xyz
  'x, y, z'

loop_
  _atom_site_type_symbol
  _atom_site_label
  _atom_site_symmetry_multiplicity
  _atom_site_fract_x
  _atom_site_fract_y
  _atom_site_fract_z
  _atom_site_occupancy
  Mn  Mn1       1.0  0.2208465895188851  0.3817448585765177  0.4466972373904455  1.0000
  Mn  Mn2       1.0  0.7787750015174313  0.8818296749312756  0.5534147857508954  1.0000
  H   H1        1.0  0.7821542008147944  0.23865444206884234  0.5426657398586769  1.0000
  H   H2        1.0  0.21743575468241977  0.7387018675717555  0.457644070759244  1.0000
  H   H3        1.0  0.031796292023450703  0.16627626894716493  0.6069564460429362  1.0000
  H   H4        1.0  0.9679140532924962  0.6662502693257795  0.3932394971807439  1.0000
  H   H5        1.0  0.1163980173151273  0.06777658008858373  0.029668696824423094  1.0000
  H   H6        1.0  0.8837730865424547  0.5678251956791058  0.9701455715303167  1.0000
  H   H7        1.0  0.8307372899246345  0.1124030575146833  0.8345634937093251  1.0000
  H   H8        1.0  0.170234618636357  0.6122739499639992  0.1651414157063584  1.0000
  H   H9        1.0  0.48154998953442174  0.2989416090082458  0.8492564421681124  1.0000
  H   H10       1.0  0.5194077482937801  0.7989138265338412  0.15051613127685926  1.0000
  H   H11       1.0  0.43351472384517825  0.4421908803707524  0.0647111620993925  1.0000
  H   H12       1.0  0.5669402324880934  0.9423248969047008  0.9352730753247444  1.0000
  H   H13       1.0  0.3971878814761851  0.08955471499464812  0.1656660271907597  1.0000
  H   H14       1.0  0.6023965193394005  0.5898873222985231  0.8343629556408275  1.0000
  H   H15       1.0  0.16523179328454773  0.9939509103959668  0.2713573845896704  1.0000
  H   H16       1.0  0.8346959682611867  0.4941061250401548  0.7287596711665428  1.0000
  C   C1        1.0  0.7573385606378055  0.3452203367573858  0.1653450232331082  1.0000
  C   C2        1.0  0.24255386553659972  0.8453163613075463  0.8346727955041757  1.0000
  C   C3        1.0  0.9525266874771176  0.2377717336170377  0.1559087670693415  1.0000
  C   C4        1.0  0.04736243289422501  0.7378451713606466  0.8440765647216962  1.0000
  C   C5        1.0  0.9726488341991414  0.1533500766358031  0.0374286207134773  1.0000
  C   C6        1.0  0.027604774673427816  0.6534093979634863  0.9624948947594446  1.0000
  C   C7        1.0  0.808443218498212  0.17728872600745407  0.9268136551940883  1.0000
  C   C8        1.0  0.19217916553486702  0.6773120528910683  0.0730132079202335  1.0000
  C   C9        1.0  0.6124891632260088  0.2813053711740281  0.9349224363912471  1.0000
  C   C10       1.0  0.3882227663233309  0.7813262916231383  0.0649028854444467  1.0000
  C   C11       1.0  0.5870744055191112  0.36184528153608403  0.05431883659672109  1.0000
  C   C12       1.0  0.41315687188293276  0.862004579815306  0.9456297589064206  1.0000
  C   C13       1.0  0.7133632825966528  0.44381113948450945  0.2844593407128144  1.0000
  C   C14       1.0  0.28626384598364046  0.9438493492934373  0.7156074863276487  1.0000
  C   C15       1.0  0.2824487770832249  0.0925921651497816  0.2621692679526788  1.0000
  C   C16       1.0  0.7171985432695465  0.5926769738097875  0.7378499745923577  1.0000
  C   C17       1.0  0.4804967798944659  0.09839417414283963  0.37667198116340467  1.0000
  C   C18       1.0  0.5193405431331898  0.5983439915570801  0.6232972104006649  1.0000
  O   O1        1.0  0.11417935575194348  0.21624788815898918  0.2661624222045091  1.0000
  O   O2        1.0  0.8854740702413012  0.7163979098920096  0.733921173511625  1.0000
  O   O3        1.0  0.9097669470013087  0.48520086600760953  0.35638721033904364  1.0000
  O   O4        1.0  0.08987918485440362  0.9852207279810868  0.6437740558476506  1.0000
  O   O5        1.0  0.4819427778587481  0.4879532231617176  0.3076028002541733  1.0000
  O   O6        1.0  0.5176551387295946  0.988070664195959  0.6924466509639372  1.0000
  O   O7        1.0  0.9584146068854196  0.26052331452533656  0.5801657060345278  1.0000
  O   O8        1.0  0.04118813208366841  0.7605854537276288  0.42002871438731393  1.0000
  O   O9        1.0  0.627542407323638  0.9897391065124669  0.3839284576828135  1.0000
  O   O10       1.0  0.3725473152738772  0.4895847315632411  0.6159564202497021  1.0000
  O   O11       1.0  0.49460295894211  0.20894930679783394  0.4526843743143516  1.0000
  O   O12       1.0  0.5051159668218972  0.7088183199158422  0.5473120263956588  1.0000
