data_image0
_chemical_formula_structural       La2H14C4S2O16
_chemical_formula_sum              "La2 H14 C4 S2 O16"
_cell_length_a       6.865346354373355
_cell_length_b       7.046606049182126
_cell_length_c       8.742953601742887
_cell_angle_alpha    111.32835994687463
_cell_angle_beta     89.17671026626873
_cell_angle_gamma    107.80381435281932

_space_group_name_H-M_alt    "P 1"
_space_group_IT_number       1

loop_
  _space_group_symop_operation_xyz
  'x, y, z'

loop_
  _atom_site_type_symbol
  _atom_site_label
  _atom_site_symmetry_multiplicity
  _atom_site_fract_x
  _atom_site_fract_y
  _atom_site_fract_z
  _atom_site_occupancy
  La  La1       1.0  0.8764264621474281  0.6451071353964508  0.8637519564783462  1.0000
  La  La2       1.0  0.12357327173867108  0.3548930284266376  0.1362495592821915  1.0000
  H   H1        1.0  0.0760531777574656  0.982489887971866  0.7039255143950599  1.0000
  H   H2        1.0  0.9239451159848071  0.0175102451208602  0.2960737110294289  1.0000
  H   H3        1.0  0.591887908708337  0.30945229991957046  0.5455010905395312  1.0000
  H   H4        1.0  0.4081147638976788  0.6905478195748957  0.4544969684470531  1.0000
  H   H5        1.0  0.5100499966611238  0.16968656444345237  0.25247266721796546  1.0000
  H   H6        1.0  0.4899497053442446  0.8303087714441733  0.747527476064498  1.0000
  H   H7        1.0  0.8912559827031501  0.8011009504693548  0.5687518783473422  1.0000
  H   H8        1.0  0.10874230269165958  0.19889919773613227  0.4312484952837181  1.0000
  H   H9        1.0  0.5720994087687004  0.9250848554962161  0.1777152752124067  1.0000
  H   H10       1.0  0.427896900014261  0.07490883967611241  0.822282128344128  1.0000
  H   H11       1.0  0.8169030883048904  0.30161322444824623  0.48951377940773005  1.0000
  H   H12       1.0  0.18309858347399902  0.698383691198785  0.5104845168514559  1.0000
  H   H13       1.0  0.4212131908739564  0.9700504829092367  0.3440383912745375  1.0000
  H   H14       1.0  0.5787865194788822  0.029944837865628005  0.6559606038013471  1.0000
  C   C1        1.0  0.2646287069509299  0.884515615334827  0.11099696185613071  1.0000
  C   C2        1.0  0.7353720042290276  0.11548290928747211  0.8890017959471523  1.0000
  C   C3        1.0  0.4541180445209605  0.998273444719608  0.22955820194769666  1.0000
  C   C4        1.0  0.5458807052329461  0.0017234850305172056  0.7704412546722852  1.0000
  S   S1        1.0  0.29477119809482133  0.3926997544253014  0.7370016802337248  1.0000
  S   S2        1.0  0.7052290722593  0.6073068317005835  0.2630005152652899  1.0000
  O   O1        1.0  0.15812251089384693  0.5162455396338004  0.7282499480018957  1.0000
  O   O2        1.0  0.8418826596062347  0.48376259703564284  0.27174809190646704  1.0000
  O   O3        1.0  0.5006308862202999  0.5431809852787525  0.821585721501272  1.0000
  O   O4        1.0  0.49936790376180074  0.4568207572940749  0.17841395939019827  1.0000
  O   O5        1.0  0.2054723296549881  0.25302614865339734  0.8327483841466901  1.0000
  O   O6        1.0  0.7945235785303311  0.7469804208452188  0.16725268137707158  1.0000
  O   O7        1.0  0.3147282930017496  0.25282781204634125  0.5667642864206073  1.0000
  O   O8        1.0  0.6852748508016901  0.7471739622665154  0.4332376726526945  1.0000
  O   O9        1.0  0.18729778304298614  0.9828166360853035  0.042874791495684385  1.0000
  O   O10       1.0  0.8127039039216937  0.017185137722719908  0.9571271736547334  1.0000
  O   O11       1.0  0.17562317964399907  0.6831010922463959  0.07459687811636674  1.0000
  O   O12       1.0  0.8243804300276808  0.31689257522459263  0.9253981986414673  1.0000
  O   O13       1.0  0.7407404417693256  0.3612824658977302  0.5816973775798362  1.0000
  O   O14       1.0  0.2592627521189144  0.6387192177385544  0.41829769225399377  1.0000
  O   O15       1.0  0.005296178086034274  0.8246428631548781  0.6506377930656058  1.0000
  O   O16       1.0  0.9947050460286847  0.1753572407219934  0.3493591237915013  1.0000
