data_image0
_chemical_formula_structural       Cu2H20C14N10Cl2O10
_chemical_formula_sum              "Cu2 H20 C14 N10 Cl2 O10"
_cell_length_a       6.98744985437757
_cell_length_b       9.083006652135376
_cell_length_c       11.33570263702064
_cell_angle_alpha    112.75757535613802
_cell_angle_beta     108.48914691927537
_cell_angle_gamma    99.13344584354923

_space_group_name_H-M_alt    "P 1"
_space_group_IT_number       1

loop_
  _space_group_symop_operation_xyz
  'x, y, z'

loop_
  _atom_site_type_symbol
  _atom_site_label
  _atom_site_symmetry_multiplicity
  _atom_site_fract_x
  _atom_site_fract_y
  _atom_site_fract_z
  _atom_site_occupancy
  Cu  Cu1       1.0  0.3191736044863731  0.3557039554721796  0.7851301661446255  1.0000
  Cu  Cu2       1.0  0.680832179392496  0.6442983103959107  0.21487277039884836  1.0000
  H   H1        1.0  0.08106838513377568  0.22802498549701505  0.12052783342035404  1.0000
  H   H2        1.0  0.9189283322340102  0.7719772367303502  0.8794734975555653  1.0000
  H   H3        1.0  0.18327312793709172  0.06862447480706624  0.9462925676925874  1.0000
  H   H4        1.0  0.8167182920236654  0.9313799881699721  0.05370578846019928  1.0000
  H   H5        1.0  0.3757589304369588  0.032683177249687397  0.07021486409445997  1.0000
  H   H6        1.0  0.6242307498654039  0.9673134967590679  0.9297784122266814  1.0000
  H   H7        1.0  0.03138404222252686  0.42124293309723254  0.27518235064032115  1.0000
  H   H8        1.0  0.9686201464092856  0.578759243271463  0.7248193965785102  1.0000
  H   H9        1.0  0.9400954876140089  0.37689479814379456  0.39090806316595195  1.0000
  H   H10       1.0  0.05990986876086862  0.6231100591980901  0.6090963882583365  1.0000
  H   H11       1.0  0.8712234595265187  0.21094585044628625  0.22056855816342136  1.0000
  H   H12       1.0  0.12877628001162825  0.7890563863279848  0.7794333080016782  1.0000
  H   H13       1.0  0.7743180107721769  0.09082045378199405  0.43037044734376906  1.0000
  H   H14       1.0  0.2256754558520413  0.9091739722036322  0.5696255362059188  1.0000
  H   H15       1.0  0.7804315425038693  0.16320382322673765  0.601177901784595  1.0000
  H   H16       1.0  0.21956586154814037  0.8367930516011621  0.3988185559695976  1.0000
  H   H17       1.0  0.2075225448075314  0.4416823009305161  0.9820397853938158  1.0000
  H   H18       1.0  0.7925036473301644  0.5583177969224378  0.017968801918698235  1.0000
  H   H19       1.0  0.24212955076567497  0.5887522829623035  0.9397849213391534  1.0000
  H   H20       1.0  0.7578707965564175  0.41124375928154666  0.06021624988175486  1.0000
  C   C1        1.0  0.2888449311681426  0.21329025558245712  0.2841482060880692  1.0000
  C   C2        1.0  0.7111500345850386  0.7867079451851351  0.7158490685796647  1.0000
  C   C3        1.0  0.25774135714917884  0.3108725783800991  0.5050031361987164  1.0000
  C   C4        1.0  0.7422596529447247  0.689125651481305  0.4949952088473849  1.0000
  C   C5        1.0  0.4404005243532082  0.2581176366961698  0.552913163110169  1.0000
  C   C6        1.0  0.5596014009981399  0.7418830274606019  0.4470851209512501  1.0000
  C   C7        1.0  0.5424124359675415  0.19242837251439934  0.4600504497251803  1.0000
  C   C8        1.0  0.4575825417418498  0.8075660607446834  0.539945801419094  1.0000
  C   C9        1.0  0.30387622142464465  0.12653692684043688  0.055356945474066756  1.0000
  C   C10       1.0  0.6961181485008009  0.8734637009490664  0.9446400006143986  1.0000
  C   C11       1.0  0.4710140344051012  0.2727991773508406  0.07237220640271852  1.0000
  C   C12       1.0  0.5289790769207909  0.7272016898430278  0.9276272372812924  1.0000
  C   C13       1.0  0.9961898364871826  0.325818724701797  0.3089144139136123  1.0000
  C   C14       1.0  0.00381031859874528  0.6741846881071892  0.6910869608941324  1.0000
  N   N1        1.0  0.46375565542968616  0.17435148574338644  0.3287157678610483  1.0000
  N   N2        1.0  0.5362394064415807  0.825643029741627  0.6712814050132747  1.0000
  N   N3        1.0  0.18808459704523264  0.2867098885641821  0.3675053504943973  1.0000
  N   N4        1.0  0.8119169127583346  0.713289599557882  0.6324934249243908  1.0000
  N   N5        1.0  0.19983138578707832  0.1806125570449878  0.14898021146684204  1.0000
  N   N6        1.0  0.8001667585040122  0.819389590229889  0.8510204653736221  1.0000
  N   N7        1.0  0.49518770065822054  0.2713519028919079  0.6828673189835184  1.0000
  N   N8        1.0  0.5048148927265286  0.728650183977393  0.31713323891067785  1.0000
  N   N9        1.0  0.7129017992555899  0.14732969619271324  0.5010370119242608  1.0000
  N   N10       1.0  0.2870957009144987  0.8526634933526152  0.4989593440365139  1.0000
  Cl  Cl1       1.0  0.11304499075423274  0.09060203530526675  0.7146806971336799  1.0000
  Cl  Cl2       1.0  0.8869577776488882  0.9093972134124327  0.28531558068956286  1.0000
  O   O1        1.0  0.6166781391748087  0.24078555007575622  0.03449546566950794  1.0000
  O   O2        1.0  0.3833107822376574  0.7592126215980171  0.9655007386198586  1.0000
  O   O3        1.0  0.4436807033858867  0.41784561951417487  0.12123991952829263  1.0000
  O   O4        1.0  0.5563207036049888  0.5821605564939388  0.8787650812149504  1.0000
  O   O5        1.0  0.16593467107512075  0.37434631183655387  0.5799909313757963  1.0000
  O   O6        1.0  0.8340698489425974  0.6256569583409258  0.4200094027556317  1.0000
  O   O7        1.0  0.6518750775021829  0.23425385805844454  0.7399735588901989  1.0000
  O   O8        1.0  0.3481284430962217  0.765746895597722  0.2600259144958627  1.0000
  O   O9        1.0  0.16265408904298778  0.46370136466990153  0.9007373830518259  1.0000
  O   O10       1.0  0.8373547342240354  0.5362963833315602  0.09927016516494538  1.0000
