data_image0
_chemical_formula_structural       Li16H16C16O32
_chemical_formula_sum              "Li16 H16 C16 O32"
_cell_length_a       8.52991504117745
_cell_length_b       8.529911029585476
_cell_length_c       13.509466162611037
_cell_angle_alpha    97.45777856153717
_cell_angle_beta     97.45776278501059
_cell_angle_gamma    90.11623860020029

_space_group_name_H-M_alt    "P 1"
_space_group_IT_number       1

loop_
  _space_group_symop_operation_xyz
  'x, y, z'

loop_
  _atom_site_type_symbol
  _atom_site_label
  _atom_site_symmetry_multiplicity
  _atom_site_fract_x
  _atom_site_fract_y
  _atom_site_fract_z
  _atom_site_occupancy
  Li  Li1       1.0  0.8278755062601206  0.16598717886785863  0.9940156430515048  1.0000
  Li  Li2       1.0  0.8340117793165831  0.17212505235189474  0.5059836981243608  1.0000
  Li  Li3       1.0  0.1721264229425756  0.8340122779817919  0.005983378997427744  1.0000
  Li  Li4       1.0  0.16598778528897642  0.8278744033917532  0.4940158704153462  1.0000
  Li  Li5       1.0  0.894406896793747  0.9424469454536748  0.8409674335825844  1.0000
  Li  Li6       1.0  0.05755223211617991  0.10559228996829972  0.659031861352368  1.0000
  Li  Li7       1.0  0.10559266781181259  0.057552510289973206  0.15903213495712276  1.0000
  Li  Li8       1.0  0.9424485149659461  0.8944071665065325  0.34096854430368523  1.0000
  Li  Li9       1.0  0.2750519910064071  0.3909886470726535  0.7507245569321059  1.0000
  Li  Li10      1.0  0.6090106511463346  0.7249483768828499  0.7492755894327134  1.0000
  Li  Li11      1.0  0.7249487559570583  0.60901080928339  0.2492751084827988  1.0000
  Li  Li12      1.0  0.39098891345922493  0.2750510788607984  0.2507239791070007  1.0000
  Li  Li13      1.0  0.40952630487539216  0.6029162278659472  0.9115819981723876  1.0000
  Li  Li14      1.0  0.3970840879241777  0.5904733957672335  0.5884181821326424  1.0000
  Li  Li15      1.0  0.5904720995827333  0.39708440994881034  0.0884183123844764  1.0000
  Li  Li16      1.0  0.6029166810124168  0.40952724303473087  0.4115808416922918  1.0000
  H   H1        1.0  0.10655600639331202  0.3552977545578316  0.9226407481950151  1.0000
  H   H2        1.0  0.6447023633186646  0.8934457168753698  0.5773588450699381  1.0000
  H   H3        1.0  0.8934447408074889  0.644701702035796  0.0773603977021864  1.0000
  H   H4        1.0  0.3552984056179299  0.10655492192659473  0.4226401787549962  1.0000
  H   H5        1.0  0.0127240537385873  0.6565273086119491  0.7346870837009692  1.0000
  H   H6        1.0  0.3434721592762315  0.9872752421261665  0.7653122843384852  1.0000
  H   H7        1.0  0.987276715198014  0.3434733301900153  0.26531194012396503  1.0000
  H   H8        1.0  0.6565274053293281  0.012724213617481397  0.23468728420122897  1.0000
  H   H9        1.0  0.1281760863994066  0.40192849314474444  0.46952044214665284  1.0000
  H   H10       1.0  0.5980710377240898  0.8718240995582321  0.030478684908381147  1.0000
  H   H11       1.0  0.8718246384722619  0.5980697806465898  0.5304791246170597  1.0000
  H   H12       1.0  0.4019285267628021  0.12817535606662742  0.9695201433901774  1.0000
  H   H13       1.0  0.6244960205778227  0.22372507072076792  0.8113981568915352  1.0000
  H   H14       1.0  0.7762779332013637  0.375502768778432  0.6886013884135738  1.0000
  H   H15       1.0  0.3755035882113376  0.7762767501522988  0.18860160895054895  1.0000
  H   H16       1.0  0.2237228137621017  0.6244966875776115  0.31139827700132383  1.0000
  C   C1        1.0  0.06679174615352682  0.2513294870504979  0.8662785757139492  1.0000
  C   C2        1.0  0.74866986249922  0.9332085795980947  0.6337215760551518  1.0000
  C   C3        1.0  0.9332101834051727  0.7486699701555255  0.13372266705844993  1.0000
  C   C4        1.0  0.25132851986710847  0.06679087565194661  0.3662786358505201  1.0000
  C   C5        1.0  0.09654981330426439  0.681627108747172  0.8053594164887274  1.0000
  C   C6        1.0  0.3183725313990776  0.9034506998719182  0.694640801584548  1.0000
  C   C7        1.0  0.9034474307690985  0.31837471090110364  0.19464015560297554  1.0000
  C   C8        1.0  0.6816258950321838  0.09655112038875302  0.30535886738234563  1.0000
  C   C9        1.0  0.1448736701533733  0.35568077792184744  0.5432589854847836  1.0000
  C   C10       1.0  0.6443174622622507  0.8551271111287094  0.9567418547436974  1.0000
  C   C11       1.0  0.8551294639736895  0.644319862580069  0.45674319305513944  1.0000
  C   C12       1.0  0.3556821468829128  0.14487471010072991  0.04326013182184601  1.0000
  C   C13       1.0  0.5832034791712603  0.30867335134571044  0.8718844014955639  1.0000
  C   C14       1.0  0.6913238707457268  0.41679879651501756  0.6281149643874999  1.0000
  C   C15       1.0  0.416799610297538  0.6913249235516261  0.12811461877737435  1.0000
  C   C16       1.0  0.3086757163076399  0.5832018421497196  0.3718869235268515  1.0000
  O   O1        1.0  0.962478746373648  0.160400888471564  0.8875208906573065  1.0000
  O   O2        1.0  0.839601694440269  0.0375213119185247  0.6124786968754423  1.0000
  O   O3        1.0  0.037522022562946206  0.8395997503304004  0.11247813316762745  1.0000
  O   O4        1.0  0.16040025697289914  0.9624793276146235  0.3875211640658379  1.0000
  O   O5        1.0  0.7655859952938827  0.8700458825964362  0.714381825309012  1.0000
  O   O6        1.0  0.1299556328987634  0.23441331193363624  0.7856176747727164  1.0000
  O   O7        1.0  0.2344124090455821  0.12995475509952573  0.2856177450066896  1.0000
  O   O8        1.0  0.8700475009909713  0.7655873283307033  0.21438302328489575  1.0000
  O   O9        1.0  0.7490650853558165  0.9522783536398618  0.9431945287827691  1.0000
  O   O10       1.0  0.04772263934257379  0.2509355649215692  0.5568043049682532  1.0000
  O   O11       1.0  0.2509356614889811  0.047721102597392914  0.05680439639098011  1.0000
  O   O12       1.0  0.9522781077395595  0.7490638915532699  0.4431961006877999  1.0000
  O   O13       1.0  0.0658140173017685  0.7982730573981486  0.8678884151788541  1.0000
  O   O14       1.0  0.2017272360838405  0.9341857130617157  0.6321110620627125  1.0000
  O   O15       1.0  0.9341867295430221  0.20172639883910656  0.13211050999488805  1.0000
  O   O16       1.0  0.7982735109982855  0.06581374341311631  0.3678893435933405  1.0000
  O   O17       1.0  0.4655888089201099  0.39229239941138877  0.8478027963646328  1.0000
  O   O18       1.0  0.60770841338271  0.5344075814934968  0.6521971354785239  1.0000
  O   O19       1.0  0.5344084351532531  0.6077094202368869  0.1521967757270702  1.0000
  O   O20       1.0  0.39229233358075544  0.4655918748625468  0.34780252993638083  1.0000
  O   O21       1.0  0.26016573728452397  0.4130644019201385  0.6067606017846148  1.0000
  O   O22       1.0  0.586933207486311  0.7398342825660509  0.893238640063885  1.0000
  O   O23       1.0  0.739832644963137  0.5869350532111143  0.39323886987990164  1.0000
  O   O24       1.0  0.4130651304590812  0.26016280731698777  0.10675989405710604  1.0000
  O   O25       1.0  0.21404935220334662  0.5930227841641698  0.8169444035170204  1.0000
  O   O26       1.0  0.4069766459847415  0.7859481357368666  0.683054795421562  1.0000
  O   O27       1.0  0.7859525550262133  0.4069754902395601  0.18305526012188275  1.0000
  O   O28       1.0  0.5930240567951232  0.2140489554897584  0.3169446726909656  1.0000
  O   O29       1.0  0.34196894551899254  0.6870123765212384  0.040275695860536614  1.0000
  O   O30       1.0  0.31298788069582173  0.6580301746695413  0.4597234082325843  1.0000
  O   O31       1.0  0.6580330281046399  0.3129894456954149  0.959725003973077  1.0000
  O   O32       1.0  0.6870116616992734  0.341968098390609  0.5402753214147824  1.0000
