data_image0
_chemical_formula_structural       Ba2P2H6C4O12
_chemical_formula_sum              "Ba2 P2 H6 C4 O12"
_cell_length_a       4.762417647621415
_cell_length_b       7.427789749346498
_cell_length_c       8.44640776776105
_cell_angle_alpha    83.14074374617203
_cell_angle_beta     86.37707749060407
_cell_angle_gamma    78.72447233484446

_space_group_name_H-M_alt    "P 1"
_space_group_IT_number       1

loop_
  _space_group_symop_operation_xyz
  'x, y, z'

loop_
  _atom_site_type_symbol
  _atom_site_label
  _atom_site_symmetry_multiplicity
  _atom_site_fract_x
  _atom_site_fract_y
  _atom_site_fract_z
  _atom_site_occupancy
  Ba  Ba1       1.0  0.4935255149925197  0.3643294577508343  0.2718443531251468  1.0000
  Ba  Ba2       1.0  0.506473365571381  0.6356713963497852  0.7281552710589099  1.0000
  P   P1        1.0  0.9842276118426697  0.7307100610403763  0.11663026145743062  1.0000
  P   P2        1.0  0.015769586615078934  0.2692894035921896  0.8833695645308028  1.0000
  H   H1        1.0  0.547689097874468  0.8046708486534866  0.023394441853746194  1.0000
  H   H2        1.0  0.4523076812393754  0.19532999701210227  0.9766052609937291  1.0000
  H   H3        1.0  0.5416368586764053  0.8850651118579264  0.34158964969219613  1.0000
  H   H4        1.0  0.45836202951127103  0.1149357341383919  0.6584111589826167  1.0000
  H   H5        1.0  0.06627510812839431  0.0009326711775727998  0.22422539067878236  1.0000
  H   H6        1.0  0.9337241917794048  0.9990668018900163  0.7757743566460322  1.0000
  C   C1        1.0  0.9435728621281504  0.8937441048070125  0.2706975650745136  1.0000
  C   C2        1.0  0.05642601843575083  0.1062567492936068  0.7293020591095358  1.0000
  C   C3        1.0  0.08288875093362691  0.789889757032583  0.42195753707727596  1.0000
  C   C4        1.0  0.9171143172828166  0.2101111301466858  0.5780395607984307  1.0000
  O   O1        1.0  0.7519396709081507  0.8223811108144261  0.9889900044845992  1.0000
  O   O2        1.0  0.24805710820569976  0.17761973485116295  0.011009698362869403  1.0000
  O   O3        1.0  0.9286242868222775  0.5471273376489589  0.1991491646093381  1.0000
  O   O4        1.0  0.071374601365399  0.45287350834735907  0.8008516440654818  1.0000
  O   O5        1.0  0.27931167983217625  0.7175521463317551  0.032501753247331115  1.0000
  O   O6        1.0  0.7206872083554999  0.28244869966457026  0.9674990554274818  1.0000
  O   O7        1.0  0.6543599334639439  0.9809918597986209  0.29651874385855603  1.0000
  O   O8        1.0  0.3456410485500001  0.0190090027370289  0.7034808016620817  1.0000
  O   O9        1.0  0.3510435187061206  0.7155861171804999  0.40598080563223266  1.0000
  O   O10       1.0  0.6489557812016785  0.2844133558870893  0.594018941692582  1.0000
  O   O11       1.0  0.9385591814281967  0.778306912342984  0.550983176582527  1.0000
  O   O12       1.0  0.06143761293320444  0.22169391711401687  0.4490188952464608  1.0000
