data_image0
_chemical_formula_structural       Zn4H50C74N16
_chemical_formula_sum              "Zn4 H50 C74 N16"
_cell_length_a       19.965059919945638
_cell_length_b       19.870692949024367
_cell_length_c       19.836835167867857
_cell_angle_alpha    105.03976307564483
_cell_angle_beta     110.52538285114369
_cell_angle_gamma    113.24625973257456

_space_group_name_H-M_alt    "P 1"
_space_group_IT_number       1

loop_
  _space_group_symop_operation_xyz
  'x, y, z'

loop_
  _atom_site_type_symbol
  _atom_site_label
  _atom_site_symmetry_multiplicity
  _atom_site_fract_x
  _atom_site_fract_y
  _atom_site_fract_z
  _atom_site_occupancy
  Zn  Zn1       1.0  0.8945232443101292  0.8918700143019364  0.501850978268962  1.0000
  Zn  Zn2       1.0  0.12208181489761205  0.1176083758178378  0.5012025355606794  1.0000
  Zn  Zn3       1.0  0.10293274773051296  0.010323951103764262  0.6024976410614257  1.0000
  Zn  Zn4       1.0  0.9142921544385842  0.9988437773589778  0.4013403072162517  1.0000
  H   H1        1.0  0.1385921149330045  0.6307628544572879  0.4500914762823029  1.0000
  H   H2        1.0  0.7246309309049084  0.8760309211307558  0.23678048088302717  1.0000
  H   H3        1.0  0.8645140490682837  0.9952615849773848  0.6285458567525808  1.0000
  H   H4        1.0  0.3108824530130858  0.14861878496966324  0.5210321884777968  1.0000
  H   H5        1.0  0.8629634436701111  0.11913029715392294  0.33321015740306587  1.0000
  H   H6        1.0  0.1423586681307754  0.8923643415701006  0.5007543557608185  1.0000
  H   H7        1.0  0.14325302913935894  0.9825248270026062  0.7657147317393507  1.0000
  H   H8        1.0  0.8823740786946743  0.8510165283515718  0.2511829375248809  1.0000
  H   H9        1.0  0.7270393957749303  0.15980906241635015  0.7500358623466068  1.0000
  H   H10       1.0  0.502894674069104  0.05082835012286309  0.4713024844888522  1.0000
  H   H11       1.0  0.8386166406536546  0.7266457659023542  0.600938801180703  1.0000
  H   H12       1.0  0.858741504631034  0.3694542026195577  0.3071987296403123  1.0000
  H   H13       1.0  0.8311512066256769  0.7985701725356619  0.6674741646011029  1.0000
  H   H14       1.0  0.8024556201529122  0.7871649525001628  0.5675472654024744  1.0000
  H   H15       1.0  0.20923805414253138  0.027595227003040176  0.3659844118349368  1.0000
  H   H16       1.0  0.15966755177147715  0.053136059748936745  0.29216219316246134  1.0000
  H   H17       1.0  0.20039121032295518  0.11483435612595365  0.39646307812741804  1.0000
  H   H18       1.0  0.6471053220973885  0.2409230293079146  0.695099713679383  1.0000
  H   H19       1.0  0.5830391287732793  0.9698824199634187  0.5261308403473136  1.0000
  H   H20       1.0  0.5655506876882795  0.01056223711587717  0.6650045160567472  1.0000
  H   H21       1.0  0.6644173954910426  0.20015142449498297  0.5561928748627095  1.0000
  H   H22       1.0  0.15953614850831602  0.4596332997318697  0.4252813704187303  1.0000
  H   H23       1.0  0.8834742807631528  0.753904202323781  0.8540648583015197  1.0000
  H   H24       1.0  0.2106237638998108  0.5661299719876209  0.49323451904572113  1.0000
  H   H25       1.0  0.15359372549949765  0.48719838626270456  0.5140063958283818  1.0000
  H   H26       1.0  0.8400841691181284  0.5109463823289032  0.24332713027466454  1.0000
  H   H27       1.0  0.786472232791482  0.4351623858475334  0.2689342249121509  1.0000
  H   H28       1.0  0.8402492170558062  0.542734221549935  0.33508147343662387  1.0000
  H   H29       1.0  0.4236809243575338  0.5697802838196964  0.2130258800181933  1.0000
  H   H30       1.0  0.3826493278854173  0.46215627524178865  0.16162374724171968  1.0000
  H   H31       1.0  0.4889752570801633  0.5375015569499267  0.19490136246285047  1.0000
  H   H32       1.0  0.24299082705291386  0.5093774210118125  0.8267952449556473  1.0000
  H   H33       1.0  0.34586707714665704  0.5966271741813853  0.8670857049170236  1.0000
  H   H34       1.0  0.14891139489849795  0.9469644474150414  0.12273889918277793  1.0000
  H   H35       1.0  0.32096932081944357  0.49440982210859363  0.8165458722228179  1.0000
  H   H36       1.0  0.2954328391200178  0.39631278744786863  0.017634373336626753  1.0000
  H   H37       1.0  0.43989738983250953  0.6586926342387115  0.008262338611110871  1.0000
  H   H38       1.0  0.8922276956715294  0.13808373811360744  0.4968794143145985  1.0000
  H   H39       1.0  0.28843935411033766  0.022217307117884284  0.6670347018552077  1.0000
  H   H40       1.0  0.16220379900967433  0.3387958761933376  0.6302382149726852  1.0000
  H   H41       1.0  0.2621207623691573  0.36693755309457265  0.7065324202815899  1.0000
  H   H42       1.0  0.2215519238220123  0.3013619606290019  0.603394925918323  1.0000
  H   H43       1.0  0.627995712470394  0.7378876810974971  0.39965209611965224  1.0000
  H   H44       1.0  0.6330912886486714  0.6622458388353037  0.33488229422828647  1.0000
  H   H45       1.0  0.881496472658405  0.7603902858352283  0.9799531456438328  1.0000
  H   H46       1.0  0.7208966829737947  0.7339771664236708  0.43536944300447533  1.0000
  H   H47       1.0  0.1507621237322991  0.9407136369656326  0.9968399587131386  1.0000
  H   H48       1.0  0.13550123312537465  0.287033613374028  0.47556532005265945  1.0000
  H   H49       1.0  0.8679150862684891  0.7348954806389117  0.3706738553914377  1.0000
  H   H50       1.0  0.10680808673836113  0.13097004060250558  0.7516066403080753  1.0000
  C   C1        1.0  0.9362054048993826  0.8532060389491104  0.650315746460599  1.0000
  C   C2        1.0  0.5962080180430503  0.029809670265876793  0.5637276403343847  1.0000
  C   C3        1.0  0.676670942834768  0.13552327008118686  0.6881137180883882  1.0000
  C   C4        1.0  0.5535500047992912  0.0752422358140876  0.533139250969306  1.0000
  C   C5        1.0  0.8114067269721444  0.10781165220503637  0.5973872085205727  1.0000
  C   C6        1.0  0.4057811352732017  0.08716001932202747  0.6057709494246666  1.0000
  C   C7        1.0  0.6418764448614523  0.15803878823888315  0.580400363600816  1.0000
  C   C8        1.0  0.588232763181544  0.052735542714969996  0.6408921492399812  1.0000
  C   C9        1.0  0.6867428645059447  0.1129160580989391  0.6109647848084734  1.0000
  C   C10       1.0  0.5433727755953086  0.09786002739075174  0.6102721432515921  1.0000
  C   C11       1.0  0.7576609017129384  0.11585737591977359  0.6077878111050197  1.0000
  C   C12       1.0  0.08347995403197928  0.9984384804150962  0.3382074664457874  1.0000
  C   C13       1.0  0.4693482234542187  0.0909114754873882  0.6086288428359977  1.0000
  C   C14       1.0  0.0773899193076345  0.5727221913841731  0.41821952859694267  1.0000
  C   C15       1.0  0.9199793754604143  0.42724913387985464  0.33798226817388877  1.0000
  C   C16       1.0  0.0706164488028164  0.2348010559162929  0.4432024850245994  1.0000
  C   C17       1.0  0.9341258056618145  0.7850040883447206  0.40801846282372617  1.0000
  C   C18       1.0  0.003279846612293916  0.5725420145271299  0.37797826769564563  1.0000
  C   C19       1.0  0.9939956314404415  0.4278017090182544  0.3793065718458736  1.0000
  C   C20       1.0  0.9227032153106051  0.49780659729402993  0.33643349794415656  1.0000
  C   C21       1.0  0.07463221292911726  0.5023024930191013  0.420219338584836  1.0000
  C   C22       1.0  0.008406808323357377  0.6470633516788096  0.3838103877640646  1.0000
  C   C23       1.0  0.9955049711588017  0.23122879981519162  0.3985095248177686  1.0000
  C   C24       1.0  0.989107988570396  0.35571536284744804  0.38186182445052447  1.0000
  C   C25       1.0  0.9895210106892093  0.2961084584257917  0.38762530493370656  1.0000
  C   C26       1.0  0.009826853666282834  0.7112719703475817  0.39557010734694115  1.0000
  C   C27       1.0  0.3273963583030551  0.4546068402591247  0.016462864039290512  1.0000
  C   C28       1.0  0.4072787513931715  0.6006019756514789  0.009540083053394688  1.0000
  C   C29       1.0  0.3011640003247178  0.45474265224243005  0.9405015170482682  1.0000
  C   C30       1.0  0.43716975495232197  0.5990951413105847  0.0846399155710173  1.0000
  C   C31       1.0  0.34010059243825447  0.5303346397538036  0.9374623030323261  1.0000
  C   C32       1.0  0.3942363642790525  0.5250083742146427  0.08858574785982394  1.0000
  C   C33       1.0  0.24187691588817  0.3795339302560094  0.867856716375911  1.0000
  C   C34       1.0  0.007092581471468399  0.7827498521763587  0.4201395813928457  1.0000
  C   C35       1.0  0.5128333953205342  0.6686928145525498  0.15410985976496505  1.0000
  C   C36       1.0  0.5830028428250243  0.7242604937649161  0.2121687044320025  1.0000
  C   C37       1.0  0.19960001921741344  0.31426343337077595  0.8053787551604896  1.0000
  C   C38       1.0  0.9404593029025319  0.7994026416633201  0.9833622493752611  1.0000
  C   C39       1.0  0.0920532711930376  0.901002906032552  0.9934484331443654  1.0000
  C   C40       1.0  0.12146534461424333  0.15937739087551941  0.7146103188474341  1.0000
  C   C41       1.0  0.7288046803113063  0.8534688282583502  0.28151263407745114  1.0000
  C   C42       1.0  0.014519542617115706  0.855876143650782  0.06044448311426011  1.0000
  C   C43       1.0  0.016692296674790105  0.8487008450811543  0.9167451736370392  1.0000
  C   C44       1.0  0.09097930907445574  0.9044419017775026  0.06369414226178802  1.0000
  C   C45       1.0  0.16110809549239472  0.24330033955902036  0.7325883175958336  1.0000
  C   C46       1.0  0.9415715258191356  0.7958775027266256  0.9130571881281  1.0000
  C   C47       1.0  0.011853360407599172  0.8693410376621528  0.1327669586810174  1.0000
  C   C48       1.0  0.015516607474019372  0.854270691707775  0.8468161367984024  1.0000
  C   C49       1.0  0.014238398441101105  0.8671383722696857  0.7894975930049382  1.0000
  C   C50       1.0  0.009204286015048538  0.8897554390153174  0.195055113280709  1.0000
  C   C51       1.0  0.8919711005576331  0.09713359970172067  0.5240420931935788  1.0000
  C   C52       1.0  0.28118696348041516  0.05306993859541345  0.6295798516557196  1.0000
  C   C53       1.0  0.16405931662588086  0.24333731992026483  0.6621082163255066  1.0000
  C   C54       1.0  0.7070380972734541  0.7846829154313183  0.35203015496166046  1.0000
  C   C55       1.0  0.8778996246386298  0.023962092446716137  0.5913112558380575  1.0000
  C   C56       1.0  0.6658499248858333  0.7840859841894243  0.2771438883250568  1.0000
  C   C57       1.0  0.29214666027051805  0.11759144885638755  0.5547941973935977  1.0000
  C   C58       1.0  0.931179564970826  0.14928808397719695  0.37031952665040535  1.0000
  C   C59       1.0  0.07458440103208376  0.8654424302928021  0.4745590227842412  1.0000
  C   C60       1.0  0.07591723043040574  0.9432520269316312  0.7210002076913893  1.0000
  C   C61       1.0  0.9477368355051466  0.9029144153120042  0.2875063886458734  1.0000
  C   C62       1.0  0.010046187383366397  0.8854466130901314  0.7249798115464896  1.0000
  C   C63       1.0  0.01224741191378337  0.9245007769957282  0.26821012281230583  1.0000
  C   C64       1.0  0.8474307446346924  0.7881706816881573  0.619884986022228  1.0000
  C   C65       1.0  0.1678515515079581  0.051272856696812065  0.3492597632634967  1.0000
  C   C66       1.0  0.15410641587909168  0.504411023940399  0.4656330261167766  1.0000
  C   C67       1.0  0.8614104093162992  0.0829880581445365  0.5763620687668976  1.0000
  C   C68       1.0  0.8428726811812481  0.49610478740360253  0.2935969661010701  1.0000
  C   C69       1.0  0.4234285795389994  0.5230065432932989  0.1684889592267281  1.0000
  C   C70       1.0  0.3112332635186587  0.5332745136790389  0.8580516050988433  1.0000
  C   C71       1.0  0.20408380321485695  0.31613094909887696  0.6494028682479109  1.0000
  C   C72       1.0  0.6706601544662049  0.7267027408623645  0.3821382354536025  1.0000
  C   C73       1.0  0.33229503205939176  0.08561973880367191  0.5981302173640017  1.0000
  C   C74       1.0  0.6337662620622666  0.18090618492318805  0.6575475008693772  1.0000
  N   N1        1.0  0.9578681236801143  0.8901366716453435  0.606821544404269  1.0000
  N   N2        1.0  0.7879191934689871  0.8493353600587665  0.39603327354991075  1.0000
  N   N3        1.0  0.9131193557967093  0.0036853447912861474  0.5494512627522995  1.0000
  N   N4        1.0  0.22338399126206077  0.10500122869670027  0.5599737415294611  1.0000
  N   N5        1.0  0.9656832217878561  0.10834339534722653  0.3961267884476029  1.0000
  N   N6        1.0  0.043408052139127795  0.9115726164093371  0.4942680209843714  1.0000
  N   N7        1.0  0.0444042729498758  0.9457074416853428  0.6504130066551495  1.0000
  N   N8        1.0  0.9780828514958345  0.9596027397380097  0.36253991809338254  1.0000
  N   N9        1.0  0.061240590717503006  0.01728259279386173  0.39363594734918905  1.0000
  N   N10       1.0  0.052399148873149684  0.16166924862978496  0.4416541304390691  1.0000
  N   N11       1.0  0.9573255942700458  0.8620707903769613  0.4533652631553267  1.0000
  N   N12       1.0  0.10301655775643319  0.11361054727631621  0.6399739188237418  1.0000
  N   N13       1.0  0.8013247869245745  0.8920803364929241  0.35250572733365704  1.0000
  N   N14       1.0  0.9218136553074601  0.04843269887685134  0.5080373644821918  1.0000
  N   N15       1.0  0.21657767063639707  0.06502900730760082  0.6066811385186738  1.0000
  N   N16       1.0  0.12837658190001366  0.1649597926803209  0.6077774570831735  1.0000
