data_image0
_chemical_formula_structural       Ag2B12H30C20N6
_chemical_formula_sum              "Ag2 B12 H30 C20 N6"
_cell_length_a       7.2055614870727345
_cell_length_b       9.678937776168054
_cell_length_c       11.226422704523621
_cell_angle_alpha    111.94643321283756
_cell_angle_beta     112.97918811604833
_cell_angle_gamma    89.06143664115254

_space_group_name_H-M_alt    "P 1"
_space_group_IT_number       1

loop_
  _space_group_symop_operation_xyz
  'x, y, z'

loop_
  _atom_site_type_symbol
  _atom_site_label
  _atom_site_symmetry_multiplicity
  _atom_site_fract_x
  _atom_site_fract_y
  _atom_site_fract_z
  _atom_site_occupancy
  Ag  Ag1       1.0  0.954814046964131  0.2570461659681484  0.3055409054081294  1.0000
  Ag  Ag2       1.0  0.045208664855863424  0.7429366229047503  0.6944502622961579  1.0000
  B   B1        1.0  0.2673811549339007  0.43938008421620367  0.47865440084513  1.0000
  B   B2        1.0  0.7326098878668501  0.5606181554598422  0.5213461473942614  1.0000
  B   B3        1.0  0.34652292407655233  0.3742626667203552  0.33854389632388393  1.0000
  B   B4        1.0  0.6534716762910475  0.6257377521615693  0.6614581924303379  1.0000
  B   B5        1.0  0.3003763960759754  0.5638130856334412  0.40247211928791404  1.0000
  B   B6        1.0  0.6996163761327522  0.43618624922233806  0.5975282983893492  1.0000
  B   B7        1.0  0.3880178045825175  0.6278474393264161  0.5876614827060819  1.0000
  B   B8        1.0  0.6119761359584003  0.37215073807276866  0.4123379311085671  1.0000
  B   B9        1.0  0.4849279786686721  0.4781069698164941  0.6386659648777877  1.0000
  B   B10       1.0  0.5150660606231411  0.5218911964291097  0.361335250575948  1.0000
  B   B11       1.0  0.45920805588455227  0.3208464317758413  0.4847492802748049  1.0000
  B   B12       1.0  0.5407850462375235  0.6791540238213117  0.5152524748722412  1.0000
  H   H1        1.0  0.6724240386033882  0.8567413486742762  0.8820797324363379  1.0000
  H   H2        1.0  0.3275674854318922  0.14326365216521714  0.11792850701459659  1.0000
  H   H3        1.0  0.8842717669646302  0.047416928939107116  0.4282879733965074  1.0000
  H   H4        1.0  0.11572636663427714  0.9525720408627335  0.5717173890207761  1.0000
  H   H5        1.0  0.783362415799111  0.7784150283982355  0.37899589171457376  1.0000
  H   H6        1.0  0.21663278863004357  0.22157632323832388  0.6210006685934245  1.0000
  H   H7        1.0  0.648066059813125  0.5897520263370879  0.12723184294627998  1.0000
  H   H8        1.0  0.3519161595866435  0.41024873088096564  0.8727603703942322  1.0000
  H   H9        1.0  0.6190896727876946  0.676898869030488  0.9386519024500328  1.0000
  H   H10       1.0  0.38090447387575904  0.32311407412642257  0.06134441322753045  1.0000
  H   H11       1.0  0.6531486884214954  0.9527718871998871  0.7341441240916139  1.0000
  H   H12       1.0  0.3468588193652876  0.047227108387637905  0.26585512555963925  1.0000
  H   H13       1.0  0.6997905644350338  0.1805563279706135  0.6889352349933943  1.0000
  H   H14       1.0  0.300229351590545  0.8194321691780146  0.3110625200578525  1.0000
  H   H15       1.0  0.8290532377144543  0.4325725184488718  0.8937735221414085  1.0000
  H   H16       1.0  0.17097013935813266  0.5674216428192124  0.1062099678040695  1.0000
  H   H17       1.0  0.9137936989283516  0.4424061090014462  0.1356903373116153  1.0000
  H   H18       1.0  0.08619916174237827  0.557603505392123  0.8642965610393387  1.0000
  H   H19       1.0  0.1049300148045447  0.4051071454141351  0.48318672626513853  1.0000
  H   H20       1.0  0.8950574547145604  0.5948900748349573  0.516807313192416  1.0000
  H   H21       1.0  0.23831445942546733  0.2865177384653421  0.22183374772122014  1.0000
  H   H22       1.0  0.7616768639131806  0.7134816275288712  0.7781672371684182  1.0000
  H   H23       1.0  0.15879051299608443  0.6090724228776522  0.33482420139407043  1.0000
  H   H24       1.0  0.8412037574581743  0.39092687526291303  0.6651765498903613  1.0000
  H   H25       1.0  0.31310201663949744  0.7220373580717946  0.6535179645359149  1.0000
  H   H26       1.0  0.6868975407895873  0.27796521445438316  0.346484196701219  1.0000
  H   H27       1.0  0.47240853150726975  0.4653575409053443  0.7374086646942002  1.0000
  H   H28       1.0  0.5275842900769092  0.5346417883736478  0.2625926538026063  1.0000
  H   H29       1.0  0.4280675761418847  0.19436740989908685  0.4740509950070474  1.0000
  H   H30       1.0  0.5719264631499283  0.8056307563465094  0.5259502204466882  1.0000
  C   C1        1.0  0.8300043840924188  0.9600791709326651  0.32175275994737956  1.0000
  C   C2        1.0  0.16999791752457574  0.039914225134595  0.6782559171047637  1.0000
  C   C3        1.0  0.77411365271152  0.8117583921199625  0.2946051034165365  1.0000
  C   C4        1.0  0.22588567674996088  0.18824870566371738  0.7054011732730243  1.0000
  C   C5        1.0  0.6979137497864369  0.7072186396159663  0.15397247360328942  1.0000
  C   C6        1.0  0.30207902561713235  0.29278635239226947  0.8460315953571039  1.0000
  C   C7        1.0  0.6813080670406321  0.7550136994541601  0.04930036525847464  1.0000
  C   C8        1.0  0.31869075391535506  0.24499679726884693  0.9507095902332663  1.0000
  C   C9        1.0  0.7436917397681099  0.9088402995148211  0.08645064197025205  1.0000
  C   C10       1.0  0.25631635119895435  0.09117110323501978  0.913561751814754  1.0000
  C   C11       1.0  0.7544520115618808  0.0799181486823173  0.9598137691638085  1.0000
  C   C12       1.0  0.2455519293329472  0.9200911417831675  0.04018627427186052  1.0000
  C   C13       1.0  0.7097482509132291  0.06381157685090239  0.8204815213857655  1.0000
  C   C14       1.0  0.29025044599253375  0.9361831193472552  0.17951071035049887  1.0000
  C   C15       1.0  0.7363372985506301  0.1899084325613174  0.7956975699753882  1.0000
  C   C16       1.0  0.2636742721136541  0.8100836861403095  0.20429589010538513  1.0000
  C   C17       1.0  0.8086758020326881  0.3306617065864188  0.9095671448268445  1.0000
  C   C18       1.0  0.19132669515853706  0.6693273003887298  0.09040982497420204  1.0000
  C   C19       1.0  0.8522380945607038  0.33644885336220653  0.04288611520603782  1.0000
  C   C20       1.0  0.14776447730529435  0.6635559597145927  0.957107677530942  1.0000
  N   N1        1.0  0.8185688823961285  0.009277785313066996  0.2213320199193305  1.0000
  N   N2        1.0  0.18144452378051304  0.9907289151120865  0.7786880690692827  1.0000
  N   N3        1.0  0.8255442023929048  0.21466906889438767  0.06944482586144561  1.0000
  N   N4        1.0  0.17445899883397684  0.7853424886154698  0.9305593605457004  1.0000
  N   N5        1.0  0.7203763263327897  0.948628810096068  0.9757113148959248  1.0000
  N   N6        1.0  0.27963169954402634  0.05138375800949291  0.024295209802524188  1.0000
