data_image0
_chemical_formula_structural       Cu2H16C18Br2N2O6
_chemical_formula_sum              "Cu2 H16 C18 Br2 N2 O6"
_cell_length_a       5.152013072599705
_cell_length_b       9.133270038704012
_cell_length_c       11.11396996664158
_cell_angle_alpha    71.57343466737119
_cell_angle_beta     85.05920777675723
_cell_angle_gamma    77.79530727914752

_space_group_name_H-M_alt    "P 1"
_space_group_IT_number       1

loop_
  _space_group_symop_operation_xyz
  'x, y, z'

loop_
  _atom_site_type_symbol
  _atom_site_label
  _atom_site_symmetry_multiplicity
  _atom_site_fract_x
  _atom_site_fract_y
  _atom_site_fract_z
  _atom_site_occupancy
  Cu  Cu1       1.0  0.7481915112223305  0.5305250423030685  0.5824874590591802  1.0000
  Cu  Cu2       1.0  0.25182646600261904  0.46945862164522373  0.4175246368184843  1.0000
  H   H1        1.0  0.46790708135487336  0.4501405350737571  0.9241084016459734  1.0000
  H   H2        1.0  0.5321225537911047  0.5498645975560806  0.07588329093159975  1.0000
  H   H3        1.0  0.9778476520124502  0.8698053412913183  0.486613131825301  1.0000
  H   H4        1.0  0.02214054816547419  0.13018518645681357  0.5133940130348335  1.0000
  H   H5        1.0  0.6354774273601934  0.9523161954856435  0.6353026833404554  1.0000
  H   H6        1.0  0.36451799652340355  0.04768631443802461  0.3646875805980584  1.0000
  H   H7        1.0  0.09465792999416327  0.6296273650018946  0.9512491109712825  1.0000
  H   H8        1.0  0.9053246198361292  0.3703902551641605  0.04875134676632341  1.0000
  H   H9        1.0  0.8178157940135334  0.18057530512167835  0.7261627459668105  1.0000
  H   H10       1.0  0.18220633484330762  0.8194238068816092  0.2738371153970292  1.0000
  H   H11       1.0  0.04857874399571931  0.1001043000658655  0.8538664909828949  1.0000
  H   H12       1.0  0.9514214347269389  0.8999017192043084  0.1461307646819137  1.0000
  H   H13       1.0  0.2906272546656936  0.1624357082297365  0.650018590356666  1.0000
  H   H14       1.0  0.7093709272518185  0.8375761622055933  0.3499808543980904  1.0000
  H   H15       1.0  0.3440710469702213  0.2815933299087305  0.7415933103823278  1.0000
  H   H16       1.0  0.6559445192964334  0.7184128855691725  0.25839602213367385  1.0000
  C   C1        1.0  0.4765808121650182  0.5061717902903312  0.8214449054586126  1.0000
  C   C2        1.0  0.5234198735170353  0.4938271690062096  0.17855233546432459  1.0000
  C   C3        1.0  0.26612215498197134  0.6335823936794825  0.7651301422086262  1.0000
  C   C4        1.0  0.7338850350827216  0.36641432526678136  0.2348601885495469  1.0000
  C   C5        1.0  0.24141553593205614  0.7073136926415414  0.6304913015415036  1.0000
  C   C6        1.0  0.7585833171181023  0.2926686744539993  0.36951656548673373  1.0000
  C   C7        1.0  0.0030271276643674735  0.8178075253500411  0.588385165440414  1.0000
  C   C8        1.0  0.9969353830302409  0.1821829645498596  0.411602419087309  1.0000
  C   C9        1.0  0.812247037098189  0.8640735670376642  0.6716548681401234  1.0000
  C   C10       1.0  0.18773928353761707  0.13594413340136668  0.32834000487147114  1.0000
  C   C11       1.0  0.8494317364404587  0.797062634945675  0.8028299039706113  1.0000
  C   C12       1.0  0.15058298008067084  0.20293525711331742  0.19716789504449386  1.0000
  C   C13       1.0  0.06925671920966185  0.6822358770957136  0.8492166125997398  1.0000
  C   C14       1.0  0.9307248624648993  0.3177569378342469  0.15079203651696096  1.0000
  C   C15       1.0  0.9697745826834917  0.20567302712532862  0.7765108743778409  1.0000
  C   C16       1.0  0.03023308445536097  0.7943341808680914  0.22349204757450267  1.0000
  C   C17       1.0  0.19452333361084587  0.26031434979708495  0.6871629447667401  1.0000
  C   C18       1.0  0.8054750738297688  0.7396915825050456  0.3128425091692789  1.0000
  Br  Br1       1.0  0.5938354386609677  0.8667399536495068  0.9180150047194928  1.0000
  Br  Br2       1.0  0.4061720720274309  0.1332507881372536  0.08198584014343879  1.0000
  N   N1        1.0  0.6713794190024771  0.4442751906814948  0.7591555516751851  1.0000
  N   N2        1.0  0.3286086845036921  0.5557046919142863  0.24085702168479625  1.0000
  O   O1        1.0  0.8449391163649553  0.31822904832969817  0.8407966627634734  1.0000
  O   O2        1.0  0.1550879210630711  0.6817841947566594  0.1592074647809197  1.0000
  O   O3        1.0  0.42100939488449274  0.6803410070452429  0.545232182719424  1.0000
  O   O4        1.0  0.5789756544208444  0.3196471733332872  0.45477120197455173  1.0000
  O   O5        1.0  0.09862499083766355  0.39524170708546796  0.5868336084119931  1.0000
  O   O6        1.0  0.9013703227907259  0.6047618544312812  0.413170788311966  1.0000
