data_image0
_chemical_formula_structural       Cd3H46C52N8O14
_chemical_formula_sum              "Cd3 H46 C52 N8 O14"
_cell_length_a       10.311741624
_cell_length_b       10.658946656996234
_cell_length_c       13.2908
_cell_angle_alpha    98.68301218492577
_cell_angle_beta     90.0
_cell_angle_gamma    118.92871548474835

_space_group_name_H-M_alt    "P 1"
_space_group_IT_number       1

loop_
  _space_group_symop_operation_xyz
  'x, y, z'

loop_
  _atom_site_type_symbol
  _atom_site_label
  _atom_site_symmetry_multiplicity
  _atom_site_fract_x
  _atom_site_fract_y
  _atom_site_fract_z
  _atom_site_occupancy
  Cd  Cd1       1.0  0.5035935753792486  3.2647317028e-06  0.5000003952708525  1.0000
  Cd  Cd2       1.0  0.7622232607496927  0.0664666727646548  0.298387253720314  1.0000
  Cd  Cd3       1.0  0.6957577637988878  0.933532618897388  0.7016139395993548  1.0000
  H   H1        1.0  0.04345467075002321  0.4349906757722692  0.403071921242791  1.0000
  H   H2        1.0  0.608460536128085  0.5650042629141723  0.5969272402487604  1.0000
  H   H3        1.0  0.6240842758145746  0.7233372211017226  0.9203315942378437  1.0000
  H   H4        1.0  0.9007463301213718  0.2766631588042259  0.07966822603845708  1.0000
  H   H5        1.0  0.23319361701597782  0.06047806657535661  0.2902367580714653  1.0000
  H   H6        1.0  0.17271034544182132  0.9395179603549835  0.7097625351770347  1.0000
  H   H7        1.0  0.25129055472836376  0.4589396593099623  0.2462399528513117  1.0000
  H   H8        1.0  0.7923450954353585  0.5410552793764793  0.7537637230411747  1.0000
  H   H9        1.0  0.6546087793271341  0.4343997593338145  0.2658626578934573  1.0000
  H   H10       1.0  0.22020608402459635  0.5656017088160326  0.7341365417396445  1.0000
  H   H11       1.0  0.5649988979902575  0.6304653983139517  0.16068466976815898  1.0000
  H   H12       1.0  0.9345313046393358  0.3695328051041926  0.8393156393943997  1.0000
  H   H13       1.0  0.4935001638095429  0.6819502172882963  0.2715114941012544  1.0000
  H   H14       1.0  0.8115487091860202  0.3180458096420438  0.7284877991472456  1.0000
  H   H15       1.0  0.6489417006923476  0.6034551846816711  0.41954390515370216  1.0000
  H   H16       1.0  0.045489710079984015  0.3965506364437772  0.580457326307517  1.0000
  H   H17       1.0  0.9176032785207866  0.7039697443888429  0.4122368737752069  1.0000
  H   H18       1.0  0.21363752635579664  0.2960371649805111  0.5877644894429608  1.0000
  H   H19       1.0  0.8913480259035396  0.8100397892125599  0.518052427023953  1.0000
  H   H20       1.0  0.08130978761771962  0.1899638554250913  0.4819500457236785  1.0000
  H   H21       1.0  0.9415655993507245  0.8790649233893646  0.4014147737477387  1.0000
  H   H22       1.0  0.0625022761723173  0.1209430742238951  0.5985889784278555  1.0000
  H   H23       1.0  0.2897441258333302  0.6387730522570934  0.5371885912398682  1.0000
  H   H24       1.0  0.6509700644793809  0.3612316806244564  0.4628155180650211  1.0000
  H   H25       1.0  0.22829816631772099  0.8483568569801889  0.312320505530721  1.0000
  H   H26       1.0  0.3799424858781322  0.1516456994135638  0.6876803306596458  1.0000
  H   H27       1.0  0.8917203745361276  0.5675376947165844  0.26956144507607144  1.0000
  H   H28       1.0  0.3241793323240785  0.4324615969454584  0.73043598624281  1.0000
  H   H29       1.0  0.957815131962775  0.44311115176437  0.2289798515995827  1.0000
  H   H30       1.0  0.5147016309302401  0.5568859634098686  0.771021078206182  1.0000
  H   H31       1.0  0.18676006600713183  0.5376773703065894  0.117726344852862  1.0000
  H   H32       1.0  0.6490790288129347  0.46231865662375077  0.882268433994696  1.0000
  H   H33       1.0  0.21551818645615128  0.8470585820058432  0.932185440052123  1.0000
  H   H34       1.0  0.368459051874396  0.1529385331684026  0.067812480153016  1.0000
  H   H35       1.0  0.025442279092018776  0.8796046923644453  0.02830845757600289  1.0000
  H   H36       1.0  0.1458334605922431  0.12039024632199609  0.9716914563157032  1.0000
  H   H37       1.0  0.9205824324899368  0.7479674453216774  0.1743369135350363  1.0000
  H   H38       1.0  0.1726063190560581  0.2520253168769599  0.8256634892429204  1.0000
  H   H39       1.0  0.31383721044695523  0.5628941579893976  0.9542183370893937  1.0000
  H   H40       1.0  0.7509440485427064  0.43710622191655085  0.0457784735862816  1.0000
  H   H41       1.0  0.34703832513748983  0.7088265769207069  0.8895855214161656  1.0000
  H   H42       1.0  0.6382108413148444  0.2911748912291401  0.11041066861631069  1.0000
  H   H43       1.0  0.4286983339702104  0.8682086022291813  0.1592721243068382  1.0000
  H   H44       1.0  0.5604918523024126  0.1317906894328615  0.8407260594122048  1.0000
  H   H45       1.0  0.8384280845045495  0.9041141215113554  0.0797989261315237  1.0000
  H   H46       1.0  0.9343075346647113  0.0958906113702014  0.9202051831733726  1.0000
  C   C1        1.0  0.11826179710400449  0.5503662941966923  0.40583003091391834  1.0000
  C   C2        1.0  0.567897894008901  0.449655850587277  0.5941746817018867  1.0000
  C   C3        1.0  0.6147214339583158  0.7759429312944874  0.9942760405312754  1.0000
  C   C4        1.0  0.838781793115011  0.2240672428065764  0.005732489559157704  1.0000
  C   C5        1.0  0.5354925914377233  0.1579825436513005  0.2895543320187102  1.0000
  C   C6        1.0  0.37750744230486794  0.8420200127424451  0.7104457517714948  1.0000
  C   C7        1.0  0.060405303942609095  0.1855434086976828  0.2651020611934385  1.0000
  C   C8        1.0  0.87485788899032  0.8144537064765629  0.7348988686123262  1.0000
  C   C9        1.0  0.45260447582312224  0.23844076825601948  0.2770674926509002  1.0000
  C   C10       1.0  0.21415951590630306  0.7615574351621248  0.7229313117113491  1.0000
  C   C11       1.0  0.2980312085558197  0.1726237771004833  0.2782517801251743  1.0000
  C   C12       1.0  0.12540391783226565  0.8273755145615596  0.7217479083941782  1.0000
  C   C13       1.0  0.22583735543403802  0.2518555508283384  0.2640657539504261  1.0000
  C   C14       1.0  0.9739760237480938  0.7481382996141974  0.7359332757841699  1.0000
  C   C15       1.0  0.3096343376229669  0.39805785424719176  0.253141841165835  1.0000
  C   C16       1.0  0.9115737623407372  0.6019392609270469  0.7468590886399299  1.0000
  C   C17       1.0  0.4643045033467743  0.46582389023009796  0.2543047652309127  1.0000
  C   C18       1.0  0.9984759044490376  0.5341754014319449  0.7456971804889106  1.0000
  C   C19       1.0  0.5341241362365353  0.3842099506021199  0.26487902394747204  1.0000
  C   C20       1.0  0.1499120912908296  0.6157915175477271  0.7351209280857843  1.0000
  C   C21       1.0  0.552937229231155  0.6233014887111636  0.2422021212921733  1.0000
  C   C22       1.0  0.9296337841073807  0.3766988911947848  0.757799203784444  1.0000
  C   C23       1.0  0.712542392535461  0.7116026871131282  0.3972552777249589  1.0000
  C   C24       1.0  0.000943025519468679  0.2884031340123272  0.6027459537362604  1.0000
  C   C25       1.0  0.6464369152879712  0.8025494064393541  0.45149938267205414  1.0000
  C   C26       1.0  0.843888909396199  0.1974520617104929  0.5485028265616733  1.0000
  C   C27       1.0  0.8762031435242577  0.78054185002172  0.4345332396661874  1.0000
  C   C28       1.0  0.09566497146887801  0.2194650593476339  0.5654688759521349  1.0000
  C   C29       1.0  0.2379229954652331  0.6524511898535579  0.4718968308387161  1.0000
  C   C30       1.0  0.5854807606239376  0.3475448370767822  0.5280926812077524  1.0000
  C   C31       1.0  0.2107299885907494  0.7651388458415695  0.3567165655760292  1.0000
  C   C32       1.0  0.4455922008603679  0.23486262230827754  0.6432826340570726  1.0000
  C   C33       1.0  0.9895332177986093  0.5588197728226234  0.24588352463177188  1.0000
  C   C34       1.0  0.4307096995389372  0.4411784305955209  0.7541167845307868  1.0000
  C   C35       1.0  0.04720304492663982  0.6343003698224194  0.15538634846678429  1.0000
  C   C36       1.0  0.4129002972653453  0.3656956571079206  0.8446121923815609  1.0000
  C   C37       1.0  0.15188096911892052  0.6136585595010189  0.09851047089949108  1.0000
  C   C38       1.0  0.5382188640189796  0.3863363791854155  0.9014856809914278  1.0000
  C   C39       1.0  0.21508574365916644  0.6911458782549644  0.01923527763679541  1.0000
  C   C40       1.0  0.5239384738683555  0.3088501486753756  0.980761006011079  1.0000
  C   C41       1.0  0.16854614599177611  0.7872552266493429  0.9945915414233468  1.0000
  C   C42       1.0  0.381282948828499  0.212738623793193  0.005405983510939905  1.0000
  C   C43       1.0  0.061403917500250274  0.8053831935585478  0.04897131877667959  1.0000
  C   C44       1.0  0.2560157843847719  0.1946095686400895  0.9510268268008062  1.0000
  C   C45       1.0  0.001587695881127549  0.7307492503140267  0.12992222224302447  1.0000
  C   C46       1.0  0.2708319667242165  0.2692456883724148  0.8700776916486817  1.0000
  C   C47       1.0  0.33651740374507705  0.6762935254889157  0.9650037966559709  1.0000
  C   C48       1.0  0.66022339840206  0.3237057661731271  0.03499212986260149  1.0000
  C   C49       1.0  0.5112684464120818  0.8538100471700076  0.11639964592605172  1.0000
  C   C50       1.0  0.6574588217140231  0.1461892444920352  0.8835985377929915  1.0000
  C   C51       1.0  0.720564440391712  0.868276073351069  0.07238635156389249  1.0000
  C   C52       1.0  0.8522920705256  0.1317166888475683  0.9276125464137478  1.0000
  N   N1        1.0  0.2941105797433181  0.7858622744555745  0.44066013934271087  1.0000
  N   N2        1.0  0.5082481646165462  0.2141413701820767  0.5593430858050752  1.0000
  N   N3        1.0  0.6548696284103102  0.9159553034022778  0.14744453969338878  1.0000
  N   N4        1.0  0.7389117658392266  0.084043988259765  0.852556653626273  1.0000
  N   N5        1.0  0.10345423753761201  0.6234930196378059  0.3328127845578378  1.0000
  N   N6        1.0  0.4799555678517821  0.3765019190486356  0.6671878817340229  1.0000
  N   N7        1.0  0.4823358734115359  0.767338186766267  0.02379297067160728  1.0000
  N   N8        1.0  0.7149947103090498  0.232661104895783  0.9762044606472741  1.0000
  O   O1        1.0  0.6680690696939848  0.2138508090604105  0.2623679181354959  1.0000
  O   O2        1.0  0.45421665784229504  0.7861517473333421  0.7376314132545546  1.0000
  O   O3        1.0  0.4718203912940524  0.0399091685953508  0.3253130073441284  1.0000
  O   O4        1.0  0.43190920176581216  0.9600944760423005  0.6746887130033415  1.0000
  O   O5        1.0  0.9893391770946707  0.0672872086663006  0.3012306018325361  1.0000
  O   O6        1.0  0.9220524678578387  0.9327088182640466  0.6987694438161185  1.0000
  O   O7        1.0  0.9971082823234312  0.2506737179514431  0.23283198663418145  1.0000
  O   O8        1.0  0.7464290793165986  0.749322308978897  0.7671688114146278  1.0000
  O   O9        1.0  0.7023357629447914  0.6969462182493231  0.2882253803924115  1.0000
  O   O10       1.0  0.005390626897018092  0.3030585146322267  0.7117757193118592  1.0000
  O   O11       1.0  0.6315270364728676  0.8927582964004372  0.40576174962837536  1.0000
  O   O12       1.0  0.7387711115887328  0.1072442599933083  0.5942413437624552  1.0000
  O   O13       1.0  0.6089131873282199  0.7806844099727996  0.5405471290741417  1.0000
  O   O14       1.0  0.8282286050171663  0.21931705817704739  0.45945357535926945  1.0000
