data_image0
_chemical_formula_structural       Tm2H28C30O20
_chemical_formula_sum              "Tm2 H28 C30 O20"
_cell_length_a       6.061650473728542
_cell_length_b       10.588621414347946
_cell_length_c       13.417094635088082
_cell_angle_alpha    112.55327071049268
_cell_angle_beta     96.83337666114721
_cell_angle_gamma    97.7323570575626

_space_group_name_H-M_alt    "P 1"
_space_group_IT_number       1

loop_
  _space_group_symop_operation_xyz
  'x, y, z'

loop_
  _atom_site_type_symbol
  _atom_site_label
  _atom_site_symmetry_multiplicity
  _atom_site_fract_x
  _atom_site_fract_y
  _atom_site_fract_z
  _atom_site_occupancy
  Tm  Tm1       1.0  0.5837974531266995  0.631818437002025  0.7110974183320098  1.0000
  Tm  Tm2       1.0  0.4162041799441881  0.36818127698794  0.28890173852360596  1.0000
  H   H1        1.0  0.1385496953814709  0.12055254978385223  0.4344343559137017  1.0000
  H   H2        1.0  0.861452280168635  0.879448224244257  0.5655673720566909  1.0000
  H   H3        1.0  0.4251506755211452  0.1170100823201139  0.42281333407727584  1.0000
  H   H4        1.0  0.574850635262571  0.8829886115425796  0.577188481975334  1.0000
  H   H5        1.0  0.983103688370427  0.24237188300531912  0.5786823749554914  1.0000
  H   H6        1.0  0.016899297309862567  0.7576320369278947  0.4213225832348685  1.0000
  H   H7        1.0  0.7289210931411247  0.24837048626156397  0.7086351823173589  1.0000
  H   H8        1.0  0.27107955777365333  0.7516313369421397  0.2913675337271115  1.0000
  H   H9        1.0  0.11082781207692702  0.0034811792913416032  0.8298556505397985  1.0000
  H   H10       1.0  0.8891665137306007  0.9965164623969895  0.17014398692177224  1.0000
  H   H11       1.0  0.3653941091644416  0.9973405314873678  0.6999231326082485  1.0000
  H   H12       1.0  0.6346022146985391  0.0026581582954393005  0.3000776702592276  1.0000
  H   H13       1.0  0.6404306321526575  0.09602739376035883  0.9708206569113786  1.0000
  H   H14       1.0  0.3595693453420026  0.9039723321732681  0.029179905653116126  1.0000
  H   H15       1.0  0.9309235178343229  0.08660645742720163  0.9691467696122731  1.0000
  H   H16       1.0  0.0690747954303675  0.9133932633454266  0.03085295709891515  1.0000
  H   H17       1.0  0.030047518655081373  0.46075898115539377  0.8738104030369059  1.0000
  H   H18       1.0  0.9699541144158134  0.5392407328345783  0.12618875381870961  1.0000
  H   H19       1.0  0.04059821341267175  0.6401540114146655  0.9577673600021159  1.0000
  H   H20       1.0  0.959403088717309  0.359844665343374  0.042232214488308266  1.0000
  H   H21       1.0  0.7286788036321994  0.732247812077361  0.038216367087869685  1.0000
  H   H22       1.0  0.27132648018579897  0.2677529323618728  0.9617818022773722  1.0000
  H   H23       1.0  0.48218644017244117  0.3000576831957957  0.822176680263155  1.0000
  H   H24       1.0  0.5178148475346661  0.6999409650544809  0.17781915829028358  1.0000
  H   H25       1.0  0.12483216811727978  0.6204084446189101  0.6231196406359134  1.0000
  H   H26       1.0  0.8751664760883243  0.3795923133856505  0.3768796684404664  1.0000
  H   H27       1.0  0.24255076304331177  0.529453224116267  0.5251843140314494  1.0000
  H   H28       1.0  0.757449542507679  0.470547533347741  0.474815083710837  1.0000
  C   C1        1.0  0.36713490134469146  0.3180045669020403  0.5172954831525376  1.0000
  C   C2        1.0  0.632864066019785  0.6819920131264824  0.48270184919199016  1.0000
  C   C3        1.0  0.313821653072921  0.16079094742048747  0.4807250434010016  1.0000
  C   C4        1.0  0.6861803253617609  0.8392098323091732  0.5192774317567912  1.0000
  C   C5        1.0  0.19684333829727763  0.12137997619789334  0.6319932077696822  1.0000
  C   C6        1.0  0.8031536532166612  0.8786207994518804  0.36800825420296956  1.0000
  C   C7        1.0  0.01614180448301282  0.1916121590551825  0.6342722686974299  1.0000
  C   C8        1.0  0.9838575189118616  0.8083907076225573  0.36573068823371113  1.0000
  C   C9        1.0  0.8715908071183377  0.19600103399196914  0.7085358943476693  1.0000
  C   C10       1.0  0.12840784862556398  0.8039997468188036  0.291466403478296  1.0000
  C   C11       1.0  0.9053793363748069  0.13118787131286785  0.7808053909672596  1.0000
  C   C12       1.0  0.09461432379463029  0.8688128883133573  0.2191936521113719  1.0000
  C   C13       1.0  0.08216387151596649  0.057781211772059714  0.7764354685907124  1.0000
  C   C14       1.0  0.9178288015999031  0.9422164475614848  0.22356632176713737  1.0000
  C   C15       1.0  0.22669036215363286  0.0532938639862195  0.7022397460683012  1.0000
  C   C16       1.0  0.7733109428609312  0.9467048184733642  0.29776057560952307  1.0000
  C   C17       1.0  0.7639629905210584  0.0644883824370126  0.9164688843376896  1.0000
  C   C18       1.0  0.23603565945369814  0.9355123869706573  0.08353191911348287  1.0000
  C   C19       1.0  0.6935387877130524  0.908225548340589  0.8467651639235714  1.0000
  C   C20       1.0  0.30645985937712783  0.09177521536552291  0.15323489234020832  1.0000
  C   C21       1.0  0.08771282108920542  0.597846367065465  0.7930345165170254  1.0000
  C   C22       1.0  0.9122891458071721  0.4021543898579837  0.20696496989118182  1.0000
  C   C23       1.0  0.9790872745335192  0.5571875687263272  0.8747688216475213  1.0000
  C   C24       1.0  0.02091435853736818  0.4428121452636376  0.12523033520809435  1.0000
  C   C25       1.0  0.619878989811049  0.5172415229669198  0.92382757598363  1.0000
  C   C26       1.0  0.38011931479991296  0.48275818070105464  0.07616990916535835  1.0000
  C   C27       1.0  0.6312028799427907  0.6303919343705005  0.02272460590714331  1.0000
  C   C28       1.0  0.36880007776342444  0.36960673044387704  0.9772735628744018  1.0000
  C   C29       1.0  0.4893397368685655  0.38717380466682283  0.899776744513595  1.0000
  C   C30       1.0  0.5106632092993523  0.612824837341343  0.10021843551835738  1.0000
  O   O1        1.0  0.4687744302735908  0.3964218603903333  0.6139267237277795  1.0000
  O   O2        1.0  0.5312308708518643  0.6035789182582151  0.3860759287618408  1.0000
  O   O3        1.0  0.301316725655731  0.36262876658210536  0.4442543204509236  1.0000
  O   O4        1.0  0.6986865774142785  0.6373709639719608  0.5557471666327986  1.0000
  O   O5        1.0  0.7571552079423896  0.8237439522226853  0.8857824177574757  1.0000
  O   O6        1.0  0.24284974205012594  0.17625574928306526  0.11421542205517453  1.0000
  O   O7        1.0  0.5715980398818133  0.8634259503193179  0.7512020897491568  1.0000
  O   O8        1.0  0.42840027626746047  0.13657377615486152  0.24879838414942418  1.0000
  O   O9        1.0  0.35443982511627325  0.11343333693447732  0.5653062587689704  1.0000
  O   O10       1.0  0.6455624900284748  0.8865684914302181  0.43469729312881383  1.0000
  O   O11       1.0  0.7580466570250054  0.14670346576518506  0.8540955022321911  1.0000
  O   O12       1.0  0.241948333548912  0.8532962560885622  0.1459040471471624  1.0000
  O   O13       1.0  0.9576201094354178  0.6113836105928316  0.7170767744236032  1.0000
  O   O14       1.0  0.04238019611557326  0.38861714687117654  0.2829226233186902  1.0000
  O   O15       1.0  0.3006905745308189  0.615632185771844  0.8041900417918983  1.0000
  O   O16       1.0  0.6993100590764952  0.3843696032225453  0.19580819112818668  1.0000
  O   O17       1.0  0.7365829843122498  0.5345457363447963  0.8438372127238412  1.0000
  O   O18       1.0  0.2634203043348721  0.46545396570151365  0.1561605384228956  1.0000
  O   O19       1.0  0.2604989835566442  0.6208634005224809  0.5880434653518095  1.0000
  O   O20       1.0  0.7395009881688566  0.37913631400803655  0.41195560283789234  1.0000
