data_image0
_chemical_formula_structural       Ag4H48C56N12O24
_chemical_formula_sum              "Ag4 H48 C56 N12 O24"
_cell_length_a       8.113768982763942
_cell_length_b       11.493410184727658
_cell_length_c       15.643073261587949
_cell_angle_alpha    95.20826567272094
_cell_angle_beta     102.11240748269765
_cell_angle_gamma    91.35409753319138

_space_group_name_H-M_alt    "P 1"
_space_group_IT_number       1

loop_
  _space_group_symop_operation_xyz
  'x, y, z'

loop_
  _atom_site_type_symbol
  _atom_site_label
  _atom_site_symmetry_multiplicity
  _atom_site_fract_x
  _atom_site_fract_y
  _atom_site_fract_z
  _atom_site_occupancy
  Ag  Ag1       1.0  0.8612723099860703  0.22668475066696195  0.021858891381953113  1.0000
  Ag  Ag2       1.0  0.1387272793354484  0.7733153210780797  0.9781407204520745  1.0000
  Ag  Ag3       1.0  0.5028219416546874  0.04906299389270428  0.10273589135919538  1.0000
  Ag  Ag4       1.0  0.4971802147671979  0.9509379542247343  0.8972647056714462  1.0000
  H   H1        1.0  0.1258294593161651  0.23343523123107698  0.14784940234306274  1.0000
  H   H2        1.0  0.874170143568385  0.7665648441989957  0.8521489327124312  1.0000
  H   H3        1.0  0.7963694801678259  0.08195181723108645  0.21089365491292256  1.0000
  H   H4        1.0  0.20363140884069253  0.9180491271901088  0.7891074397995226  1.0000
  H   H5        1.0  0.7657918454782974  0.4701883103606548  0.014753492281343551  1.0000
  H   H6        1.0  0.2342103109435953  0.5298126377567839  0.9852471047492981  1.0000
  H   H7        1.0  0.8578557672362734  0.6751547352484905  0.07887157695020619  1.0000
  H   H8        1.0  0.14214381530373293  0.3248453346540287  0.9211286732730881  1.0000
  H   H9        1.0  0.1247557854183299  0.7038510377312688  0.19766542030305348  1.0000
  H   H10       1.0  0.8752438497398388  0.29614990667871405  0.8023348953126683  1.0000
  H   H11       1.0  0.2706391153779819  0.5302408653520203  0.2531389214752622  1.0000
  H   H12       1.0  0.7293605129986673  0.46976007721544005  0.7468620325297264  1.0000
  H   H13       1.0  0.5191181634038814  0.2285253413884475  0.39462958514558705  1.0000
  H   H14       1.0  0.4808801652857754  0.7714747285028665  0.605369885980977  1.0000
  H   H15       1.0  0.6080970889152654  0.027234130564899293  0.42704782217866466  1.0000
  H   H16       1.0  0.3919025004062532  0.9727659411801424  0.5729517896553629  1.0000
  H   H17       1.0  0.24181924493456813  0.8810525911597719  0.20167460642522164  1.0000
  H   H18       1.0  0.7581828792136989  0.11894748797775626  0.7983240100451923  1.0000
  H   H19       1.0  0.14789036148994233  0.07387982995421538  0.16994560428757666  1.0000
  H   H20       1.0  0.8521092413946009  0.9261202454758644  0.8300527307679174  1.0000
  H   H21       1.0  0.7222110849528323  0.7231154721295852  0.5053198307446748  1.0000
  H   H22       1.0  0.27778850436869357  0.2768845996154568  0.4946797810893527  1.0000
  H   H23       1.0  0.7049914602170164  0.6641845204780663  0.3934170334814978  1.0000
  H   H24       1.0  0.2950092777185205  0.3358138022632672  0.6065832266643907  1.0000
  H   H25       1.0  0.5261674492121671  0.6530984840029743  0.443275028477835  1.0000
  H   H26       1.0  0.47383213332783924  0.34690158589955183  0.5567252217454522  1.0000
  H   H27       1.0  0.41598934048397496  0.2964406790530773  0.06851585404173478  1.0000
  H   H28       1.0  0.5840115553060556  0.7035602672106335  0.9314846022814435  1.0000
  H   H29       1.0  0.4816273571530801  0.5051736450325064  0.1327306100103698  1.0000
  H   H30       1.0  0.5183747466506434  0.49482642857746834  0.8672699216278446  1.0000
  H   H31       1.0  0.7187579028027573  0.5455469298637751  0.26496417546791656  1.0000
  H   H32       1.0  0.2812417781920615  0.4544548872111489  0.7350368439294996  1.0000
  H   H33       1.0  0.8855636472500806  0.38059861650978627  0.32411223637905806  1.0000
  H   H34       1.0  0.11443598790808808  0.6194023279001966  0.6758880792366638  1.0000
  H   H35       1.0  0.17543848337955134  0.0753574281004319  0.4594099823353729  1.0000
  H   H36       1.0  0.8245610397607734  0.9246417654521151  0.5405908408847535  1.0000
  H   H37       1.0  0.24740622065196757  0.871074841362478  0.49292147348642584  1.0000
  H   H38       1.0  0.7525919892383399  0.1289234758288842  0.5070791436338026  1.0000
  H   H39       1.0  0.8473507866632844  0.7339200336964989  0.28004280009693616  1.0000
  H   H40       1.0  0.1526488620579158  0.2660809143985218  0.7199562387402592  1.0000
  H   H41       1.0  0.775264461899198  0.9307273487323396  0.24529849740471119  1.0000
  H   H42       1.0  0.22473513420383284  0.06927272485522448  0.7547004760400496  1.0000
  H   H43       1.0  0.3841607120169144  0.5628064085405952  0.5522752063353875  1.0000
  H   H44       1.0  0.6158401905546287  0.4371945395656311  0.4477246115985308  1.0000
  H   H45       1.0  0.16330381256697993  0.5205630922986797  0.532439353026561  1.0000
  H   H46       1.0  0.8366969321500762  0.4794352322851692  0.46756026873006806  1.0000
  H   H47       1.0  0.2790229928230232  0.4867767178426448  0.44779989814733756  1.0000
  H   H48       1.0  0.720980437793749  0.5132242358135526  0.5521995628122411  1.0000
  C   C1        1.0  0.8761447440544997  0.48819224341993805  0.06801325941443538  1.0000
  C   C2        1.0  0.1238535846351567  0.511807826471383  0.9319862117121287  1.0000
  C   C3        1.0  0.9290360195011688  0.6014803896512644  0.103095106091601  1.0000
  C   C4        1.0  0.07096230240697568  0.3985196783975339  0.8969050034242299  1.0000
  C   C5        1.0  0.07437832306298732  0.6169418534530279  0.16959907461506415  1.0000
  C   C6        1.0  0.9256212526955068  0.3830582146069829  0.8304018139974898  1.0000
  C   C7        1.0  0.15802755343755592  0.5203323414557772  0.2011774824382754  1.0000
  C   C8        1.0  0.8419708143072386  0.4796685992579625  0.7988233308592497  1.0000
  C   C9        1.0  0.0935254447979972  0.4085481087823835  0.16416995832053513  1.0000
  C   C10       1.0  0.9064729755649595  0.5914537064388127  0.8358309203694174  1.0000
  C   C11       1.0  0.2787724988131616  0.2905194742151807  0.26839796215237033  1.0000
  C   C12       1.0  0.7212245030634539  0.7094797156299105  0.7316025796528293  1.0000
  C   C13       1.0  0.3281388132933428  0.16722397627423646  0.28076128001066536  1.0000
  C   C14       1.0  0.6718620230970062  0.832776093639495  0.7192397493093521  1.0000
  C   C15       1.0  0.4587458687169388  0.15168732866690957  0.3529504752025402  1.0000
  C   C16       1.0  0.541253773222742  0.8483136175855887  0.6470492020239148  1.0000
  C   C17       1.0  0.509068529844221  0.04027597097863379  0.3707688158592361  1.0000
  C   C18       1.0  0.49093226749099034  0.9597232281126719  0.6292308712898204  1.0000
  C   C19       1.0  0.43141840584102203  0.9416699882542401  0.3168268294658531  1.0000
  C   C20       1.0  0.5685824373308392  0.05833008350201399  0.6831735614648975  1.0000
  C   C21       1.0  0.30387972745722885  0.9567194988268707  0.24380299562805863  1.0000
  C   C22       1.0  0.6961223372913635  0.04327970396067828  0.7561961938391943  1.0000
  C   C23       1.0  0.2519892253186384  0.06841472895873578  0.2260099531052688  1.0000
  C   C24       1.0  0.7480128852665974  0.9315853464937616  0.7739899401436787  1.0000
  C   C25       1.0  0.4780339745704866  0.8210542478875805  0.3369352204964854  1.0000
  C   C26       1.0  0.5219656147510321  0.17894582385746113  0.6630643913375349  1.0000
  C   C27       1.0  0.6377189905266646  0.7069668856120399  0.44064510899212184  1.0000
  C   C28       1.0  0.3622805393951794  0.2930323097830295  0.5593550758387379  1.0000
  C   C29       1.0  0.5183848833205005  0.3193986605158584  0.12523943126589637  1.0000
  C   C30       1.0  0.4816148044558303  0.680603158401588  0.8747609497422599  1.0000
  C   C31       1.0  0.5536059716046966  0.4343358308287505  0.16134803302539782  1.0000
  C   C32       1.0  0.44639365677195997  0.5656651117387168  0.8386529209795838  1.0000
  C   C33       1.0  0.6855986223897189  0.4567253417588615  0.23471725927837633  1.0000
  C   C34       1.0  0.31440096015028723  0.5432747281436645  0.7652829909449109  1.0000
  C   C35       1.0  0.779334551891168  0.3655260138167618  0.2686626362279938  1.0000
  C   C36       1.0  0.22066633711735048  0.6344749306044262  0.7313384584844513  1.0000
  C   C37       1.0  0.7356397738620969  0.25175861660427046  0.2283318887080057  1.0000
  C   C38       1.0  0.26436106252825203  0.748241453309461  0.7716691406120118  1.0000
  C   C39       1.0  0.9296845235423775  0.14165294465095707  0.3350193580799612  1.0000
  C   C40       1.0  0.07031384420241693  0.8583479960627755  0.6649814552175639  1.0000
  C   C41       1.0  0.972609493814858  0.018219015229455196  0.34985129172048346  1.0000
  C   C42       1.0  0.02739004288849859  0.9817801820081298  0.6501482547211097  1.0000
  C   C43       1.0  0.10550058596689384  4.395358487130014e-05  0.4199553244039932  1.0000
  C   C44       1.0  0.8944989439549504  0.999955241810198  0.5800448604268664  1.0000
  C   C45       1.0  0.14570461250649908  0.8870769924558457  0.43870789020370876  1.0000
  C   C46       1.0  0.8542921856789717  0.11291870120193435  0.5612917516425071  1.0000
  C   C47       1.0  0.05298699897555543  0.7904829843569419  0.3892105309899917  1.0000
  C   C48       1.0  0.9470138577593448  0.20951709108434355  0.6107885831622325  1.0000
  C   C49       1.0  0.9207016510368929  0.8082958115432676  0.3189269264919901  1.0000
  C   C50       1.0  0.07929921247951201  0.1917042657405332  0.6810715492709674  1.0000
  C   C51       1.0  0.881329857065779  0.9212053658285336  0.2994041783187099  1.0000
  C   C52       1.0  0.11866968641909642  0.07879383325156647  0.7005947297336232  1.0000
  C   C53       1.0  0.08622233252778239  0.6696041686636105  0.41279712914265315  1.0000
  C   C54       1.0  0.913780992852665  0.33039503597767333  0.5872022010320561  1.0000
  C   C55       1.0  0.2661581822049754  0.5497876385533756  0.5028007983609297  1.0000
  C   C56       1.0  0.7338426745299174  0.45021243688790946  0.49719831579129437  1.0000
  N   N1        1.0  0.956451440366692  0.39326504611057095  0.09703972458083143  1.0000
  N   N2        1.0  0.04354693415962169  0.6067358964456844  0.9029604503274269  1.0000
  N   N3        1.0  0.1648927488215435  0.30537389227769296  0.19141700029804545  1.0000
  N   N4        1.0  0.8351068863366252  0.69462705213229  0.8085833153176692  1.0000
  N   N5        1.0  0.6052767956537936  0.22875689255850767  0.15811305349925683  1.0000
  N   N6        1.0  0.39472410013623005  0.771244053705203  0.8418874028239214  1.0000
  N   N7        1.0  0.8212587628899968  0.15386126469829256  0.2557988180253758  1.0000
  N   N8        1.0  0.17874339353189586  0.846139683419139  0.744201779005266  1.0000
  N   N9        1.0  0.1295195029537766  0.07071535505512826  0.9552940254772435  1.0000
  N   N10       1.0  0.8704801322043921  0.9292855893548548  0.04470629013847831  1.0000
  N   N11       1.0  0.5106367711820855  0.22317561444174314  0.9072173867959065  1.0000
  N   N12       1.0  0.48936407877129545  0.7768244591570268  0.09278236574557751  1.0000
  O   O1        1.0  0.33780610967492203  0.3722772648309628  0.3241361163520508  1.0000
  O   O2        1.0  0.6621884099931066  0.6277227921291056  0.6758654862091901  1.0000
  O   O3        1.0  0.42346991307999104  0.7320874274356937  0.2890678341327302  1.0000
  O   O4        1.0  0.5765296626785033  0.26791264062430986  0.7109330544798311  1.0000
  O   O5        1.0  0.586608273914713  0.8209484385331433  0.4154081512592  1.0000
  O   O6        1.0  0.4133925166389859  0.1790507587156469  0.584592174279116  1.0000
  O   O7        1.0  0.9850871341072251  0.2246673580189764  0.390382513047605  1.0000
  O   O8        1.0  0.014911174237894878  0.7753327063447908  0.6096188732467522  1.0000
  O   O9        1.0  0.9902484728532103  0.5845673480259705  0.38291631908852947  1.0000
  O   O10       1.0  0.009753488293007697  0.41542924597935377  0.6170775670873139  1.0000
  O   O11       1.0  0.2322818008966294  0.6638382461466816  0.4718677875580396  1.0000
  O   O12       1.0  0.7677152671611723  0.33616182189090427  0.528131542861068  1.0000
  O   O13       1.0  0.9800795802571829  0.10010391702085288  0.9247967434884357  1.0000
  O   O14       1.0  0.0199199564461736  0.8998952802167324  0.07520280295316438  1.0000
  O   O15       1.0  0.2206735331965319  0.12995825300725267  0.021123008873452392  1.0000
  O   O16       1.0  0.7793260561249865  0.8700418187377891  0.9788766029605751  1.0000
  O   O17       1.0  0.18397145477199933  0.9805616935680275  0.9188113484255067  1.0000
  O   O18       1.0  0.8160306490317241  0.019438380041954393  0.08118918321270739  1.0000
  O   O19       1.0  0.6004913165068758  0.13542386499644007  0.9375528008164266  1.0000
  O   O20       1.0  0.39950827281464296  0.8645762067486017  0.06244681101759397  1.0000
  O   O21       1.0  0.5766885334693087  0.32389906576288735  0.9292280165622272  1.0000
  O   O22       1.0  0.42331110847037207  0.676101880489618  0.07077166066422785  1.0000
  O   O23       1.0  0.3677025247114756  0.20220592186695535  0.8601455210855773  1.0000
  O   O24       1.0  0.6322958107597004  0.7977941498668809  0.1398533116517271  1.0000
