data_image0
_chemical_formula_structural       Cd2H36C44N8O8
_chemical_formula_sum              "Cd2 H36 C44 N8 O8"
_cell_length_a       7.551676609854107
_cell_length_b       8.808314586035435
_cell_length_c       16.164059406140375
_cell_angle_alpha    104.78177114297691
_cell_angle_beta     102.35133613938667
_cell_angle_gamma    94.25869361378125

_space_group_name_H-M_alt    "P 1"
_space_group_IT_number       1

loop_
  _space_group_symop_operation_xyz
  'x, y, z'

loop_
  _atom_site_type_symbol
  _atom_site_label
  _atom_site_symmetry_multiplicity
  _atom_site_fract_x
  _atom_site_fract_y
  _atom_site_fract_z
  _atom_site_occupancy
  Cd  Cd1       1.0  0.18715272936317726  0.8722407317487112  0.7214337052454385  1.0000
  Cd  Cd2       1.0  0.966129141998323  0.1509341095879861  0.27862053788153673  1.0000
  H   H1        1.0  0.5981930929694527  0.9851880144367868  0.12600940840940208  1.0000
  H   H2        1.0  0.9722536105703412  0.8590249319757034  0.8742104824694155  1.0000
  H   H3        1.0  0.5115911563046751  0.791860454408031  0.05313705013382023  1.0000
  H   H4        1.0  0.9588178212505482  0.7384989913799772  0.9470190383007734  1.0000
  H   H5        1.0  0.7166751297035463  0.8979298334537447  0.047261052473892645  1.0000
  H   H6        1.0  0.16983430751960785  0.8501546254556658  0.952774088097762  1.0000
  H   H7        1.0  0.9965421332632189  0.8227862183115134  0.3500459486314895  1.0000
  H   H8        1.0  0.14652923584812785  0.4725549987604722  0.6500966764340532  1.0000
  H   H9        1.0  0.8948502338438544  0.5182387765546608  0.23609158784790202  1.0000
  H   H10       1.0  0.1595144141887346  0.28205139665897155  0.7641726376141238  1.0000
  H   H11       1.0  0.7094975146971053  0.6206351605803847  0.9775115822380871  1.0000
  H   H12       1.0  0.2326430776052035  0.643043493800178  0.022447658744546597  1.0000
  H   H13       1.0  0.5541701098103291  0.38420376535431433  0.8550149272471046  1.0000
  H   H14       1.0  0.1996084224472341  0.5296158543194237  0.14510656875772554  1.0000
  H   H15       1.0  0.45676516476095946  0.13792892207640506  0.041572087195135145  1.0000
  H   H16       1.0  0.9152744011823445  0.09660518407387998  0.958748526029126  1.0000
  H   H17       1.0  0.604561469626468  0.37422654087455937  0.16519114578684224  1.0000
  H   H18       1.0  0.9393640663888478  0.20891136042728684  0.8349562777686756  1.0000
  H   H19       1.0  0.5376847821884069  0.7651279752863684  0.7991693043118888  1.0000
  H   H20       1.0  0.23801250138906474  0.9652004325411098  0.2007007516379957  1.0000
  H   H21       1.0  0.7218099666570411  0.7732340607017888  0.7471983121936604  1.0000
  H   H22       1.0  0.4743501080977026  0.025370384407260402  0.2525044562448215  1.0000
  H   H23       1.0  0.6535435864128374  0.5957460341177451  0.7726133984592567  1.0000
  H   H24       1.0  0.380557902481435  0.8225052033818442  0.2272671615965649  1.0000
  H   H25       1.0  0.15136387962348863  0.678166631895074  0.5050911261501412  1.0000
  H   H26       1.0  0.1471693702867256  0.17294603597091648  0.49479719120477494  1.0000
  H   H27       1.0  0.31219981765522675  0.40430972771913076  0.46431785173550116  1.0000
  H   H28       1.0  0.3487874950396306  0.9399344373762305  0.5357092125873137  1.0000
  H   H29       1.0  0.44622193853132336  0.3306910181078351  0.7083104871208479  1.0000
  H   H30       1.0  0.23753522863780321  0.6217965484104013  0.2916642700681393  1.0000
  H   H31       1.0  0.6308150027690687  0.11818405962611679  0.7319852514140024  1.0000
  H   H32       1.0  0.39832523156129446  0.3855582318612464  0.26793201825432794  1.0000
  H   H33       1.0  0.891397732074907  0.17233282491588395  0.5271811887682248  1.0000
  H   H34       1.0  0.8644434403791338  0.6442380542528027  0.4726659901425876  1.0000
  H   H35       1.0  0.716345800693013  0.39344787839846856  0.5074320859650784  1.0000
  H   H36       1.0  0.7094074451096901  0.8853202798270131  0.4924967368369266  1.0000
  C   C1        1.0  0.6359532269427605  0.8722014399840958  0.09232645734540067  1.0000
  C   C2        1.0  0.04376526386793959  0.7795846868732068  0.9077604797407162  1.0000
  C   C3        1.0  0.7429253672479419  0.8049562232615414  0.15934772958315344  1.0000
  C   C4        1.0  0.08339232173297262  0.6452991233313199  0.8406604830820186  1.0000
  C   C5        1.0  0.9136517760934099  0.7831823057437645  0.28290962594668667  1.0000
  C   C6        1.0  0.1307416291416317  0.5000304983065789  0.7171936928897936  1.0000
  C   C7        1.0  0.8601062061045968  0.6323654000953026  0.22923735836184286  1.0000
  C   C8        1.0  0.13124016365981112  0.40293368188661555  0.7709106349813908  1.0000
  C   C9        1.0  0.6638829763039168  0.513464960330168  0.0789242072050698  1.0000
  C   C10       1.0  0.0851643439670582  0.43447484770045713  0.9211600857967995  1.0000
  C   C11       1.0  0.6505013892419739  0.5163782456923443  0.9916617940961316  1.0000
  C   C12       1.0  0.15914950416095763  0.5247809315379399  0.008395865389772382  1.0000
  C   C13       1.0  0.564936242284155  0.3834082613160774  0.9231131723067705  1.0000
  C   C14       1.0  0.1421721678770709  0.46060401296201536  0.07702707235002042  1.0000
  C   C15       1.0  0.49582784186933543  0.2458665919234164  0.9405839299542935  1.0000
  C   C16       1.0  0.05557473524643092  0.3055759298882564  0.059587696776169714  1.0000
  C   C17       1.0  0.5122013720524307  0.2444500547951803  0.028292701523213278  1.0000
  C   C18       1.0  0.9840926276403721  0.21633778075776183  0.9718994189244371  1.0000
  C   C19       1.0  0.5940415939708856  0.37738508384617125  0.09735795409195452  1.0000
  C   C20       1.0  0.9967418127209627  0.2800228707693151  0.902769358826575  1.0000
  C   C21       1.0  0.4042114822798125  0.1018434996321957  0.8673698476663106  1.0000
  C   C22       1.0  0.037277532462695696  0.23461916923894677  0.1327275962644521  1.0000
  C   C23       1.0  0.6034945494479373  0.6958127892890216  0.7504321747164298  1.0000
  C   C24       1.0  0.35283776086065183  0.9447743352476152  0.2494092289636001  1.0000
  C   C25       1.0  0.47354097886842794  0.6420654557825854  0.662445413110966  1.0000
  C   C26       1.0  0.31131846569158467  0.9791390971002937  0.33745115716565977  1.0000
  C   C27       1.0  0.2614405701329617  0.6374069771576671  0.5450868031521026  1.0000
  C   C28       1.0  0.2173617276069137  0.0922577855751285  0.45487343843755224  1.0000
  C   C29       1.0  0.33944401896985715  0.5019960307894208  0.5236414621610238  1.0000
  C   C30       1.0  0.3166538752142003  0.9781783327929644  0.47632981728608575  1.0000
  C   C31       1.0  0.5480613001600007  0.2991863446432602  0.6705955624181358  1.0000
  C   C32       1.0  0.37724057174904163  0.6279741284519317  0.3293479754618929  1.0000
  C   C33       1.0  0.575156067567349  0.37817092488150905  0.6085861114697623  1.0000
  C   C34       1.0  0.4666727689162258  0.768972047424178  0.39130251166789526  1.0000
  C   C35       1.0  0.6505868964563106  0.1785924542247841  0.6830937660846033  1.0000
  C   C36       1.0  0.4671526706050032  0.49482314333145155  0.3168743084279981  1.0000
  C   C37       1.0  0.7774056496238942  0.1340687581798861  0.6326365393895517  1.0000
  C   C38       1.0  0.6445567697808274  0.5007141408487923  0.36726458473697937  1.0000
  C   C39       1.0  0.794794585021407  0.20838360145489077  0.5672262674861913  1.0000
  C   C40       1.0  0.7276279370313788  0.6403744248380578  0.43271443864537673  1.0000
  C   C41       1.0  0.6959048869655862  0.3316023532965389  0.5555713132261958  1.0000
  C   C42       1.0  0.64053123965914  0.7753414179100275  0.4443605539115795  1.0000
  C   C43       1.0  0.904603757887273  0.0189588658921167  0.6539582823839183  1.0000
  C   C44       1.0  0.7500100594515331  0.36406303379499855  0.3457595656011563  1.0000
  N   N1        1.0  0.8410958196587046  0.8890403278171846  0.23920944479564815  1.0000
  N   N2        1.0  0.10156144677007721  0.6495309408578007  0.7608201379298551  1.0000
  N   N3        1.0  0.7522683151836915  0.6463665830404821  0.15092332594051072  1.0000
  N   N4        1.0  0.10162917768448658  0.4952609318834573  0.8491656355946945  1.0000
  N   N5        1.0  0.3456240677607028  0.7238820964300956  0.6308227920592345  1.0000
  N   N6        1.0  0.21540678795138046  0.09280256485643429  0.3691003184953843  1.0000
  N   N7        1.0  0.4728938606213191  0.5054176053409518  0.598368908837891  1.0000
  N   N8        1.0  0.37484603070934247  0.9065614721013944  0.40152797217532316  1.0000
  O   O1        1.0  0.3782624128629238  0.9699986096891705  0.8836859220407762  1.0000
  O   O2        1.0  0.9957651987127676  0.0863717483969282  0.1163854635968633  1.0000
  O   O3        1.0  0.3525236907705961  0.11924626630898422  0.7893321975711346  1.0000
  O   O4        1.0  0.06299813734405998  0.33001688897905257  0.2107422051219032  1.0000
  O   O5        1.0  0.9080669781260511  0.9790107174620176  0.7251674967899647  1.0000
  O   O6        1.0  0.6819447240681528  0.25322986204216147  0.2744480821085348  1.0000
  O   O7        1.0  0.011534364012142397  0.9724113672956918  0.6042744026481088  1.0000
  O   O8        1.0  0.9067337436542361  0.3668214577725236  0.3953910296922772  1.0000
