data_image0
_chemical_formula_structural       Li2B2H48C44O16
_chemical_formula_sum              "Li2 B2 H48 C44 O16"
_cell_length_a       8.75733756740407
_cell_length_b       9.637933937689153
_cell_length_c       14.299656733192139
_cell_angle_alpha    88.54925247083872
_cell_angle_beta     86.75717515280282
_cell_angle_gamma    62.97114545530186

_space_group_name_H-M_alt    "P 1"
_space_group_IT_number       1

loop_
  _space_group_symop_operation_xyz
  'x, y, z'

loop_
  _atom_site_type_symbol
  _atom_site_label
  _atom_site_symmetry_multiplicity
  _atom_site_fract_x
  _atom_site_fract_y
  _atom_site_fract_z
  _atom_site_occupancy
  Li  Li1       1.0  0.6524026067264826  0.6266753782915944  0.8984299683212174  1.0000
  Li  Li2       1.0  0.27866241452818474  0.37366021410111494  0.398659117194704  1.0000
  B   B1        1.0  0.8339140675379254  0.056207200979443414  0.7465980827602154  1.0000
  B   B2        1.0  0.8898893402469312  0.9439748589668967  0.2469129930480918  1.0000
  H   H1        1.0  0.7278100883875708  0.6069388463200341  0.7030345833795053  1.0000
  H   H2        1.0  0.33434284707366385  0.3929125570381162  0.20306286723441505  1.0000
  H   H3        1.0  0.6872402834426339  0.5887325234221592  0.5326985734057459  1.0000
  H   H4        1.0  0.2762052776739877  0.4109764723171666  0.0326196515892292  1.0000
  H   H5        1.0  0.6836673609963594  0.7961813636818963  0.4233796030095434  1.0000
  H   H6        1.0  0.4807573981214119  0.20354760954431586  0.9233459081131272  1.0000
  H   H7        1.0  0.7209250224344146  0.017368791151220402  0.4817398961218089  1.0000
  H   H8        1.0  0.7390547931743539  0.9824640589912909  0.9818755988909302  1.0000
  H   H9        1.0  0.9610587215334334  0.4789982379567379  0.8356518223654279  1.0000
  H   H10       1.0  0.4397723983770304  0.5210668026345859  0.3357895115050198  1.0000
  H   H11       1.0  0.2774045999015796  0.38640119772833265  0.8156035903911061  1.0000
  H   H12       1.0  0.6636387749502004  0.6134046351648125  0.3156322426767559  1.0000
  H   H13       1.0  0.46531312532712116  0.11824012638027878  0.7575980962610558  1.0000
  H   H14       1.0  0.5835990175650209  0.88147561496659  0.2576921357796351  1.0000
  H   H15       1.0  0.34147318017863865  0.939376505971517  0.7222628585100778  1.0000
  H   H16       1.0  0.2807430469150205  0.060578130900516725  0.22256614992981846  1.0000
  H   H17       1.0  0.6738224852813345  0.36964473856535573  0.034221434128333804  1.0000
  H   H18       1.0  0.043300250418596295  0.63072936078126  0.5346463024531047  1.0000
  H   H19       1.0  0.898176242158506  0.2950554109839345  0.0034079027453941973  1.0000
  H   H20       1.0  0.19327710412246546  0.704935716921348  0.5035847090320544  1.0000
  H   H21       1.0  0.9070676417484049  0.2560813495260633  0.17217530863379696  1.0000
  H   H22       1.0  0.16349746201116477  0.7443389978907862  0.6723393054798095  1.0000
  H   H23       1.0  0.7119360678410516  0.4302714619572542  0.19206565895512992  1.0000
  H   H24       1.0  0.1424210857793539  0.5702949974053908  0.6923989452775956  1.0000
  H   H25       1.0  0.931514368318048  0.5197137123791864  0.2163334545793987  1.0000
  H   H26       1.0  0.45158523244599996  0.4805590521152683  0.7163739660031399  1.0000
  H   H27       1.0  0.06191472635953224  0.4028494293154524  0.12162020049374431  1.0000
  H   H28       1.0  0.46505827676890704  0.597258383396458  0.6216083227379201  1.0000
  H   H29       1.0  0.7266123737740382  0.7047749005615744  0.11265264896531592  1.0000
  H   H30       1.0  0.43158395577108866  0.29541356433534827  0.6128004987838481  1.0000
  H   H31       1.0  0.914195656781281  0.6429748176730001  0.03668452842793362  1.0000
  H   H32       1.0  0.5570415055007131  0.3571717505179708  0.5366103193681653  1.0000
  H   H33       1.0  0.35091798819205866  0.5741478590912623  0.9045978805684529  1.0000
  H   H34       1.0  0.9251710755353528  0.42551781084073076  0.4046328187598718  1.0000
  H   H35       1.0  0.2294991999067334  0.7395759958853535  0.8332506180891316  1.0000
  H   H36       1.0  0.9695576667824993  0.2600821685353623  0.3331466369433472  1.0000
  H   H37       1.0  0.020386255797234028  0.7903265091782647  0.9610896322051448  1.0000
  H   H38       1.0  0.8113747178841847  0.20895335154300207  0.4609001871647963  1.0000
  H   H39       1.0  0.18087070152367338  0.7048065864275374  0.04504773838321802  1.0000
  H   H40       1.0  0.8859005300614202  0.29477818846073944  0.5449208503039176  1.0000
  H   H41       1.0  0.07755916004710169  0.015497219347153606  0.9419963894320702  1.0000
  H   H42       1.0  0.09407434599079065  0.9840240315726735  0.4418810379733174  1.0000
  H   H43       1.0  0.09516123614247345  0.9821994467814367  0.0648583717708107  1.0000
  H   H44       1.0  0.07808973978178099  0.017582641962803805  0.5647364904441616  1.0000
  H   H45       1.0  0.36785921815877715  0.9792786631586384  0.9548614371389306  1.0000
  H   H46       1.0  0.3477438967896375  0.02078998404670071  0.45474598898950813  1.0000
  H   H47       1.0  0.4064631053463187  0.8419419116187258  0.0484047083395893  1.0000
  H   H48       1.0  0.2487760005494194  0.15811113790110204  0.5483384800556266  1.0000
  C   C1        1.0  0.7747012206556363  0.831704806639465  0.7872648536124416  1.0000
  C   C2        1.0  0.6059860141843387  0.16853183605294936  0.2873935628831035  1.0000
  C   C3        1.0  0.751441347697913  0.8191437236839791  0.6875274277975905  1.0000
  C   C4        1.0  0.5704535469524002  0.18085525564302435  0.1876427094012598  1.0000
  C   C5        1.0  0.7273370793104519  0.6950982127643641  0.653584302529943  1.0000
  C   C6        1.0  0.422309106514291  0.304772008922079  0.15363111645058325  1.0000
  C   C7        1.0  0.7037107118918228  0.6858923692086876  0.5591531180988272  1.0000
  C   C8        1.0  0.38981323667867673  0.3139022095858551  0.0591472790062539  1.0000
  C   C9        1.0  0.7010799591668544  0.8028633690001713  0.49762851659150453  1.0000
  C   C10       1.0  0.5045399034002074  0.19697669715156255  0.9976390910967157  1.0000
  C   C11       1.0  0.7229961037496433  0.9270224835925592  0.5296369359430529  1.0000
  C   C12       1.0  0.6505488365998815  0.07285109660358563  0.029742488806967098  1.0000
  C   C13       1.0  0.7507229936147083  0.9352579937289182  0.6245957819531897  1.0000
  C   C14       1.0  0.6861407629058434  0.06472487853054082  0.1247540946541932  1.0000
  C   C15       1.0  0.7876313440170223  0.3151283957800716  0.8034178676689052  1.0000
  C   C16       1.0  0.10241844993441146  0.6851394518404563  0.303774441753049  1.0000
  C   C17       1.0  0.9734033843181962  0.2621869463934204  0.7906637046908928  1.0000
  C   C18       1.0  0.23531399090988703  0.7379583461160949  0.29094209011903877  1.0000
  C   C19       1.0  0.04568271961807102  0.3611712328820716  0.8111162353530901  1.0000
  C   C20       1.0  0.4066116418232538  0.6388779204367268  0.3112981531307994  1.0000
  C   C21       1.0  0.22141708840329233  0.3097649781561885  0.7997936607013258  1.0000
  C   C22       1.0  0.5309903205288291  0.6901791100576208  0.2999202570045085  1.0000
  C   C23       1.0  0.3274615056368332  0.15793969138801608  0.7671314458616794  1.0000
  C   C24       1.0  0.4853268404985086  0.8419568475637149  0.2672967158776984  1.0000
  C   C25       1.0  0.2594323706426636  0.05784115745330352  0.7466539330603297  1.0000
  C   C26       1.0  0.3171564946202707  0.9421237543200432  0.24692273900378586  1.0000
  C   C27       1.0  0.08151553686748508  0.10895194371890685  0.7585964453346179  1.0000
  C   C28       1.0  0.19023278313682784  0.891146771049542  0.2589321285554007  1.0000
  C   C29       1.0  0.7892884842052935  0.38270804149994586  0.04580415942133701  1.0000
  C   C30       1.0  0.17195985167823818  0.6174870507915033  0.5460900853124501  1.0000
  C   C31       1.0  0.8311653061924603  0.37582324392596433  0.1479716051891842  1.0000
  C   C32       1.0  0.20720538353020854  0.6245610196152854  0.6481964387466661  1.0000
  C   C33       1.0  0.9285398766698378  0.4738028025325535  0.14746757292040516  1.0000
  C   C34       1.0  0.4025889254289791  0.526425263039805  0.6475436759265848  1.0000
  C   C35       1.0  0.8322178384764595  0.6030097318059335  0.07801475652401993  1.0000
  C   C36       1.0  0.4352344323548321  0.3971588918816807  0.5781111285897182  1.0000
  C   C37       1.0  0.2831477611642441  0.7020305443559138  0.9024701629276423  1.0000
  C   C38       1.0  0.9855060689964568  0.2976294303741157  0.40242057465630415  1.0000
  C   C39       1.0  0.14597431374392034  0.7757165235063895  0.9809116285209286  1.0000
  C   C40       1.0  0.9221748343165428  0.22378805249670117  0.48077700324861894  1.0000
  C   C41       1.0  0.14944796913659522  0.9312432439659589  0.9958543476843219  1.0000
  C   C42       1.0  0.08142792949864489  0.06842089349743934  0.4957380500898482  1.0000
  C   C43       1.0  0.34017839735142247  0.8854342022800881  0.9826865814287589  1.0000
  C   C44       1.0  0.22609938861585732  0.11449963169057752  0.48262139291116324  1.0000
  O   O1        1.0  0.8070583491331929  0.9471635999731735  0.8125373397920799  1.0000
  O   O2        1.0  0.7537527432204811  0.053140267738626804  0.3127474852341266  1.0000
  O   O3        1.0  0.7643699478181032  0.7425243995948991  0.8487743631440952  1.0000
  O   O4        1.0  0.5063363614863404  0.2578259736964129  0.3488473936774241  1.0000
  O   O5        1.0  0.7735643318991164  0.05568641466308581  0.653404016882604  1.0000
  O   O6        1.0  0.8293463582452102  0.9443124805426141  0.15365274965543566  1.0000
  O   O7        1.0  0.7290229690132932  0.21391315825837157  0.7855905223054125  1.0000
  O   O8        1.0  0.9425774554952826  0.7863880227895876  0.2859770083625151  1.0000
  O   O9        1.0  0.6835312878183402  0.448412006498174  0.8297662811505335  1.0000
  O   O10       1.0  0.13157929445847558  0.5519115283785327  0.3300983608374893  1.0000
  O   O11       1.0  0.018903686968101904  0.009628021511140604  0.7393362879570802  1.0000
  O   O12       1.0  0.028300098191401196  0.9905554214613235  0.2397644949805624  1.0000
  O   O13       1.0  0.7585766958913637  0.5371837980947519  0.014174523588060591  1.0000
  O   O14       1.0  0.29547157699843735  0.46286900972740613  0.5144731759048541  1.0000
  O   O15       1.0  0.40875953403212867  0.7592325069742644  0.914466348099012  1.0000
  O   O16       1.0  0.1682448614144505  0.24068062417131142  0.4144496749432491  1.0000
