data_image0
_chemical_formula_structural       Zn2H50C52N2O8
_chemical_formula_sum              "Zn2 H50 C52 N2 O8"
_cell_length_a       8.901867919733071
_cell_length_b       18.232543951838508
_cell_length_c       19.693229236018503
_cell_angle_alpha    88.79663962037118
_cell_angle_beta     88.43560349055355
_cell_angle_gamma    79.59758178270982

_space_group_name_H-M_alt    "P 1"
_space_group_IT_number       1

loop_
  _space_group_symop_operation_xyz
  'x, y, z'

loop_
  _atom_site_type_symbol
  _atom_site_label
  _atom_site_symmetry_multiplicity
  _atom_site_fract_x
  _atom_site_fract_y
  _atom_site_fract_z
  _atom_site_occupancy
  Zn  Zn1       1.0  0.48736684651406387  0.5784917368312891  0.4985469271421579  1.0000
  Zn  Zn2       1.0  0.513197982746604  0.4219633910770426  0.5020849752215355  1.0000
  H   H1        1.0  0.035356062744362864  0.4148241757837851  0.4962668881485328  1.0000
  H   H2        1.0  0.5117411025728914  0.6155364645488106  0.2809588183691218  1.0000
  H   H3        1.0  0.48572849537541885  0.383492898835634  0.8470247564293985  1.0000
  H   H4        1.0  0.5124828827615743  0.6164125357655124  0.1540800776664852  1.0000
  H   H5        1.0  0.5121401167041171  0.617065074319065  0.841676709489846  1.0000
  H   H6        1.0  0.4861532425761297  0.38281882569904724  0.1584263377308446  1.0000
  H   H7        1.0  0.5102819932586939  0.6163272023576951  0.7148562907600322  1.0000
  H   H8        1.0  0.4884839974094532  0.3828446228479835  0.2852480372361654  1.0000
  H   H9        1.0  0.6724267423232606  0.5690326766853389  0.9343359351486455  1.0000
  H   H10       1.0  0.32612794234077563  0.4312408460240604  0.0662849640094834  1.0000
  H   H11       1.0  0.6722504936035422  0.5686166047370733  0.059868966303277184  1.0000
  H   H12       1.0  0.9650016949543103  0.5862713309463459  0.504803108901676  1.0000
  H   H13       1.0  0.32621597824607573  0.4316739769013225  0.9407594171192103  1.0000
  H   H14       1.0  0.2753180600302158  0.7133746568221613  0.5358315268274013  1.0000
  H   H15       1.0  0.6966016347055373  0.2917124908942341  0.43925576285228374  1.0000
  H   H16       1.0  0.9807910280455094  0.8372360779449866  0.3413169202707849  1.0000
  H   H17       1.0  0.06987725641612041  0.8373729659624445  0.4207894100181591  1.0000
  H   H18       1.0  0.12304223011453536  0.7604367126645855  0.3660088269495461  1.0000
  H   H19       1.0  0.9519558991325854  0.7251933395899997  0.45849537977269966  1.0000
  H   H20       1.0  0.8605076588424865  0.7287212401607377  0.3800588404999843  1.0000
  H   H21       1.0  0.7291520576720459  0.8622130280813993  0.4057704994004752  1.0000
  H   H22       1.0  0.8110515364662093  0.8532903681392839  0.485591759581105  1.0000
  H   H23       1.0  0.71694108106594  0.6731442068274517  0.45834416942505385  1.0000
  H   H24       1.0  0.969636763145651  0.15641778809195017  0.6149595073239382  1.0000
  H   H25       1.0  0.0798347915100379  0.15355604357893782  0.6890226112586788  1.0000
  H   H26       1.0  0.9310505065835315  0.2307398490546646  0.6733024024415286  1.0000
  H   H27       1.0  0.18580651572808907  0.2655327077652174  0.6454828407870252  1.0000
  H   H28       1.0  0.07634881767849323  0.2691189463897956  0.5719114345361901  1.0000
  H   H29       1.0  0.2131535238849693  0.1399577041378279  0.5415559232477989  1.0000
  H   H30       1.0  0.31961019198559626  0.13542840906152517  0.6149705166525621  1.0000
  H   H31       1.0  0.06942724629303151  0.9921986788465987  0.6120815980498122  1.0000
  H   H32       1.0  0.9836180696421405  0.9146295512509256  0.6364128332541341  1.0000
  H   H33       1.0  0.08729818294312972  0.9557607189853812  0.6963665386686985  1.0000
  H   H34       1.0  0.3103480433702616  0.32317981220084846  0.5633020936089109  1.0000
  H   H35       1.0  0.2477421079243315  0.8367417213858559  0.653362151401133  1.0000
  H   H36       1.0  0.33074625765088683  0.9141262131673358  0.6280845102876995  1.0000
  H   H37       1.0  0.20388375947646162  0.916138633153018  0.5146599533277582  1.0000
  H   H38       1.0  0.12855558986002796  0.8365095709569985  0.5404057967476846  1.0000
  H   H39       1.0  0.9629433070349266  0.007766501394442599  0.4157199301080681  1.0000
  H   H40       1.0  0.04828573003339189  0.08369231573579582  0.3861008646642432  1.0000
  H   H41       1.0  0.10486646342119604  0.0381468500602509  0.46426642662424905  1.0000
  H   H42       1.0  0.928172071136103  0.1594896842699143  0.48711730018099797  1.0000
  H   H43       1.0  0.8433422855110919  0.08373308454726211  0.5150803284122887  1.0000
  H   H44       1.0  0.7027489890017691  0.09200567431813061  0.4036826731296729  1.0000
  H   H45       1.0  0.6252108372126272  0.9186014340986548  0.591756442864046  1.0000
  H   H46       1.0  0.7804535314976278  0.172165671242297  0.3813749354947547  1.0000
  H   H47       1.0  0.38045294715724504  0.08174662579525462  0.4052722993988098  1.0000
  H   H48       1.0  0.6226414339066794  0.05515043259278231  0.5929848732848484  1.0000
  H   H49       1.0  0.3813702422352848  0.945220040832659  0.4044665540035481  1.0000
  H   H50       1.0  0.48626970507928047  0.3837383781147069  0.7201775263154672  1.0000
  C   C1        1.0  0.5013463325686305  0.4991323701588043  0.3667510747631511  1.0000
  C   C2        1.0  0.6115150565882319  0.2651169249474776  0.4663039040799505  1.0000
  C   C3        1.0  0.36911265364076234  0.8148400214672051  0.5209213909858619  1.0000
  C   C4        1.0  0.6157877286594058  0.18835832801404  0.4633682866573849  1.0000
  C   C5        1.0  0.5007639288350988  0.8416401146464878  0.49812694009288094  1.0000
  C   C6        1.0  0.5014832908738998  0.15896198299630981  0.49981546555305567  1.0000
  C   C7        1.0  0.6303224532381152  0.7915371874579691  0.474109158795926  1.0000
  C   C8        1.0  0.3872704650602117  0.20661297349510482  0.5370894424569457  1.0000
  C   C9        1.0  0.6220712275762638  0.715744092639561  0.4754159416618009  1.0000
  C   C10       1.0  0.394426908261984  0.2824993628416479  0.536311000059534  1.0000
  C   C11       1.0  0.5711751855392039  0.9544481258586618  0.5509035210051323  1.0000
  C   C12       1.0  0.49802666852539096  0.49964301742074474  0.633873341514672  1.0000
  C   C13       1.0  0.4341030845733513  0.04592071685379301  0.4461862729262833  1.0000
  C   C14       1.0  0.5700475693409502  0.030955210131736504  0.5515064860730376  1.0000
  C   C15       1.0  0.43444319177717733  0.9694384835200721  0.44577422849159387  1.0000
  C   C16       1.0  0.7983007154164881  0.47718580975383407  0.49773652232815374  1.0000
  C   C17       1.0  0.20213703579468503  0.524363908089029  0.502943264277512  1.0000
  C   C18       1.0  0.5014601546195935  0.0774582014873459  0.4991570429776218  1.0000
  C   C19       1.0  0.5025283093672287  0.9229922077569696  0.4982125176999261  1.0000
  C   C20       1.0  0.9667260894184506  0.4706764951468826  0.4984476485012195  1.0000
  C   C21       1.0  0.033841874909384756  0.5304956270562045  0.5024771406187726  1.0000
  C   C22       1.0  0.49058733596782395  0.4345935520089057  0.7475924434120031  1.0000
  C   C23       1.0  0.5943319800994901  0.5397208153515791  0.9631685803112049  1.0000
  C   C24       1.0  0.5075852716638992  0.564818070098376  0.2533014213862402  1.0000
  C   C25       1.0  0.48988775695695363  0.4348977074895686  0.8182142734128348  1.0000
  C   C26       1.0  0.5084093450315665  0.5648658139179119  0.18266588517264637  1.0000
  C   C27       1.0  0.49912196019334226  0.5002936177825816  0.8532950912380884  1.0000
  C   C28       1.0  0.49941266402542794  0.4996058004298902  0.1473380741769859  1.0000
  C   C29       1.0  0.5077057684541515  0.5655644309158206  0.8151750807974238  1.0000
  C   C30       1.0  0.4907115923765346  0.4341544329528589  0.1851857394070109  1.0000
  C   C31       1.0  0.5059201770615971  0.5656041959571142  0.74454882646112  1.0000
  C   C32       1.0  0.4926472529530557  0.43374651199188463  0.2558140321281286  1.0000
  C   C33       1.0  0.49799506476015404  0.5000207060280742  0.710027590581717  1.0000
  C   C34       1.0  0.4042226588516512  0.46051890117356487  0.0374363850163633  1.0000
  C   C35       1.0  0.5005800572261305  0.49915993415906007  0.2905963320898691  1.0000
  C   C36       1.0  0.7687503555487397  0.8206378197107825  0.4460267317860485  1.0000
  C   C37       1.0  0.9020139895252157  0.7636133392160147  0.41779309393425024  1.0000
  C   C38       1.0  0.02592551624332643  0.8016304345449256  0.38464824369798833  1.0000
  C   C39       1.0  0.2641198528162008  0.17507134697891755  0.5761308355019779  1.0000
  C   C40       1.0  0.13672417221189195  0.23063284838270456  0.6102307410312093  1.0000
  C   C41       1.0  0.02293716015051221  0.19078647380774066  0.6490704060012078  1.0000
  C   C42       1.0  0.2263003829004405  0.8650789725255521  0.546384318746199  1.0000
  C   C43       1.0  0.23083702445261872  0.8874452501408713  0.6210226897472637  1.0000
  C   C44       1.0  0.08497926610929352  0.940382250635153  0.6428343682899111  1.0000
  C   C45       1.0  0.5942658185713514  0.5394749577299791  0.0338427556488199  1.0000
  C   C46       1.0  0.7436095404375179  0.1400682863074891  0.42473857587325625  1.0000
  C   C47       1.0  0.8820862046566162  0.11133923841052251  0.46926594590858883  1.0000
  C   C48       1.0  0.006415476442313699  0.05728970897442309  0.4318751517951753  1.0000
  C   C49       1.0  0.40424650953831076  0.4607802622651747  0.9667927918553118  1.0000
  C   C50       1.0  0.49929851411712195  0.4998423196241789  0.0724145574388331  1.0000
  C   C51       1.0  0.4993617086694043  0.5003227530551726  0.9282001181119526  1.0000
  C   C52       1.0  0.3737978718198677  0.737966644789239  0.519549056506186  1.0000
  N   N1        1.0  0.49678260189306667  0.690008641466747  0.49767228258129137  1.0000
  N   N2        1.0  0.5043520320063878  0.3105757087044267  0.5019529549223094  1.0000
  O   O1        1.0  0.4855646162464425  0.5624112758563911  0.3949938753438715  1.0000
  O   O2        1.0  0.5087108401023387  0.4363881468477331  0.6059486424223408  1.0000
  O   O3        1.0  0.5174852536625494  0.4359670838333756  0.3972513056057139  1.0000
  O   O4        1.0  0.48774120312429375  0.5624187502556525  0.6030548762454018  1.0000
  O   O5        1.0  0.7191720133551839  0.5427137252350676  0.4953942263433291  1.0000
  O   O6        1.0  0.28183624595384765  0.45899003233344626  0.5031268404361882  1.0000
  O   O7        1.0  0.7466687287278617  0.416255471359257  0.5000015224105638  1.0000
  O   O8        1.0  0.2530408887674014  0.585543938761802  0.5024913467448685  1.0000
