data_image0
_chemical_formula_structural       Zn2H42C48N24O20
_chemical_formula_sum              "Zn2 H42 C48 N24 O20"
_cell_length_a       16.46207340604797
_cell_length_b       17.087937785946213
_cell_length_c       18.82378291141541
_cell_angle_alpha    87.95716636171666
_cell_angle_beta     86.55322441841405
_cell_angle_gamma    85.47611564529682

_space_group_name_H-M_alt    "P 1"
_space_group_IT_number       1

loop_
  _space_group_symop_operation_xyz
  'x, y, z'

loop_
  _atom_site_type_symbol
  _atom_site_label
  _atom_site_symmetry_multiplicity
  _atom_site_fract_x
  _atom_site_fract_y
  _atom_site_fract_z
  _atom_site_occupancy
  Zn  Zn1       1.0  0.5959891354120544  0.5014674511207745  0.4944219542336157  1.0000
  Zn  Zn2       1.0  0.41460769985064166  0.5074531043116224  0.4919599968562308  1.0000
  H   H1        1.0  0.6152104562550917  0.49315163175993587  0.711092982540471  1.0000
  H   H2        1.0  0.41556218386902083  0.4564290368242254  0.313044547368257  1.0000
  H   H3        1.0  0.3667350612167938  0.4322584225167887  0.8574440409185514  1.0000
  H   H4        1.0  0.6106733710185992  0.5197363409023339  0.11338150982655289  1.0000
  H   H5        1.0  0.5638357908104794  0.9028930640298185  0.5731428939955093  1.0000
  H   H6        1.0  0.42147125128399676  0.1063124435122518  0.42002987963965666  1.0000
  H   H7        1.0  0.6111506816077822  0.1167108429637409  0.5653467335209044  1.0000
  H   H8        1.0  0.39409112824175446  0.8890677771890553  0.4103809049788509  1.0000
  H   H9        1.0  0.6075924205239784  0.2632098931973346  0.5446720008496371  1.0000
  H   H10       1.0  0.3924473646718242  0.743569977269793  0.4355350124313659  1.0000
  H   H11       1.0  0.9560171646316818  0.3987708187861685  0.5793894852249648  1.0000
  H   H12       1.0  0.8485947646673111  0.30695264337254  0.4984424561266962  1.0000
  H   H13       1.0  0.9294774598880908  0.2668910452929013  0.5509382225873694  1.0000
  H   H14       1.0  0.9517642360532861  0.3234529633772922  0.4712449350963083  1.0000
  H   H15       1.0  0.11913147122935194  0.6730530940304507  0.44399085949992667  1.0000
  H   H16       1.0  0.11384229362509052  0.6977412102437198  0.5767778071505488  1.0000
  H   H17       1.0  0.0266018706741704  0.6410454203200899  0.5804566119471346  1.0000
  H   H18       1.0  0.025152186435924807  0.730404868134734  0.5295269765506134  1.0000
  H   H19       1.0  0.35800728923879194  0.37243665996108893  0.5054587282452231  1.0000
  H   H20       1.0  0.3317221876917671  0.24787588997861587  0.5253212627234305  1.0000
  H   H21       1.0  0.2254842912930215  0.2725173598741576  0.5186079974094894  1.0000
  H   H22       1.0  0.2694729264872535  0.27591813615807587  0.6027621195832396  1.0000
  H   H23       1.0  0.6473753559648329  0.6407099938291552  0.4783184219611556  1.0000
  H   H24       1.0  0.6754023485675731  0.7643406611314205  0.4582614503333389  1.0000
  H   H25       1.0  0.7481192546160571  0.7327586266719165  0.3885486097012246  1.0000
  H   H26       1.0  0.779316106108901  0.7413120413865143  0.4769186790528579  1.0000
  H   H27       1.0  0.3490043254211558  0.44892130929051893  0.6643853833081222  1.0000
  H   H28       1.0  0.21959075765521863  0.4421974785969026  0.7205100015324888  1.0000
  H   H29       1.0  0.2551042860952037  0.4860588876705095  0.7964453672341277  1.0000
  H   H30       1.0  0.2657181824222478  0.3820674354888567  0.7879646710518458  1.0000
  H   H31       1.0  0.6769717101038849  0.5888160936470328  0.1858259123271679  1.0000
  H   H32       1.0  0.683988446423534  0.6860017483394787  0.2628376165829636  1.0000
  H   H33       1.0  0.6835541999657125  0.6101893185133491  0.3308932427261624  1.0000
  H   H34       1.0  0.5903855533180434  0.66180713783978  0.30760126772765517  1.0000
  H   H35       1.0  0.5998121184413706  0.7938531161240688  0.6387150840901512  1.0000
  H   H36       1.0  0.5771600512716334  0.6893866778494628  0.7085055542976164  1.0000
  H   H37       1.0  0.5756580143707168  0.6292917162222126  0.6335426738460086  1.0000
  H   H38       1.0  0.484771614982357  0.6842828800086878  0.6649010472335701  1.0000
  H   H39       1.0  0.40050556248140623  0.3195096884083526  0.3851659101852434  1.0000
  H   H40       1.0  0.317757770588571  0.2600604565314343  0.3134498319255954  1.0000
  H   H41       1.0  0.30530605449801845  0.18749993227648792  0.3835460874530695  1.0000
  H   H42       1.0  0.38511262125603457  0.17352689075380573  0.3157735722649093  1.0000
  C   C1        1.0  0.5099395783761906  0.35477444076872894  0.4690444834789673  1.0000
  C   C2        1.0  0.4829127643323049  0.6538451282920833  0.5182286168797958  1.0000
  C   C3        1.0  0.49559994730036994  0.47278838663762474  0.6286123719725367  1.0000
  C   C4        1.0  0.5296437083600055  0.5287939987711782  0.36057653358376024  1.0000
  C   C5        1.0  0.5600997975872345  0.48005117943679215  0.742594417551814  1.0000
  C   C6        1.0  0.45841639457194105  0.47101674626441803  0.2692865095913461  1.0000
  C   C7        1.0  0.5603643784943699  0.47948276136424545  0.8163605762887514  1.0000
  C   C8        1.0  0.45004582133263676  0.44102754084781987  0.2028407020795129  1.0000
  C   C9        1.0  0.4900709902065046  0.4600831895749593  0.8580776131367499  1.0000
  C   C10       1.0  0.5060310408979803  0.45869429664167444  0.1457471983213452  1.0000
  C   C11       1.0  0.4198480732943892  0.4479136098262161  0.8243526592324101  1.0000
  C   C12       1.0  0.5694653853048521  0.5038314173648856  0.1583560501464305  1.0000
  C   C13       1.0  0.4163330744311793  0.45341944998176587  0.7491205641002736  1.0000
  C   C14       1.0  0.5799516433931516  0.534395355715027  0.2262918038517512  1.0000
  C   C15       1.0  0.4901744886775177  0.4670601884889081  0.7076485186344286  1.0000
  C   C16       1.0  0.5229933183861989  0.5154425922019711  0.2831492898424273  1.0000
  C   C17       1.0  0.49476277028788473  0.44126013502772565  0.0709369149258521  1.0000
  C   C18       1.0  0.48930809488669513  0.4467159326126477  0.9357696610007054  1.0000
  C   C19       1.0  0.5113331175020264  0.2680249761551394  0.47278874612621985  1.0000
  C   C20       1.0  0.47837462115200674  0.7412480364939145  0.5170330041391508  1.0000
  C   C21       1.0  0.45704122929420526  0.2243997917856433  0.4353402744329955  1.0000
  C   C22       1.0  0.5274875174026121  0.7854968201719004  0.5579424887842492  1.0000
  C   C23       1.0  0.4612452447172615  0.14227853927206266  0.4466961785031742  1.0000
  C   C24       1.0  0.5279309751961139  0.8664839981069932  0.5425906225663795  1.0000
  C   C25       1.0  0.5162320207383077  0.10475637330577568  0.49309452533709225  1.0000
  C   C26       1.0  0.48071617559898533  0.9029212223059773  0.4896700822863025  1.0000
  C   C27       1.0  0.5695597549939109  0.1475734624133196  0.5290837753779128  1.0000
  C   C28       1.0  0.43070808510566383  0.8592223595338098  0.4509640862642925  1.0000
  C   C29       1.0  0.566970443382317  0.22830800760943498  0.517753172682525  1.0000
  C   C30       1.0  0.429643036767267  0.7791404479504819  0.4655172818065552  1.0000
  C   C31       1.0  0.2297658369651573  0.5623299562375337  0.4869241986964141  1.0000
  C   C32       1.0  0.7744768591437462  0.4601717297098276  0.5340634117611244  1.0000
  C   C33       1.0  0.1444270246234964  0.5677737667409204  0.49424744739561527  1.0000
  C   C34       1.0  0.8599949391646504  0.455311339448663  0.5333035296656377  1.0000
  C   C35       1.0  0.10970815498096442  0.4976143571261105  0.5195696613288731  1.0000
  C   C36       1.0  0.897046029964379  0.5201718459927704  0.49791165090027073  1.0000
  C   C37       1.0  0.16271180325849596  0.4339142307067903  0.5405409436144452  1.0000
  C   C38       1.0  0.8460376213372528  0.5801523235748435  0.46695693840225516  1.0000
  C   C39       1.0  0.24890642596695042  0.43166561214805205  0.5235276971982614  1.0000
  C   C40       1.0  0.7594894043325907  0.5824886574501562  0.47699168931770686  1.0000
  C   C41       1.0  0.9081350508425957  0.3173488962809614  0.5176477478934416  1.0000
  C   C42       1.0  0.06424303401157519  0.678954195572466  0.5460064157824149  1.0000
  C   C43       1.0  0.27996753629613386  0.28679442905288977  0.5451070127007966  1.0000
  C   C44       1.0  0.729607677166044  0.7248858306143902  0.4453635202557323  1.0000
  C   C45       1.0  0.26783839121268477  0.43870661120934773  0.7582395010131647  1.0000
  C   C46       1.0  0.6505015356702587  0.637534866967414  0.2863919265080455  1.0000
  C   C47       1.0  0.5516298992520207  0.6851809953604829  0.6564170084791029  1.0000
  C   C48       1.0  0.35028355847653364  0.2178972066592948  0.3489133430976423  1.0000
  N   N1        1.0  0.4207647967579362  0.47142941135309263  0.9742276270162903  1.0000
  N   N2        1.0  0.5553079748525535  0.4008482765734557  0.033487569653786395  1.0000
  N   N3        1.0  0.42306198135177203  0.46800417332406863  0.044115994440602394  1.0000
  N   N4        1.0  0.551610186992285  0.401905360031826  0.963433741280177  1.0000
  N   N5        1.0  0.5218302081676783  0.022980219030117204  0.5085254615299846  1.0000
  N   N6        1.0  0.4769080435356516  0.9843291928455499  0.4727358439425302  1.0000
  N   N7        1.0  0.2814662010490778  0.4989985159094915  0.4967543247458294  1.0000
  N   N8        1.0  0.7249727260998355  0.517191910728144  0.5072458599926222  1.0000
  N   N9        1.0  0.024465643049929  0.4961146411502428  0.5346271254296582  1.0000
  N   N10       1.0  0.9812790808247058  0.5205753255079699  0.4834157198567439  1.0000
  N   N11       1.0  0.9014242005956064  0.3881653592711913  0.5604928268265893  1.0000
  N   N12       1.0  0.09533033574653159  0.636729751372549  0.48230722770986023  1.0000
  N   N13       1.0  0.1292037176316398  0.37143191730958586  0.5844465259481736  1.0000
  N   N14       1.0  0.883018876364872  0.6388199786631361  0.4198399195114675  1.0000
  N   N15       1.0  0.29970842877106196  0.3668078807863893  0.5282400444272568  1.0000
  N   N16       1.0  0.7085050564455031  0.6455559489251712  0.46346140262785696  1.0000
  N   N17       1.0  0.6305652255602751  0.507460373092485  0.8482062452486119  1.0000
  N   N18       1.0  0.3886519349769415  0.38572900571767116  0.19626210833992266  1.0000
  N   N19       1.0  0.34530755550449743  0.44567023544320244  0.7187739078214932  1.0000
  N   N20       1.0  0.6411065273083808  0.5825833236715281  0.23100596382957408  1.0000
  N   N21       1.0  0.5740446885419104  0.7527059574676545  0.6118856318744149  1.0000
  N   N22       1.0  0.4033359680591246  0.2600909160113574  0.3896863224040884  1.0000
  N   N23       1.0  0.7348361777207373  0.39575888197570197  0.5751490263535715  1.0000
  N   N24       1.0  0.2668852996072815  0.6351471848841328  0.4599613032675904  1.0000
  O   O1        1.0  0.5738053515847952  0.38670211294599716  0.4822201764239793  1.0000
  O   O2        1.0  0.4173858221365734  0.6191272050597763  0.5258853189311593  1.0000
  O   O3        1.0  0.44167866732814803  0.39417750794242323  0.45427163132425347  1.0000
  O   O4        1.0  0.5542052074728829  0.6191695419575822  0.5072228678109809  1.0000
  O   O5        1.0  0.5645017181535933  0.4871741814077383  0.5990246475017145  1.0000
  O   O6        1.0  0.4626254423652653  0.5448795094966244  0.39624591481100413  1.0000
  O   O7        1.0  0.4312444858076674  0.4640346056897828  0.594700798353429  1.0000
  O   O8        1.0  0.599765196091596  0.5174405099188277  0.3865746895570226  1.0000
  O   O9        1.0  0.0699952170067064  0.33926461710384365  0.5640087819598988  1.0000
  O   O10       1.0  0.1611820267069817  0.3559698346555535  0.642002971743679  1.0000
  O   O11       1.0  0.8591052711816615  0.6434713560336647  0.358162100551084  1.0000
  O   O12       1.0  0.9348660234543689  0.6786082150563858  0.44265135087286467  1.0000
  O   O13       1.0  0.6196941284243066  0.5349184166636434  0.9090387725414217  1.0000
  O   O14       1.0  0.6966505428843917  0.5056523666354238  0.8124733488681671  1.0000
  O   O15       1.0  0.39561440196288095  0.34222985466652744  0.1442745670657004  1.0000
  O   O16       1.0  0.3331696253761365  0.38289306579385135  0.24446727171529398  1.0000
  O   O17       1.0  0.7208148051736317  0.4063422485786035  0.6391328866432815  1.0000
  O   O18       1.0  0.7209224601951334  0.3376900360483575  0.541948952593124  1.0000
  O   O19       1.0  0.25323290002302207  0.6936205161604931  0.4968010566919716  1.0000
  O   O20       1.0  0.3059360436306022  0.6315261261666123  0.4019300887431426  1.0000
