data_image0
_chemical_formula_structural       Cd2H56C56I4N4O4
_chemical_formula_sum              "Cd2 H56 C56 I4 N4 O4"
_cell_length_a       6.984212381
_cell_length_b       13.942661845
_cell_length_c       14.392
_cell_angle_alpha    90.0
_cell_angle_beta     90.0
_cell_angle_gamma    90.0

_space_group_name_H-M_alt    "P 1"
_space_group_IT_number       1

loop_
  _space_group_symop_operation_xyz
  'x, y, z'

loop_
  _atom_site_type_symbol
  _atom_site_label
  _atom_site_symmetry_multiplicity
  _atom_site_fract_x
  _atom_site_fract_y
  _atom_site_fract_z
  _atom_site_occupancy
  Cd  Cd1       1.0  0.7070546728266791  0.4999992166130056  0.9999993051695384  1.0000
  Cd  Cd2       1.0  0.29294355446090486  0.9999991504491632  0.4999993051695384  1.0000
  H   H1        1.0  0.2872807827921093  0.5974576513872236  0.98444760978321  1.0000
  H   H2        1.0  0.2872750555894044  0.4025386301692961  0.015551000555866801  1.0000
  H   H3        1.0  0.7127246034988559  0.902539998451779  0.4844510839355181  1.0000
  H   H4        1.0  0.7127203080968272  0.0974584347742251  0.5155510005558668  1.0000
  H   H5        1.0  0.025494642815331793  0.6159720500630144  0.874019594219007  1.0000
  H   H6        1.0  0.0254917792139793  0.384027817609315  0.125980405780993  1.0000
  H   H7        1.0  0.974507879874281  0.8840263169991545  0.3740202890494686  1.0000
  H   H8        1.0  0.9745064480736048  0.1159713990036906  0.625980405780993  1.0000
  H   H9        1.0  0.40066651002948817  0.5039317512042842  0.6606823235130648  1.0000
  H   H10       1.0  0.4006636464281357  0.4960717025838477  0.3393148971650888  1.0000
  H   H11       1.0  0.5993374444608008  0.9960723536431714  0.1606857976653728  1.0000
  H   H12       1.0  0.5993302854574267  0.0039289484754761  0.839316286826012  1.0000
  H   H13       1.0  0.6486114328830581  0.4842948982816679  0.7827362423568616  1.0000
  H   H14       1.0  0.6486085692817054  0.5157049693906544  0.2172595886603688  1.0000
  H   H15       1.0  0.3513925216072238  0.0157057527776558  0.2827404113396312  1.0000
  H   H16       1.0  0.3513882262052021  0.9842941148946733  0.717260978321292  1.0000
  H   H17       1.0  0.9056411310181784  0.692248016002857  0.7601229849916606  1.0000
  H   H18       1.0  0.9056425628188549  0.3077540033389496  0.2398770150083394  1.0000
  H   H19       1.0  0.0943556644687291  0.8077532199519551  0.2601236798221223  1.0000
  H   H20       1.0  0.09435280086738368  0.1922473649435332  0.7398763201778777  1.0000
  H   H21       1.0  0.6393476825171617  0.7811793846169975  0.7178168426903824  1.0000
  H   H22       1.0  0.6393491143178308  0.21881976583216559  0.2821831573096176  1.0000
  H   H23       1.0  0.36065197657109843  0.7188211341146555  0.21781753752084404  1.0000
  H   H24       1.0  0.36065340837177456  0.281179450780833  0.7821817676486944  1.0000
  H   H25       1.0  0.4579829228420493  0.7156933239099175  0.6583928571428572  1.0000
  H   H26       1.0  0.4579843546427256  0.2843065437624119  0.34160714285714283  1.0000
  H   H27       1.0  0.5420167362462109  0.7843079120448947  0.1583942468037804  1.0000
  H   H28       1.0  0.5420153044455347  0.2156919556274275  0.8416057531962196  1.0000
  H   H29       1.0  0.6073540964389536  0.7939445224349129  0.5962625069483067  1.0000
  H   H30       1.0  0.607356960040299  0.2060560624605756  0.4037381878821549  1.0000
  H   H31       1.0  0.3926455626493066  0.7060567135198994  0.0962632017787683  1.0000
  H   H32       1.0  0.3926455626493066  0.2939438713755891  0.9037367982212317  1.0000
  H   H33       1.0  0.5954859006456061  0.5807406139526847  0.4239911061700923  1.0000
  H   H34       1.0  0.5954830370442608  0.4192585364964784  0.5760075041689845  1.0000
  H   H35       1.0  0.4045180538446757  0.9192584703326432  0.9239931906614771  1.0000
  H   H36       1.0  0.4045180538446757  0.0807413973396862  0.0760068093385229  1.0000
  H   H37       1.0  0.5927411387520323  0.7021664950951134  0.4616147859922179  1.0000
  H   H38       1.0  0.5927397069513631  0.2978319381308907  0.5383838243468588  1.0000
  H   H39       1.0  0.40725852033622795  0.7978325891902145  0.9616168704836028  1.0000
  H   H40       1.0  0.40725995213689703  0.202167995705274  0.0383824346859356  1.0000
  H   H41       1.0  0.4362796882135669  0.6183912437847707  0.5130746247915496  1.0000
  H   H42       1.0  0.4362782564128906  0.3816079066643994  0.4869225958866039  1.0000
  H   H43       1.0  0.5637228344760459  0.8816078405005568  0.0130767092829345  1.0000
  H   H44       1.0  0.5637228344760459  0.1183927443949244  0.9869219010561423  1.0000
  H   H45       1.0  0.1960450119937462  0.2998824791479393  0.615193162868259  1.0000
  H   H46       1.0  0.1960450119937462  0.700117388524383  0.3848117009449723  1.0000
  H   H47       1.0  0.8039575106958663  0.2001181719113845  0.1151889938854893  1.0000
  H   H48       1.0  0.8039575106958663  0.799882412984104  0.8848110061145107  1.0000
  H   H49       1.0  0.9471848275972405  0.3264548800365716  0.602447192884938  1.0000
  H   H50       1.0  0.9471862593979168  0.6735442704125916  0.3975569760978317  1.0000
  H   H51       1.0  0.052816263291696  0.1735443365764269  0.1024437187326299  1.0000
  H   H52       1.0  0.052816263291696  0.8264569655422207  0.8975569760978317  1.0000
  H   H53       1.0  0.0682668243733673  0.359377574791921  0.7081746803779865  1.0000
  H   H54       1.0  0.0682682561740364  0.6406237273267266  0.2918287937743216  1.0000
  H   H55       1.0  0.9317342665155692  0.140624510713721  0.20817190105614  1.0000
  H   H56       1.0  0.931732834714893  0.8593767914049266  0.7918287937743216  1.0000
  C   C1        1.0  0.3094522162412474  0.5777806339675989  0.9118413007226208  1.0000
  C   C2        1.0  0.3094493526398949  0.4222177992584051  0.0881566147859942  1.0000
  C   C3        1.0  0.6905503064483653  0.9222184503177286  0.4118433852140058  1.0000
  C   C4        1.0  0.6905460110463364  0.0777814173546005  0.5881573096164558  1.0000
  C   C5        1.0  0.16174765862979967  0.588630785945881  0.8485234852695953  1.0000
  C   C6        1.0  0.1617447950284472  0.4113683645032822  0.1514744302390199  1.0000
  C   C7        1.0  0.8382505686577842  0.9113668638931287  0.3485241801000569  1.0000
  C   C8        1.0  0.8382505686577842  0.0886308521097163  0.6514765147304047  1.0000
  C   C9        1.0  0.1872408696444552  0.5613182107551893  0.7552584769316297  1.0000
  C   C10       1.0  0.18723800604310264  0.4386830913634654  0.2447408282379087  1.0000
  C   C11       1.0  0.8127630848458267  0.938683025199623  0.2552605614230146  1.0000
  C   C12       1.0  0.8127573576431286  0.061317559695858385  0.7447415230683703  1.0000
  C   C13       1.0  0.36905091932942463  0.5249973126634373  0.7316599499722045  1.0000
  C   C14       1.0  0.3690494875287484  0.4750039894552174  0.2683365758754874  1.0000
  C   C15       1.0  0.6309530351608572  0.9750039232913748  0.2316634241245126  1.0000
  C   C16       1.0  0.6309487397588355  0.0249966616041064  0.768337270705949  1.0000
  C   C17       1.0  0.5087989605910579  0.514755365925609  0.7994337131739826  1.0000
  C   C18       1.0  0.5087960969897054  0.4852445017467204  0.200563507504171  1.0000
  C   C19       1.0  0.49120499389922395  0.9852437183597187  0.299436492495829  1.0000
  C   C20       1.0  0.4911992666965261  0.0147568665357696  0.7005655919955558  1.0000
  C   C21       1.0  0.030885372355918192  0.572638143903859  0.6873770150083374  1.0000
  C   C22       1.0  0.030882508754565694  0.4273638754379476  0.312622290161201  1.0000
  C   C23       1.0  0.9691142867323419  0.9273638092741122  0.18737909949972223  1.0000
  C   C24       1.0  0.9691114231309896  0.0726374928445352  0.812622290161201  1.0000
  C   C25       1.0  0.012155987728974098  0.5148672527387106  0.607669538632571  1.0000
  C   C26       1.0  0.012155987728974098  0.4851333321567779  0.3923311561978906  1.0000
  C   C27       1.0  0.9878436713592861  0.9851332659929426  0.1076702334630326  1.0000
  C   C28       1.0  0.98784223955861  0.0148680361257121  0.8923311561978906  1.0000
  C   C29       1.0  0.8658070044448178  0.5307953446962514  0.5423978599221755  1.0000
  C   C30       1.0  0.8658098680461634  0.4692038057529189  0.457602834908279  1.0000
  C   C31       1.0  0.134191222842766  0.9692044568122427  0.0423978599221755  1.0000
  C   C32       1.0  0.134191222842766  0.030796128083245795  0.957602834908279  1.0000
  C   C33       1.0  0.7327669493445796  0.6052517154768609  0.5561402167871066  1.0000
  C   C34       1.0  0.7327669493445796  0.3947474349723095  0.4438590883824318  1.0000
  C   C35       1.0  0.2672341415443569  0.8947480860316332  0.0561423012784914  1.0000
  C   C36       1.0  0.2672327097436806  0.10525249886385517  0.9438576987215086  1.0000
  C   C37       1.0  0.7456760642284905  0.662087347640181  0.6372165091717648  1.0000
  C   C38       1.0  0.7456774960291667  0.3379132372553073  0.3627834908282352  1.0000
  C   C39       1.0  0.2543235948597626  0.8379146055377902  0.1372165091717648  1.0000
  C   C40       1.0  0.2543207312584173  0.16208669658085736  0.8627841856586969  1.0000
  C   C41       1.0  0.8930040582624699  0.6449715341281745  0.7001389660922754  1.0000
  C   C42       1.0  0.8930026264617936  0.3550290507673139  0.2998596442468013  1.0000
  C   C43       1.0  0.10699703262645947  0.8550289846034785  0.2001403557531987  1.0000
  C   C44       1.0  0.1069941690251142  0.1449716002920098  0.799860339077263  1.0000
  C   C45       1.0  0.6061399294667282  0.742013262245905  0.6537715397443051  1.0000
  C   C46       1.0  0.6061413612674044  0.2579866054264173  0.3462277654252333  1.0000
  C   C47       1.0  0.39385972962153193  0.7579872564857408  0.1537729294052284  1.0000
  C   C48       1.0  0.39385972962153193  0.2420126111865812  0.8462263757643171  1.0000
  C   C49       1.0  0.5817921589919095  0.6271320424468029  0.4849888827126208  1.0000
  C   C50       1.0  0.5817907271912331  0.3728671080023602  0.515009727626456  1.0000
  C   C51       1.0  0.418208931897027  0.8728670418385249  0.9849895775430824  1.0000
  C   C52       1.0  0.418208931897027  0.1271328258338045  0.0150090327959944  1.0000
  C   C53       1.0  0.0833651624890379  0.3517097419786097  0.6322714007782082  1.0000
  C   C54       1.0  0.0833651624890379  0.6482915601400377  0.3677320733740999  1.0000
  C   C55       1.0  0.9166373602005746  0.1482916263038732  0.1322679266259001  1.0000
  C   C56       1.0  0.9166373602005746  0.8517089585916153  0.8677320733740999  1.0000
  I   I1        1.0  0.8902449783621478  0.6530187779936085  0.0790265425236214  1.0000
  I   I2        1.0  0.8902478419635002  0.3469803724555547  0.920972762645917  1.0000
  I   I3        1.0  0.1097532489254363  0.8469803062917194  0.579027237354083  1.0000
  I   I4        1.0  0.10975754432745789  0.1530195613806029  0.42097345747637865  1.0000
  N   N1        1.0  0.4807814849867498  0.5401156596723027  0.888754863813233  1.0000
  N   N2        1.0  0.4807786213853973  0.4598827735537014  0.1112416620344661  1.0000
  N   N3        1.0  0.519221037702863  0.9598834246130251  0.3887590327959956  1.0000
  N   N4        1.0  0.5192181741015105  0.04011572583613799  0.6112430516953893  1.0000
  O   O1        1.0  0.1401317638424757  0.4411395806895868  0.5908219844357987  1.0000
  O   O2        1.0  0.1401317638424757  0.5588581353132582  0.4091801000555861  1.0000
  O   O3        1.0  0.8598678952457843  0.0588596359234188  0.0908205947748755  1.0000
  O   O4        1.0  0.8598664634451082  0.9411416661952359  0.9091801000555861  1.0000
