data_image0
_chemical_formula_structural       Zn2H34C38N4O12
_chemical_formula_sum              "Zn2 H34 C38 N4 O12"
_cell_length_a       8.489866636559535
_cell_length_b       10.230589808875923
_cell_length_c       11.009204672016164
_cell_angle_alpha    65.28058406476107
_cell_angle_beta     72.19638470792428
_cell_angle_gamma    80.22557233036281

_space_group_name_H-M_alt    "P 1"
_space_group_IT_number       1

loop_
  _space_group_symop_operation_xyz
  'x, y, z'

loop_
  _atom_site_type_symbol
  _atom_site_label
  _atom_site_symmetry_multiplicity
  _atom_site_fract_x
  _atom_site_fract_y
  _atom_site_fract_z
  _atom_site_occupancy
  Zn  Zn1       1.0  0.6689387544665593  0.48956390469818  0.5479834809620241  1.0000
  Zn  Zn2       1.0  0.33105843378960026  0.5104311503439547  0.45202213354228593  1.0000
  H   H1        1.0  0.3406226035612789  0.8884310591474504  0.23155579374429167  1.0000
  H   H2        1.0  0.6593706422756255  0.11156821982905293  0.7684363712589004  1.0000
  H   H3        1.0  0.5053691595867774  0.7766719529230247  0.39923063105040757  1.0000
  H   H4        1.0  0.49462166363935006  0.22332628920781164  0.6007643369469875  1.0000
  H   H5        1.0  0.14168319094038406  0.3999852727123425  0.9998055671970574  1.0000
  H   H6        1.0  0.8583214555797483  0.6000191093685886  0.0001947947356484277  1.0000
  H   H7        1.0  0.790414061866116  0.01877052342209141  0.90156966746666  1.0000
  H   H8        1.0  0.209576334043696  0.9812386023652875  0.09843290730207606  1.0000
  H   H9        1.0  0.9518221883770933  0.8997578146521049  0.07253850354150883  1.0000
  H   H10       1.0  0.0481693681110684  0.10025229110328131  0.9274543240245589  1.0000
  H   H11       1.0  0.0747817832152151  0.34780230148635394  0.22188707020602996  1.0000
  H   H12       1.0  0.925223928820472  0.6521959038434704  0.7781152710175618  1.0000
  H   H13       1.0  0.2265743507658229  0.32334999291460786  0.31101836239739095  1.0000
  H   H14       1.0  0.7734339269843388  0.6766460261250131  0.6889833246416615  1.0000
  H   H15       1.0  0.9332060644000109  0.2056149997875067  0.12312023831661631  1.0000
  H   H16       1.0  0.0668031181472273  0.7943885311267423  0.8768764464332293  1.0000
  H   H17       1.0  0.8663324151686281  0.3328016657433183  0.892153169936087  1.0000
  H   H18       1.0  0.133673153763354  0.6671997627223833  0.10784702247784847  1.0000
  H   H19       1.0  0.8356464260211708  0.0668438021244171  0.3683478948193368  1.0000
  H   H20       1.0  0.1643627626112902  0.9331597459168038  0.6316505984370622  1.0000
  H   H21       1.0  0.6916776817979057  0.18601970001143542  0.4315383462176071  1.0000
  H   H22       1.0  0.3083263571499231  0.8139881692292763  0.5684560298882174  1.0000
  H   H23       1.0  0.6229223479052807  0.0261340050112508  0.4426946695581647  1.0000
  H   H24       1.0  0.3770819833351808  0.9738674350846849  0.5573058126735333  1.0000
  H   H25       1.0  0.06208244675420359  0.10886792652858192  0.42184672361243253  1.0000
  H   H26       1.0  0.9379331353396411  0.8911313058098999  0.5781574054833384  1.0000
  H   H27       1.0  0.11100880479346388  0.08107334343320363  0.2650811704134028  1.0000
  H   H28       1.0  0.8890009126093973  0.9189183978611342  0.7349264074827886  1.0000
  H   H29       1.0  0.26913624920135953  0.06279871133484252  0.3472324833927871  1.0000
  H   H30       1.0  0.7308756137327138  0.937200538767371  0.6527707066497114  1.0000
  H   H31       1.0  0.8765191553637737  0.3664914274527646  0.4197951512274115  1.0000
  H   H32       1.0  0.12347186982353968  0.6335025485630299  0.5802059974448851  1.0000
  H   H33       1.0  0.9105969415161823  0.2790695396076259  0.5773112052700712  1.0000
  H   H34       1.0  0.08939523103120452  0.7209265878076607  0.42268972813348443  1.0000
  C   C1        1.0  0.6032157873973247  0.3302115930757382  0.9850846802879046  1.0000
  C   C2        1.0  0.3967873903978401  0.6697876784937336  0.01491420870597439  1.0000
  C   C3        1.0  0.3851090675551064  0.42014573633023394  0.8625129551303983  1.0000
  C   C4        1.0  0.6148920022680358  0.5798449235077783  0.1374880238094676  1.0000
  C   C5        1.0  0.4819666064974513  0.2894361752708363  0.11312754115821387  1.0000
  C   C6        1.0  0.5180390588512013  0.7105631072921099  0.8868743852132538  1.0000
  C   C7        1.0  0.7410986873394451  0.8297678884424117  0.24763819883169438  1.0000
  C   C8        1.0  0.2588921013701153  0.1702314651754975  0.7523599713266904  1.0000
  C   C9        1.0  0.5499751908803034  0.9640534774688662  0.05100694746889188  1.0000
  C   C10       1.0  0.45001297021467923  0.03594909685492811  0.9489869407555176  1.0000
  C   C11       1.0  0.5593981571358311  0.3974670033913555  0.8536552218274522  1.0000
  C   C12       1.0  0.4406040600473772  0.6025258078461422  0.14634554184367934  1.0000
  C   C13       1.0  0.47468396546487684  0.8935352860880318  0.19356083973513438  1.0000
  C   C14       1.0  0.5253042920467763  0.10646514233300762  0.8064347824468071  1.0000
  C   C15       1.0  0.31312148831038655  0.48385714236824373  0.7409979884737936  1.0000
  C   C16       1.0  0.6868806507118421  0.5161378661529383  0.25900646675947325  1.0000
  C   C17       1.0  0.6748289776479269  0.19210058573460742  0.23906540702891013  1.0000
  C   C18       1.0  0.3251802982733736  0.8079007907134043  0.7609321074251907  1.0000
  C   C19       1.0  0.5679921802420793  0.828384131127102  0.28973923296990006  1.0000
  C   C20       1.0  0.4319973616481221  0.17161520843058045  0.7102565142464029  1.0000
  C   C21       1.0  0.27367227307712483  0.38025395302793913  0.9926500644354377  1.0000
  C   C22       1.0  0.726331144238415  0.6197399495029077  0.0073527073256300654  1.0000
  C   C23       1.0  0.844116241938721  0.7650395496464529  0.3498084581744719  1.0000
  C   C24       1.0  0.1558710234870162  0.23495553849318182  0.6501931450989743  1.0000
  C   C25       1.0  0.7245762754269977  0.9638634944831493  0.009803079855430562  1.0000
  C   C26       1.0  0.27541286757822536  0.036145600117031114  0.9901952634646706  1.0000
  C   C27       1.0  0.8173924100326957  0.8979330482963092  0.10606422012734398  1.0000
  C   C28       1.0  0.18259796762143313  0.10207602611014721  0.8939329291217248  1.0000
  C   C29       1.0  0.1867010241686131  0.2842555260898294  0.24690508864409116  1.0000
  C   C30       1.0  0.8133047284688716  0.7157415848799005  0.7530958589250786  1.0000
  C   C31       1.0  0.8056326642625322  0.23224239872138958  0.11631283513985119  1.0000
  C   C32       1.0  0.1943790870417956  0.7677589544661387  0.8836840996787245  1.0000
  C   C33       1.0  0.7698857492952484  0.30131158307906963  0.9895975247560287  1.0000
  C   C34       1.0  0.2301235793983025  0.6986887332627989  0.01040221305674995  1.0000
  C   C35       1.0  0.7087567296026195  0.1129893871902041  0.3778124738675714  1.0000
  C   C36       1.0  0.2912513553141949  0.8870109236549198  0.6221857452564166  1.0000
  C   C37       1.0  0.15609306474308937  0.124475982485464  0.323564421380965  1.0000
  C   C38       1.0  0.8439164161820117  0.8755211364109886  0.6764401780013143  1.0000
  N   N1        1.0  0.31548615187095663  0.31857802998840157  0.11362531539953842  1.0000
  N   N2        1.0  0.6845147433745211  0.6814169730360435  0.8863776211449306  1.0000
  N   N3        1.0  0.5160916333067719  0.2228591849844293  0.23651426692787675  1.0000
  N   N4        1.0  0.4839189452487531  0.7771411539811481  0.763488798080253  1.0000
  O   O1        1.0  0.41415988128381526  0.5041018852643334  0.6187578129423912  1.0000
  O   O2        1.0  0.5858393530442711  0.4959028159249429  0.3812407754974174  1.0000
  O   O3        1.0  0.782226460895444  0.6707214599382637  0.4710819716872054  1.0000
  O   O4        1.0  0.21775699503907475  0.3292758089948436  0.5289187670819899  1.0000
  O   O5        1.0  0.6776341409582259  0.43163664768802323  0.7436623152262314  1.0000
  O   O6        1.0  0.32236766516956544  0.5683658843380217  0.2563374275355911  1.0000
  O   O7        1.0  0.16065831726197638  0.5139096086810682  0.757836179606187  1.0000
  O   O8        1.0  0.8393460231063303  0.4860918571053361  0.24216701538534832  1.0000
  O   O9        1.0  0.8248937398812758  0.32500682948067816  0.5204798517550413  1.0000
  O   O10       1.0  0.17510205845182716  0.6749914346371073  0.47952119099753077  1.0000
  O   O11       1.0  0.9880244607970282  0.8097880036283132  0.3141524471254655  1.0000
  O   O12       1.0  0.011965413987603304  0.19020381242450674  0.6858480125622889  1.0000
