data_image0
_chemical_formula_structural       Cu2H16C26N10Cl2O2
_chemical_formula_sum              "Cu2 H16 C26 N10 Cl2 O2"
_cell_length_a       3.7655463036999635
_cell_length_b       11.629028417748374
_cell_length_c       13.721621109076892
_cell_angle_alpha    90.00016009820733
_cell_angle_beta     90.0003264399742
_cell_angle_gamma    93.53663860717792

_space_group_name_H-M_alt    "P 1"
_space_group_IT_number       1

loop_
  _space_group_symop_operation_xyz
  'x, y, z'

loop_
  _atom_site_type_symbol
  _atom_site_label
  _atom_site_symmetry_multiplicity
  _atom_site_fract_x
  _atom_site_fract_y
  _atom_site_fract_z
  _atom_site_occupancy
  Cu  Cu1       1.0  0.6049326243946921  0.6723609766283688  0.7499979405978721  1.0000
  Cu  Cu2       1.0  0.3950564594838609  0.32763448380304544  0.2500017718130323  1.0000
  H   H1        1.0  0.798454838610752  0.5572485912542647  0.555911546017157  1.0000
  H   H2        1.0  0.20152001424607846  0.4427504571638892  0.05591245757817381  1.0000
  H   H3        1.0  0.20152893222973492  0.442746859249475  0.444095454158422  1.0000
  H   H4        1.0  0.7984479659617492  0.5572458250478081  0.9440872548180081  1.0000
  H   H5        1.0  0.7152816108248601  0.6026062108705832  0.3774282557685781  1.0000
  H   H6        1.0  0.28470029726809537  0.3973931353395629  0.8774283698461647  1.0000
  H   H7        1.0  0.2847118933900177  0.39738409025103766  0.6225772868541669  1.0000
  H   H8        1.0  0.7152734424511281  0.6026057414382394  0.12256842745006222  1.0000
  H   H9        1.0  0.4268225561203208  0.7867802322222063  0.334137464648201  1.0000
  H   H10       1.0  0.5731858404341423  0.21322417685480138  0.8341382832257909  1.0000
  H   H11       1.0  0.5731818719012197  0.21321181186017676  0.6658637053236589  1.0000
  H   H12       1.0  0.4268067928284652  0.7867764578041734  0.16585924286355447  1.0000
  H   H13       1.0  0.23797656491884572  0.9146247263837921  0.46666701183633563  1.0000
  H   H14       1.0  0.7620163541003037  0.08538098733303201  0.9666728979884739  1.0000
  H   H15       1.0  0.7620237403744452  0.08537420009410111  0.5333275991491675  1.0000
  H   H16       1.0  0.2379792333628927  0.9146213753873271  0.033326814435803  1.0000
  C   C1        1.0  0.6745433434207159  0.6345632976181507  0.5317081405879449  1.0000
  C   C2        1.0  0.32543156233940346  0.3654391096978956  0.0317075886011722  1.0000
  C   C3        1.0  0.32543171364246604  0.36542783024759745  0.4682937581377474  1.0000
  C   C4        1.0  0.6745499983002574  0.6345589204554827  0.9682935813610245  1.0000
  C   C5        1.0  0.6280667072922697  0.6609738473536667  0.4335805201197758  1.0000
  C   C6        1.0  0.3719219209103173  0.3390265728180212  0.9335813490114333  1.0000
  C   C7        1.0  0.3719195712672986  0.33902074657170544  0.5664235649491545  1.0000
  C   C8        1.0  0.628048864640988  0.6609705759036545  0.06641617705732021  1.0000
  C   C9        1.0  0.4723347384952489  0.7627518189775416  0.4093596305028342  1.0000
  C   C10       1.0  0.5276543886512428  0.23725454466083562  0.90935971171308  1.0000
  C   C11       1.0  0.5276674793744646  0.23724280476236706  0.5906400819168383  1.0000
  C   C12       1.0  0.47233543927605137  0.7627452234894748  0.09064072948056182  1.0000
  C   C13       1.0  0.36626421967367406  0.8354475266910841  0.48340920069764354  1.0000
  C   C14       1.0  0.6337478191814087  0.16455914372775743  0.9834129046026377  1.0000
  C   C15       1.0  0.6337440553726594  0.16455141470984813  0.5165919692855994  1.0000
  C   C16       1.0  0.36626105105656137  0.8354432438406718  0.0165846215009822  1.0000
  C   C17       1.0  0.4190768624104065  0.8033145252033621  0.579659489628071  1.0000
  C   C18       1.0  0.5809262786250997  0.19669155089943058  0.0796610885506368  1.0000
  C   C19       1.0  0.5809370233800379  0.19668614922672137  0.4203424091383567  1.0000
  C   C20       1.0  0.41907181658167053  0.8033099552464978  0.9203378950975891  1.0000
  C   C21       1.0  0.315050896534146  0.8705338495273269  0.6655443908606031  1.0000
  C   C22       1.0  0.6849546153108576  0.12947512089429128  0.1655467078236796  1.0000
  C   C23       1.0  0.6849699392326299  0.12947631181699393  0.3344545928152556  1.0000
  C   C24       1.0  0.3150581019600693  0.8705341639939947  0.8344515470681773  1.0000
  C   C25       1.0  0.0836653096682056  0.021017714306403  0.7499989345402016  1.0000
  C   C26       1.0  0.916420600821894  0.9789848174063422  0.2500000491747656  1.0000
  N   N1        1.0  0.5717393007187682  0.7037072257508474  0.6029460876949173  1.0000
  N   N2        1.0  0.42824442688709763  0.296291145633866  0.1029469759499335  1.0000
  N   N3        1.0  0.42824668023273194  0.2962856450888011  0.39705872614852933  1.0000
  N   N4        1.0  0.5717394926553611  0.7037051663963185  0.897050550127581  1.0000
  N   N5        1.0  0.39998973943126964  0.8191832381911156  0.749998697714837  1.0000
  N   N6        1.0  0.5999947753599884  0.18081652001576032  0.25000028592110374  1.0000
  N   N7        1.0  0.1570784032696935  0.9676723347837068  0.6606266066435043  1.0000
  N   N8        1.0  0.8429612359735044  0.0323349594215543  0.16062236051664067  1.0000
  N   N9        1.0  0.8429518683205616  0.03233095410197961  0.33937674969210013  1.0000
  N   N10       1.0  0.15707464625471354  0.9676700624762024  0.8393722505029119  1.0000
  Cl  Cl1       1.0  0.978743266725857  0.5308413902663676  0.7499987734996341  1.0000
  Cl  Cl2       1.0  0.021244351065938402  0.4691609575440908  0.2500016676955426  1.0000
  O   O1        1.0  0.9517589219457604  0.11616496532064248  0.750001885596177  1.0000
  O   O2        1.0  0.04829528062860794  0.8838538711050038  0.24999782689213396  1.0000
