data_image0
_chemical_formula_structural       Zr6H25C52Cl5O36
_chemical_formula_sum              "Zr6 H25 C52 Cl5 O36"
_cell_length_a       14.769402051510585
_cell_length_b       14.782639203892439
_cell_length_c       14.786802170855346
_cell_angle_alpha    60.32367956807481
_cell_angle_beta     59.914924868432536
_cell_angle_gamma    60.10881665525987

_space_group_name_H-M_alt    "P 1"
_space_group_IT_number       1

loop_
  _space_group_symop_operation_xyz
  'x, y, z'

loop_
  _atom_site_type_symbol
  _atom_site_label
  _atom_site_symmetry_multiplicity
  _atom_site_fract_x
  _atom_site_fract_y
  _atom_site_fract_z
  _atom_site_occupancy
  Zr  Zr1       1.0  0.8780630918161805  0.8840625007451308  0.6152624523885708  1.0000
  Zr  Zr2       1.0  0.12108056183530638  0.11937029232650079  0.3797051325699456  1.0000
  Zr  Zr3       1.0  0.11675806930711043  0.8821995467747212  0.6181486405938516  1.0000
  Zr  Zr4       1.0  0.8807524493609833  0.12191148732663509  0.3772464021378639  1.0000
  Zr  Zr5       1.0  0.11898660531051779  0.8831060041744578  0.3765829681061135  1.0000
  Zr  Zr6       1.0  0.8786589917264178  0.1224596307036662  0.6168082920384848  1.0000
  H   H1        1.0  0.09198523671013706  0.7205421056786108  0.5899706636251096  1.0000
  H   H2        1.0  0.09713047835485607  0.0942495890386965  0.2149914876967358  1.0000
  H   H3        1.0  0.09287938684106924  0.09332273782563061  0.5947218738367681  1.0000
  H   H4        1.0  0.715710671848953  0.09836260080700024  0.5900554337965999  1.0000
  H   H5        1.0  0.8205957800801967  0.6313274909333514  0.5797731998315073  1.0000
  H   H6        1.0  0.17440149186899112  0.5451441177919987  0.4155763200100751  1.0000
  H   H7        1.0  0.8291643946925832  0.45768358987909613  0.5785076525330697  1.0000
  H   H8        1.0  0.558864441632231  0.8811746037255758  0.8957613621251925  1.0000
  H   H9        1.0  0.632494351478087  0.0946478837602527  0.949003245442725  1.0000
  H   H10       1.0  0.3924262095322744  0.8843680778676628  0.0693374138948713  1.0000
  H   H11       1.0  0.13165522706269428  0.8466684097629054  0.08767158726438144  1.0000
  H   H12       1.0  0.8455744858513794  0.1408807823193073  0.09557067265053129  1.0000
  H   H13       1.0  0.12289933006255876  0.852861631936406  0.9200106855618629  1.0000
  H   H14       1.0  0.5938838308406104  0.43829987971397333  0.6270120939689718  1.0000
  H   H15       1.0  0.5940515561284768  0.41564925626805416  0.34828646394774415  1.0000
  H   H16       1.0  0.423315809095797  0.6067372281542519  0.6206627223391409  1.0000
  H   H17       1.0  0.738329092357148  0.6340620464117919  0.9641423183045107  1.0000
  H   H18       1.0  0.8243454034345914  0.54845621120311  0.8789424978148406  1.0000
  H   H19       1.0  0.8251696612185881  0.37864315841957813  0.04934937522180144  1.0000
  H   H20       1.0  0.7395167346083084  0.46416141895653595  0.13465967109534938  1.0000
  H   H21       1.0  0.5831436635440993  0.14164900095806138  0.3467375382363187  1.0000
  H   H22       1.0  0.599873180219738  0.8493167465219715  0.6320734896795274  1.0000
  H   H23       1.0  0.4129426146554349  0.13151390930943319  0.3576410672034029  1.0000
  H   H24       1.0  0.09499799609160696  0.4774225587351138  0.19542469948454064  1.0000
  H   H25       1.0  0.26061663124781376  0.5190941509478506  0.8205428820023642  1.0000
  C   C1        1.0  0.9947761123896299  0.7023715872254215  0.49344790419999657  1.0000
  C   C2        1.0  0.3117164332884668  0.9952645177596365  0.2019071804381057  1.0000
  C   C3        1.0  0.0012730848149545052  0.30513186916422097  0.4972489768362038  1.0000
  C   C4        1.0  0.6986510474540208  0.9964433750156091  0.804464676113156  1.0000
  C   C5        1.0  0.9923060099293434  0.703902386464769  0.8050815099727731  1.0000
  C   C6        1.0  0.6996016145818728  0.0005969248401171132  0.4899431221529936  1.0000
  C   C7        1.0  0.9971461892316639  0.3078760626585719  0.19834137869393953  1.0000
  C   C8        1.0  0.30694726973704434  0.9914676102438021  0.49931176178031234  1.0000
  C   C9        1.0  0.30657553787624175  0.7027365036826723  0.49006046371684414  1.0000
  C   C10       1.0  0.9880516673073673  0.00033478041239502537  0.8071262009129256  1.0000
  C   C11       1.0  0.7020547320682908  0.31285600312734374  0.49179081758690296  1.0000
  C   C12       1.0  0.9950344304162896  0.996731056514939  0.19807934469350397  1.0000
  C   C13       1.0  0.005127766921120197  0.4040024625465009  0.4981268944439847  1.0000
  C   C14       1.0  0.9967539975259997  0.599447504869822  0.4952593099239665  1.0000
  C   C15       1.0  0.10348695225938793  0.42770266630460435  0.45476457434787687  1.0000
  C   C16       1.0  0.8990254352472108  0.5745676295782405  0.5435790860087835  1.0000
  C   C17       1.0  0.09852611629097643  0.5261883114134421  0.4510682946261682  1.0000
  C   C18       1.0  0.9039488414554879  0.4784142808978445  0.5432952590678826  1.0000
  C   C19       1.0  0.4180185661764637  0.9911482312492481  0.10601834220194933  1.0000
  C   C20       1.0  0.6035029184528539  0.9904192074124153  0.9108702645194172  1.0000
  C   C21       1.0  0.48865281190713006  0.048226368831478815  0.07317664722414469  1.0000
  C   C22       1.0  0.5381087046839708  0.9281095527963715  0.9456033429313778  1.0000
  C   C23       1.0  0.5795032716640804  0.04879277029299093  0.9752786075044071  1.0000
  C   C24       1.0  0.4463634708875406  0.9297943103110808  0.04159405722729307  1.0000
  C   C25       1.0  0.9821300630320662  0.001225932559044867  0.9108043591261252  1.0000
  C   C26       1.0  0.9900802418544499  0.9947976233008617  0.10054317133626284  1.0000
  C   C27       1.0  0.9021276173070517  0.08214959498666718  0.9626476752043802  1.0000
  C   C28       1.0  0.06810858338031521  0.9125334050872665  0.05190635227517501  1.0000
  C   C29       1.0  0.9069261191777187  0.07815990932895295  0.05641702835583126  1.0000
  C   C30       1.0  0.06347974750499927  0.916497286557586  0.9584781652530694  1.0000
  C   C31       1.0  0.41140664679069516  0.605203194948622  0.4829891220268296  1.0000
  C   C32       1.0  0.6036344477378535  0.41653018669047287  0.48812975783702234  1.0000
  C   C33       1.0  0.46160297648663096  0.5510874221179876  0.4044632249600326  1.0000
  C   C34       1.0  0.5564477811383028  0.47055982729724394  0.5650062428700694  1.0000
  C   C35       1.0  0.5566535076599664  0.45788010946236574  0.40787428517651875  1.0000
  C   C36       1.0  0.4619027583082128  0.5634533860603028  0.5615631330420853  1.0000
  C   C37       1.0  0.9926692987095578  0.6056027731903838  0.907214468667583  1.0000
  C   C38       1.0  0.9956063762245008  0.41024553449925333  0.10029054333854505  1.0000
  C   C39       1.0  0.9130718598248533  0.5549566394961899  0.9587043240535138  1.0000
  C   C40       1.0  0.07786839965986309  0.460239279588535  0.04919712013195722  1.0000
  C   C41       1.0  0.9140386885812504  0.4608519657509118  0.05254463719568745  1.0000
  C   C42       1.0  0.07566047233421364  0.5565534480388692  0.9556201767280753  1.0000
  C   C43       1.0  0.8108316625200727  0.5598803038411121  0.9532751354207464  1.0000
  C   C44       1.0  0.8116196049873494  0.45348107899958723  0.05987042588331803  1.0000
  C   C45       1.0  0.41054547729711294  0.9863695479709662  0.49949662367995273  1.0000
  C   C46       1.0  0.6009689689840273  0.9960280915450069  0.4896772494207301  1.0000
  C   C47       1.0  0.4647289159099516  0.9050511213820586  0.5772240507351896  1.0000
  C   C48       1.0  0.5494409359024316  0.07605022794293606  0.41092642400227675  1.0000
  C   C49       1.0  0.5588553271900879  0.9110041988457026  0.5715618398581557  1.0000
  C   C50       1.0  0.4555828155957185  0.07035214598472088  0.4169444797241937  1.0000
  C   C51       1.0  0.17852094904394986  0.406755554537213  0.08431252173380704  1.0000
  C   C52       1.0  0.16100442936490816  0.6089951342454613  0.9145724797912322  1.0000
  Cl  Cl1       1.0  0.23404770895072594  0.33608810021726754  0.4110217522759925  1.0000
  Cl  Cl2       1.0  0.47234833905807966  0.11679203261499543  0.14927578827983018  1.0000
  Cl  Cl3       1.0  0.794552034969179  0.19090014620714157  0.9178827427678089  1.0000
  Cl  Cl4       1.0  0.41278083731582865  0.5905538406559502  0.30112712062705776  1.0000
  Cl  Cl5       1.0  0.42229639098405153  0.7952860503960364  0.6831097834816547  1.0000
  O   O1        1.0  0.9162206018839922  0.7426113538900835  0.5695569070038787  1.0000
  O   O2        1.0  0.26789639260528725  0.07358885160074644  0.24062244192817425  1.0000
  O   O3        1.0  0.0758152935367774  0.26599703716649975  0.4193988447192041  1.0000
  O   O4        1.0  0.7347411910871244  0.9229247541220361  0.7614080416164557  1.0000
  O   O5        1.0  0.0705596437706716  0.7423076221837164  0.7635052440941338  1.0000
  O   O6        1.0  0.7360921580037497  0.07972460079743372  0.41544034780532263  1.0000
  O   O7        1.0  0.9212713564434408  0.2681770083479691  0.2344606019110318  1.0000
  O   O8        1.0  0.2627450385511095  0.9182728343983725  0.5756938503208318  1.0000
  O   O9        1.0  0.2636495191118087  0.7434215805219394  0.4160763158833235  1.0000
  O   O10       1.0  0.9148743677364095  0.07717389002981191  0.7632481130401204  1.0000
  O   O11       1.0  0.7386582004697074  0.2727137384607516  0.5706419510716075  1.0000
  O   O12       1.0  0.0740829500983792  0.9217099113976133  0.2345396068716711  1.0000
  O   O13       1.0  0.06726867029927779  0.9240692454740934  0.7677336310952185  1.0000
  O   O14       1.0  0.7405437181789406  0.27120274431958086  0.4166753160499256  1.0000
  O   O15       1.0  0.9204645106678341  0.07517339995307278  0.2366286442733101  1.0000
  O   O16       1.0  0.26626354015339626  0.7372385351627527  0.5708719432313956  1.0000
  O   O17       1.0  0.9163899439650436  0.7402015329773661  0.7659463109260756  1.0000
  O   O18       1.0  0.2682986255202949  0.07036817684923588  0.42337541100035025  1.0000
  O   O19       1.0  0.0739409690624626  0.26779566618366596  0.2376184781334132  1.0000
  O   O20       1.0  0.7387722597608998  0.9251838250614384  0.5668539606009588  1.0000
  O   O21       1.0  0.7356216133985638  0.07524252699246146  0.7636796604357557  1.0000
  O   O22       1.0  0.07289742098026165  0.7403117672370667  0.4177313335208126  1.0000
  O   O23       1.0  0.2694828352193355  0.9219441173894936  0.23590203501923676  1.0000
  O   O24       1.0  0.9221562975057294  0.26882483670316765  0.5733509796019121  1.0000
  O   O25       1.0  0.796149174720071  0.07163864674308948  0.563189461605525  1.0000
  O   O26       1.0  0.06584186452085564  0.06837451621618133  0.5663263595254975  1.0000
  O   O27       1.0  0.0683275087828648  0.06880262613712772  0.2951595210023328  1.0000
  O   O28       1.0  0.06446476435663566  0.8005398011311444  0.5645412279384274  1.0000
  O   O29       1.0  0.14757019277901412  0.9514557380404868  0.44893492156653997  1.0000
  O   O30       1.0  0.949350859470492  0.9532834216825279  0.44658024913981387  1.0000
  O   O31       1.0  0.9507650715136152  0.15043401207965706  0.4478492709212746  1.0000
  O   O32       1.0  0.9474437888898418  0.953188038644072  0.645904643576195  1.0000
  O   O33       1.0  0.1711653909955969  0.4330774867145948  0.163925036888692  1.0000
  O   O34       1.0  0.2660961490818677  0.3498433184584329  0.035699071897269605  1.0000
  O   O35       1.0  0.2597298497886767  0.57553978249652  0.837619328514059  1.0000
  O   O36       1.0  0.14585389831947992  0.672015786157452  0.9547416275988353  1.0000
