data_image0
_chemical_formula_structural       Zn2Mo4H16C16S4N4O14
_chemical_formula_sum              "Zn2 Mo4 H16 C16 S4 N4 O14"
_cell_length_a       7.352866431816281
_cell_length_b       10.130866400874066
_cell_length_c       10.373045137798288
_cell_angle_alpha    105.46529443155134
_cell_angle_beta     102.64628474113267
_cell_angle_gamma    104.88371942699915

_space_group_name_H-M_alt    "P 1"
_space_group_IT_number       1

loop_
  _space_group_symop_operation_xyz
  'x, y, z'

loop_
  _atom_site_type_symbol
  _atom_site_label
  _atom_site_symmetry_multiplicity
  _atom_site_fract_x
  _atom_site_fract_y
  _atom_site_fract_z
  _atom_site_occupancy
  Zn  Zn1       1.0  0.9911773528826658  0.6830607121186104  0.7542455888144275  1.0000
  Zn  Zn2       1.0  0.00883020046855883  0.3169350671620279  0.24575739563699978  1.0000
  Mo  Mo1       1.0  0.8356691553562287  0.36108766346279  0.5229678280446847  1.0000
  Mo  Mo2       1.0  0.16433332470462156  0.6389091923538288  0.47703851544279974  1.0000
  Mo  Mo3       1.0  0.519324873000656  0.4625339113676575  0.3379435768223686  1.0000
  Mo  Mo4       1.0  0.4806767761380187  0.5374641234506186  0.6620581381602122  1.0000
  H   H1        1.0  0.7671010441374336  0.9722693388062638  0.5079761578294324  1.0000
  H   H2        1.0  0.2328772597432121  0.027711672433078097  0.49200377117952593  1.0000
  H   H3        1.0  0.6662970940793757  0.8246914972109707  0.5617947094147054  1.0000
  H   H4        1.0  0.3337092643761181  0.17528695250295806  0.4381956455058996  1.0000
  H   H5        1.0  0.8547148200302177  0.8203301980224322  0.48305424195599755  1.0000
  H   H6        1.0  0.14527512541371831  0.1796548472350565  0.5169421019813781  1.0000
  H   H7        1.0  0.27006012913298605  0.23568780217883764  0.012623322709643526  1.0000
  H   H8        1.0  0.7299231093538056  0.764321420479817  0.9873727893233237  1.0000
  H   H9        1.0  0.4416593205099772  0.11457576856484052  0.19727524011499037  1.0000
  H   H10       1.0  0.5583283380865894  0.8854398831459634  0.8027281368676212  1.0000
  H   H11       1.0  0.18084298357039338  0.5138889423764894  0.9111153677498293  1.0000
  H   H12       1.0  0.8191928470932625  0.48612837097191897  0.0888998334476128  1.0000
  H   H13       1.0  0.18056524843222382  0.5385854808481199  0.08923437002806617  1.0000
  H   H14       1.0  0.8194485013697631  0.46141457470594105  0.9107726764458377  1.0000
  H   H15       1.0  0.4059750494159361  0.5645096952154347  0.05106641939323  1.0000
  H   H16       1.0  0.5940558312614144  0.43550891568006733  0.9489387224466058  1.0000
  C   C1        1.0  0.28504454688869174  0.7338049996825616  0.04619477415839407  1.0000
  C   C2        1.0  0.714960559009036  0.2662062460008556  0.9538024086206675  1.0000
  C   C3        1.0  0.803107971988105  0.893022485067107  0.5536839248754292  1.0000
  C   C4        1.0  0.19688179699012662  0.1069680840691589  0.4463100426971565  1.0000
  C   C5        1.0  0.9533742327845972  0.9669073670788682  0.6942764038567759  1.0000
  C   C6        1.0  0.0466139715480764  0.0330798941033805  0.3057193091810007  1.0000
  C   C7        1.0  0.18291191463936946  0.14024783026980714  0.9207796882968324  1.0000
  C   C8        1.0  0.817063013024999  0.8597319626482118  0.07920902293123083  1.0000
  C   C9        1.0  0.1582826751566201  0.9970258230082079  0.9046093441746306  1.0000
  C   C10       1.0  0.8417100395948722  0.0029975656306931017  0.09538825599890542  1.0000
  C   C11       1.0  0.2457941050868443  0.9333380250680821  0.00172205325664278  1.0000
  C   C12       1.0  0.7542026653214435  0.066664439017508  0.9982791455270076  1.0000
  C   C13       1.0  0.37513914658378417  0.9992874382093503  0.1360203507626423  1.0000
  C   C14       1.0  0.6248402910199785  0.0007196371282348041  0.8639745822875752  1.0000
  C   C15       1.0  0.26115409734462264  0.5783601819974465  0.021952229710734593  1.0000
  C   C16       1.0  0.7388774285023487  0.42165391295156945  0.9780604574122975  1.0000
  S   S1        1.0  0.043584573268837815  0.15321579799420704  0.7729287980609314  1.0000
  S   S2        1.0  0.9563933067415108  0.8467672896735365  0.22705838055836133  1.0000
  S   S3        1.0  0.4334153885040736  0.8717605474309948  0.20086041525037504  1.0000
  S   S4        1.0  0.56657243695431  0.12824655918637257  0.7991290857415051  1.0000
  N   N1        1.0  0.029864432347935087  0.9010359367004881  0.7753202852342225  1.0000
  N   N2        1.0  0.970124223073789  0.0989523008410345  0.22468251363534358  1.0000
  N   N3        1.0  0.19639214964001894  0.7830875972472671  0.9531047700306202  1.0000
  N   N4        1.0  0.8036023933382309  0.2169160432577755  0.046892545848400885  1.0000
  O   O1        1.0  0.5811613448829434  0.42034971889911793  0.5287044102881779  1.0000
  O   O2        1.0  0.41884657068654013  0.5796438734475586  0.4712980337497399  1.0000
  O   O3        1.0  0.6839767983263273  0.3497503987918336  0.3248050097312856  1.0000
  O   O4        1.0  0.31602897868390306  0.6502475332675317  0.6752011776472954  1.0000
  O   O5        1.0  0.9446494064504164  0.620278781660744  0.5352306965211753  1.0000
  O   O6        1.0  0.05536086945706841  0.3797168764922533  0.46477846438322956  1.0000
  O   O7        1.0  0.6146574404137155  0.5922468916574671  0.2704557474549603  1.0000
  O   O8        1.0  0.3853426005216535  0.4077566013113412  0.7295481705898652  1.0000
  O   O9        1.0  0.28893127962602705  0.34615705205231256  0.216800753161607  1.0000
  O   O10       1.0  0.71107002442983  0.6538343562358478  0.7832039200074945  1.0000
  O   O11       1.0  0.9337779302243309  0.4628205891687642  0.7069806376410028  1.0000
  O   O12       1.0  0.06623305346365536  0.5371883536174877  0.2930206899769772  1.0000
  O   O13       1.0  0.7479695836442489  0.18243499683617873  0.5090824910137641  1.0000
  O   O14       1.0  0.25203141984538047  0.8175587088914966  0.49091601337200064  1.0000
