data_image0
_chemical_formula_structural       Yb2H24C24O18
_chemical_formula_sum              "Yb2 H24 C24 O18"
_cell_length_a       7.739277389056136
_cell_length_b       9.34366286500026
_cell_length_c       10.70731969716734
_cell_angle_alpha    68.92603308863549
_cell_angle_beta     71.10498421337034
_cell_angle_gamma    75.19231465279638

_space_group_name_H-M_alt    "P 1"
_space_group_IT_number       1

loop_
  _space_group_symop_operation_xyz
  'x, y, z'

loop_
  _atom_site_type_symbol
  _atom_site_label
  _atom_site_symmetry_multiplicity
  _atom_site_fract_x
  _atom_site_fract_y
  _atom_site_fract_z
  _atom_site_occupancy
  Yb  Yb1       1.0  0.2665184243647758  0.29537808713443076  0.003675993788199599  1.0000
  Yb  Yb2       1.0  0.7334820870984733  0.7046218245711628  0.9963243469774025  1.0000
  H   H1        1.0  0.42202770586897054  0.4944093102295924  0.3317098053612069  1.0000
  H   H2        1.0  0.5779726972535856  0.5055906692831728  0.6682936358472558  1.0000
  H   H3        1.0  0.32573438577353636  0.3906210717563283  0.5915847845936708  1.0000
  H   H4        1.0  0.6742661142899921  0.6093773841519692  0.4084165955419363  1.0000
  H   H5        1.0  0.8970148228302435  0.7849992262036309  0.6014009414185038  1.0000
  H   H6        1.0  0.10298689583407862  0.2150036670985571  0.3986004181144266  1.0000
  H   H7        1.0  0.9765504491612162  0.8783121022556133  0.3433815605535243  1.0000
  H   H8        1.0  0.02345159982433406  0.12168822699820944  0.6566208420323176  1.0000
  H   H9        1.0  0.59058579834484  0.25857797128553284  0.35558483623933046  1.0000
  H   H10       1.0  0.40941472451813626  0.7414233962173571  0.6444144651562734  1.0000
  H   H11       1.0  0.3308775649825862  0.8732456914981412  0.4175149520750308  1.0000
  H   H12       1.0  0.669122604759707  0.1267553284585219  0.5824853850076648  1.0000
  H   H13       1.0  0.1907997211599338  0.6402916328578955  0.9175693983697425  1.0000
  H   H14       1.0  0.8092027892869994  0.3597089761349963  0.08242886808614708  1.0000
  H   H15       1.0  0.40914055188203974  0.6054432902194475  0.8883612113769029  1.0000
  H   H16       1.0  0.5908606544228479  0.394555860781324  0.11163809738450675  1.0000
  H   H17       1.0  0.9527359831397253  0.16670718330096437  0.9948409757135789  1.0000
  H   H18       1.0  0.04726643036623555  0.8332949492963949  0.005159351815166197  1.0000
  H   H19       1.0  0.024428107584093132  0.058181295624294214  0.12349597649416205  1.0000
  H   H20       1.0  0.9755737080211947  0.9418200740734264  0.8765033219659198  1.0000
  H   H21       1.0  0.47166698375629335  0.049508259269764314  0.869200447008431  1.0000
  H   H22       1.0  0.5283349173902323  0.9504901310261858  0.13079782974879348  1.0000
  H   H23       1.0  0.2840580891943818  0.9965136009523052  0.973357889831291  1.0000
  H   H24       1.0  0.7159438347516058  0.0034877009382441033  0.026638308185930284  1.0000
  C   C1        1.0  0.2723748722344652  0.7581174372022019  0.16868372639250134  1.0000
  C   C2        1.0  0.7276223589025224  0.24188323081858  0.8313176522483229  1.0000
  C   C3        1.0  0.2066919248272754  0.6926139021001559  0.32206063465263657  1.0000
  C   C4        1.0  0.7933066845932613  0.307383788713665  0.6779397193498224  1.0000
  C   C5        1.0  0.30476300498409625  0.555200771660644  0.3920887165747187  1.0000
  C   C6        1.0  0.695234214753157  0.4447984405628347  0.6079137014361107  1.0000
  C   C7        1.0  0.25262963110080267  0.4985011571312299  0.5358635336941047  1.0000
  C   C8        1.0  0.7473725262254406  0.5014991043154211  0.46413576844888366  1.0000
  C   C9        1.0  0.10640195266474022  0.5826033910616957  0.6116453176076246  1.0000
  C   C10       1.0  0.8935976191768876  0.41739686599531484  0.3883539904064007  1.0000
  C   C11       1.0  0.06008721658341201  0.5287311768800225  0.7665862226416703  1.0000
  C   C12       1.0  0.9399149521425584  0.47127054036393184  0.23341204013131284  1.0000
  C   C13       1.0  0.00844689169890974  0.719955244761131  0.5414601289406205  1.0000
  C   C14       1.0  0.9915504249793161  0.2800424438578731  0.4585402279973605  1.0000
  C   C15       1.0  0.05463766826252944  0.7727322293698294  0.39762049175934056  1.0000
  C   C16       1.0  0.9453637828223477  0.22726733698434742  0.6023808817578382  1.0000
  C   C17       1.0  0.4012345080404034  0.15389398112758815  0.2400676266081162  1.0000
  C   C18       1.0  0.5987670627849017  0.8461069732167206  0.7599296070962038  1.0000
  C   C19       1.0  0.45582749575974185  0.07381517760559572  0.3727419069072439  1.0000
  C   C20       1.0  0.5441694050560176  0.9261880544635447  0.6272584286806687  1.0000
  C   C21       1.0  0.5507150034055714  0.14563013044370623  0.41928277048995694  1.0000
  C   C22       1.0  0.4492842267150933  0.8543712348643667  0.580716533841162  1.0000
  C   C23       1.0  0.4056552262643365  0.9275765248782408  0.45406205103932235  1.0000
  C   C24       1.0  0.5943456497193296  0.07242519017089685  0.5459362146691829  1.0000
  O   O1        1.0  0.1632862896757318  0.863292602685348  0.10279019440427106  1.0000
  O   O2        1.0  0.8367118810828844  0.13670771998400982  0.8972122169881369  1.0000
  O   O3        1.0  0.43735916269752556  0.7098686037354227  0.11058228000128166  1.0000
  O   O4        1.0  0.5626397029027288  0.2901309582291135  0.8894190993869341  1.0000
  O   O5        1.0  0.9500404567261715  0.6203079837022402  0.8312808083034465  1.0000
  O   O6        1.0  0.04996003193762283  0.3796890164087543  0.16872161120216586  1.0000
  O   O7        1.0  0.13835214921428496  0.39505112204705034  0.8256550328663219  1.0000
  O   O8        1.0  0.8616449735820029  0.604949613780896  0.17434944621736284  1.0000
  O   O9        1.0  0.41866616607782703  0.29531441944674713  0.17415117124687635  1.0000
  O   O10       1.0  0.5813302451779521  0.7046879819155765  0.8258450348295124  1.0000
  O   O11       1.0  0.3300915285176059  0.07973233193049374  0.19309178417667983  1.0000
  O   O12       1.0  0.6699080433240142  0.9202679251265168  0.8069075238373454  1.0000
  O   O13       1.0  0.2956487559680455  0.5556540392588191  0.9274987981656505  1.0000
  O   O14       1.0  0.7043524617365691  0.4443465675392489  0.07249947122575408  1.0000
  O   O15       1.0  0.9976042440545001  0.16881675351407213  0.07154212557589547  1.0000
  O   O16       1.0  0.002399815314454888  0.8311857288243516  0.9284571633302359  1.0000
  O   O17       1.0  0.34345067112667504  0.08975038424263465  0.911585207050187  1.0000
  O   O18       1.0  0.656551594540268  0.9102498093968449  0.08841099464994068  1.0000
