data_image0
_chemical_formula_structural       Zn4H40C60N4O16
_chemical_formula_sum              "Zn4 H40 C60 N4 O16"
_cell_length_a       10.326612055828623
_cell_length_b       13.278083885638113
_cell_length_c       13.1953
_cell_angle_alpha    101.12331633988624
_cell_angle_beta     105.89572763520113
_cell_angle_gamma    105.67954913942063

_space_group_name_H-M_alt    "P 1"
_space_group_IT_number       1

loop_
  _space_group_symop_operation_xyz
  'x, y, z'

loop_
  _atom_site_type_symbol
  _atom_site_label
  _atom_site_symmetry_multiplicity
  _atom_site_fract_x
  _atom_site_fract_y
  _atom_site_fract_z
  _atom_site_occupancy
  Zn  Zn1       1.0  0.9059191827657784  0.2781056577089132  0.8304078579206616  1.0000
  Zn  Zn2       1.0  0.5946370054799104  0.1709972872520709  0.7215327129861462  1.0000
  Zn  Zn3       1.0  0.09407963992067177  0.7218946014967075  0.16959307681794655  1.0000
  Zn  Zn4       1.0  0.4053631909795427  0.8290037888638011  0.2784701904914185  1.0000
  H   H1        1.0  0.5927233905752658  0.8404601382032055  0.6693679604700549  1.0000
  H   H2        1.0  0.9058418492901622  0.3305423097159804  0.1603597585298573  1.0000
  H   H3        1.0  0.40727369143804276  0.1595384871819121  0.3306300104531417  1.0000
  H   H4        1.0  0.09416274156095031  0.6694595833101433  0.839645761137369  1.0000
  H   H5        1.0  0.5961417113278102  0.6604866411293031  0.6889524738719572  1.0000
  H   H6        1.0  0.9024399455968393  0.3096604499175015  0.3411920851628878  1.0000
  H   H7        1.0  0.4038567444585012  0.33951280116606614  0.3110482236357938  1.0000
  H   H8        1.0  0.09756015703511171  0.6903381754676233  0.6588110802846002  1.0000
  H   H9        1.0  0.014003776034165576  0.9955554505379284  0.9127414329992475  1.0000
  H   H10       1.0  0.48587862926414976  0.0876732587102822  0.0020818863421397235  1.0000
  H   H11       1.0  0.9859954135524092  0.0044456255779437  0.08725519189664506  1.0000
  H   H12       1.0  0.5141236747685767  0.912330268136337  0.9979196711081214  1.0000
  H   H13       1.0  0.3588659114411072  0.6138541364451485  0.9930191299612402  1.0000
  H   H14       1.0  0.1395556069315589  0.005873584694121801  0.3842667640102775  1.0000
  H   H15       1.0  0.641134464263466  0.3861428551194735  0.006977714076654722  1.0000
  H   H16       1.0  0.8604501784474506  0.9941332097934962  0.6157323847692382  1.0000
  H   H17       1.0  0.09871581476942735  0.5089563251235276  0.9222712743727965  1.0000
  H   H18       1.0  0.400082985224735  0.0774953739113897  0.48919015079584927  1.0000
  H   H19       1.0  0.9012843816900329  0.4910447509923443  0.07772632418559057  1.0000
  H   H20       1.0  0.5999196857081159  0.9225089698454811  0.5108131595764575  1.0000
  H   H21       1.0  0.16905355310691308  0.21415138809372544  0.8844486131716919  1.0000
  H   H22       1.0  0.3332992971245474  0.1170011535786486  0.7870138216692482  1.0000
  H   H23       1.0  0.8309415151606316  0.7858472372913923  0.11555119965448302  1.0000
  H   H24       1.0  0.6666940304698555  0.8829958379859733  0.21298530087831577  1.0000
  H   H25       1.0  0.4327063551426916  0.3047459178563301  0.9503968175994045  1.0000
  H   H26       1.0  0.069202660692298  0.05008966886016711  0.6964797245465987  1.0000
  H   H27       1.0  0.5672896261702219  0.6952502567980474  0.04960119947680399  1.0000
  H   H28       1.0  0.9307931413755027  0.9499105903454536  0.3035152578221201  1.0000
  H   H29       1.0  0.015923705198844108  0.8145256885113882  0.9392387334852611  1.0000
  H   H30       1.0  0.4845027593930027  0.0598713521880399  0.18422102127444617  1.0000
  H   H31       1.0  0.9840771312333629  0.1854745706942325  0.06075884365917267  1.0000
  H   H32       1.0  0.5154983501118267  0.940127273197085  0.8157778129163588  1.0000
  H   H33       1.0  0.6015413742549924  0.5132769634332917  0.7274780123605707  1.0000
  H   H34       1.0  0.898306368901622  0.2707371272581582  0.486389384551181  1.0000
  H   H35       1.0  0.3984598290773462  0.4867241126825803  0.272521317705916  1.0000
  H   H36       1.0  0.1016920868846896  0.729262315037218  0.5136120708021608  1.0000
  H   H37       1.0  0.9154653930516758  0.6207660140664188  0.8839554974811321  1.0000
  H   H38       1.0  0.5847158948274185  0.11482980613540411  0.37938663076693047  1.0000
  H   H39       1.0  0.08453617718079437  0.3792358789597046  0.11604558550740755  1.0000
  H   H40       1.0  0.41528347400426924  0.8851671854292249  0.6206145445276475  1.0000
  C   C1        1.0  0.7949873174256012  0.03886368821113  0.7824240960651281  1.0000
  C   C2        1.0  0.7045422751491444  0.2189858629504471  0.9607388778014181  1.0000
  C   C3        1.0  0.20501049838796345  0.9611365709944906  0.21757434931978983  1.0000
  C   C4        1.0  0.2954623157019682  0.7810160300756765  0.039265884020217454  1.0000
  C   C5        1.0  0.8024766841267521  0.9297329071820712  0.7909805717472479  1.0000
  C   C6        1.0  0.6967453361125564  0.209411674825958  0.0698574430299601  1.0000
  C   C7        1.0  0.19752140475943486  0.0702657182030535  0.20901609930165677  1.0000
  C   C8        1.0  0.30326053468405684  0.7905885843796625  0.9301472759637546  1.0000
  C   C9        1.0  0.6853226975132002  0.8343471988059791  0.7281276960886699  1.0000
  C   C10       1.0  0.8136945353576195  0.2717117011858435  0.16610688288543676  1.0000
  C   C11       1.0  0.3146753913729867  0.1656514265791458  0.2718697328058326  1.0000
  C   C12       1.0  0.1863090486206147  0.728290191840273  0.8338984209648854  1.0000
  C   C13       1.0  0.6874968243295143  0.7334277403995699  0.7399858077237269  1.0000
  C   C14       1.0  0.8115597273157036  0.2591345509840863  0.2672879182529684  1.0000
  C   C15       1.0  0.3125036452025681  0.2665717018958063  0.26001304788103136  1.0000
  C   C16       1.0  0.18844202216187966  0.740863257490787  0.732715441597456  1.0000
  C   C17       1.0  0.9228134059817207  0.9214567894440862  0.8649903820905889  1.0000
  C   C18       1.0  0.5767065336687054  0.1350181091320266  0.07706320842849829  1.0000
  C   C19       1.0  0.07718679047773239  0.0785442866717858  0.13500570077660257  1.0000
  C   C20       1.0  0.42329439659101087  0.8649846008043411  0.9229394116651902  1.0000
  C   C21       1.0  0.32323800486371107  0.5252602198836485  0.9692324886175852  1.0000
  C   C22       1.0  0.1759350315786321  0.0303343282957869  0.4735244747436979  1.0000
  C   C23       1.0  0.6767624646683642  0.4747392224117277  0.03076409345038661  1.0000
  C   C24       1.0  0.8240690131272359  0.9696708323713281  0.5264724680660037  1.0000
  C   C25       1.0  0.17717512361522128  0.4676075959333303  0.9298845062489958  1.0000
  C   C26       1.0  0.32225170948591136  0.0701578860501186  0.531197651614093  1.0000
  C   C27       1.0  0.8228247059441074  0.5323926632722902  0.07011437076972978  1.0000
  C   C28       1.0  0.6777498607465516  0.9298440069760049  0.46880267352884886  1.0000
  C   C29       1.0  0.2172023063628927  0.3028604890004161  0.9088770091844082  1.0000
  C   C30       1.0  0.2842082461413398  0.09200941831478811  0.6976641936901443  1.0000
  C   C31       1.0  0.7827954156231626  0.6971373194744572  0.09111866678804147  1.0000
  C   C32       1.0  0.7157878289990832  0.9079892070703366  0.3023350771073439  1.0000
  C   C33       1.0  0.36467114011382046  0.354929531395193  0.9469308531506184  1.0000
  C   C34       1.0  0.13659106214127087  0.0535631712411657  0.6456574202418038  1.0000
  C   C35       1.0  0.6353279556452448  0.6450690939899318  0.0530713386343677  1.0000
  C   C36       1.0  0.8634063867721622  0.9464362710542034  0.3543385143754635  1.0000
  C   C37       1.0  0.9238106019559496  0.8204523723717259  0.8791965736441583  1.0000
  C   C38       1.0  0.5759458081322109  0.1199698054254412  0.1783758202039749  1.0000
  C   C39       1.0  0.0761902344762575  0.17954788683389472  0.12080024565467078  1.0000
  C   C40       1.0  0.4240585950638902  0.8800271861391807  0.8216249184839197  1.0000
  C   C41       1.0  0.42179125095240266  0.4697830279278321  0.9788980013885149  1.0000
  C   C42       1.0  0.0783528433988181  0.021135918886081108  0.5300099274580176  1.0000
  C   C43       1.0  0.5782088516795483  0.5302155974572927  0.02110061698539313  1.0000
  C   C44       1.0  0.9216477199607667  0.9788659741400353  0.46998563479444044  1.0000
  C   C45       1.0  0.8061833159920512  0.7245038128337029  0.8167513840284001  1.0000
  C   C46       1.0  0.6932442842568847  0.1820566182102041  0.2751452707490571  1.0000
  C   C47       1.0  0.193817520440156  0.2754964463719176  0.1832477088072224  1.0000
  C   C48       1.0  0.3067570983205671  0.8179403733544178  0.7248563361793215  1.0000
  C   C49       1.0  0.8135451130659845  0.619462225308169  0.8295934137566404  1.0000
  C   C50       1.0  0.686150157639311  0.16887985588528664  0.3805283651139533  1.0000
  C   C51       1.0  0.186456090266347  0.380538850807703  0.1704066741554442  1.0000
  C   C52       1.0  0.31384921119238385  0.8311171356793354  0.6194750837174112  1.0000
  C   C53       1.0  0.7082931222626881  0.5216592795037158  0.7795542457047516  1.0000
  C   C54       1.0  0.7921419733030676  0.21900546879643204  0.47860516936772507  1.0000
  C   C55       1.0  0.29170771416951874  0.4783409797019047  0.22044560497646867  1.0000
  C   C56       1.0  0.20785812932888345  0.7809931565886856  0.5213979960797629  1.0000
  C   C57       1.0  0.7293483476507205  0.4172565157933121  0.7879231646404391  1.0000
  C   C58       1.0  0.7718344959263489  0.21113698927296554  0.5835870688813214  1.0000
  C   C59       1.0  0.27065184880873255  0.5827445603225527  0.21207746530033225  1.0000
  C   C60       1.0  0.22816432676009407  0.7888632699326551  0.4164153815484751  1.0000
  N   N1        1.0  0.12413417970032727  0.3576980402308507  0.9000083868330503  1.0000
  N   N2        1.0  0.3763341954524719  0.1008222460867145  0.6418858291327963  1.0000
  N   N3        1.0  0.8758646429861158  0.6423022189747698  0.09999254790555769  1.0000
  N   N4        1.0  0.6236636203610928  0.8991780131189061  0.35811337409771926  1.0000
  O   O1        1.0  0.9124972509872792  0.11925500895710432  0.8166324344429156  1.0000
  O   O2        1.0  0.5871681915601457  0.1854574155789948  0.879594837814814  1.0000
  O   O3        1.0  0.08750221167191796  0.8807444333382719  0.1833669631905437  1.0000
  O   O4        1.0  0.4128391468369869  0.8145461112676244  0.12040855656555038  1.0000
  O   O5        1.0  0.8546491250265831  0.4188470400491511  0.838815245485314  1.0000
  O   O6        1.0  0.6465286667296368  0.1609190655036201  0.5817329446956236  1.0000
  O   O7        1.0  0.14535070453273846  0.5811532191564696  0.161185905070198  1.0000
  O   O8        1.0  0.35347015595680625  0.8390811937020004  0.4182695057341802  1.0000
  O   O9        1.0  0.6172803477769264  0.3319416769734219  0.7402834815657825  1.0000
  O   O10       1.0  0.8840291837813793  0.2583135561833103  0.6694829768722527  1.0000
  O   O11       1.0  0.3827188418096483  0.6680593991424431  0.2597169325580921  1.0000
  O   O12       1.0  0.11597064577794919  0.7416867030223174  0.33051893152885004  1.0000
  O   O13       1.0  0.6698058654038234  0.0427129693069119  0.7419123955725481  1.0000
  O   O14       1.0  0.8297925612119456  0.2594425261481561  0.9575099964151547  1.0000
  O   O15       1.0  0.330193230355242  0.957285656078213  0.25808676483005405  1.0000
  O   O16       1.0  0.17021266961192077  0.740558549967716  0.04249625968371622  1.0000
