data_image0
_chemical_formula_structural       Na4H16C16O22
_chemical_formula_sum              "Na4 H16 C16 O22"
_cell_length_a       6.221282013311908
_cell_length_b       8.626414892216811
_cell_length_c       11.384480985371507
_cell_angle_alpha    112.26115448086345
_cell_angle_beta     90.40540292365566
_cell_angle_gamma    90.00816563378586

_space_group_name_H-M_alt    "P 1"
_space_group_IT_number       1

loop_
  _space_group_symop_operation_xyz
  'x, y, z'

loop_
  _atom_site_type_symbol
  _atom_site_label
  _atom_site_symmetry_multiplicity
  _atom_site_fract_x
  _atom_site_fract_y
  _atom_site_fract_z
  _atom_site_occupancy
  Na  Na1       1.0  0.5076155402649222  0.27310439702851147  0.9052654737658867  1.0000
  Na  Na2       1.0  0.9925494811694405  0.36796487349374013  0.0946067973664952  1.0000
  Na  Na3       1.0  0.4923853114496382  0.7269008989688714  0.09474237248468134  1.0000
  Na  Na4       1.0  0.007451382335624098  0.632040421605609  0.9053975351228514  1.0000
  H   H1        1.0  0.5790002736781331  0.3763336924518228  0.5813125664338158  1.0000
  H   H2        1.0  0.9205692263628434  0.7952091445606584  0.41888419000657245  1.0000
  H   H3        1.0  0.4210021043608093  0.6236578252416507  0.4186957259001502  1.0000
  H   H4        1.0  0.07943159532667468  0.2047911415050407  0.5811239754183432  1.0000
  H   H5        1.0  0.7919447846745484  0.0089380493706912  0.6903026044296252  1.0000
  H   H6        1.0  0.7080759117652419  0.3187101336992626  0.3095447795446801  1.0000
  H   H7        1.0  0.208054414034244  0.9910547204318975  0.30969724777966684  1.0000
  H   H8        1.0  0.2919249428969408  0.68129516207361  0.6904621882655845  1.0000
  H   H9        1.0  0.8090650634781367  0.5640703621056603  0.5142224931503845  1.0000
  H   H10       1.0  0.6910777635781925  0.0501238941387285  0.4857378622760179  1.0000
  H   H11       1.0  0.1909276965728353  0.43592115884432286  0.48577784777626914  1.0000
  H   H12       1.0  0.30893434329442465  0.9498839015659257  0.5142733911672579  1.0000
  H   H13       1.0  0.7946540998497228  0.03353291516529569  0.9306546071506431  1.0000
  H   H14       1.0  0.7056615106782684  0.10293993412326329  0.06929037112429627  1.0000
  H   H15       1.0  0.2053467546752685  0.9664711275633877  0.06935024435244229  1.0000
  H   H16       1.0  0.2943409333060174  0.8970616029845714  0.9307155259803677  1.0000
  C   C1        1.0  0.8035908524309576  0.7797025562594015  0.6970338641048527  1.0000
  C   C2        1.0  0.6965434539798352  0.0827574221431888  0.3028718467060258  1.0000
  C   C3        1.0  0.19640516146400702  0.22029522523390446  0.30296565378190365  1.0000
  C   C4        1.0  0.3034525663591481  0.9172453710778753  0.6971343795288261  1.0000
  C   C5        1.0  0.51756236225782  0.54729555985719  0.777820182461994  1.0000
  C   C6        1.0  0.9825646647696259  0.769388766230712  0.22236944068818323  1.0000
  C   C7        1.0  0.4824384775290369  0.452708483994037  0.22218906124261642  1.0000
  C   C8        1.0  0.017431328629143605  0.23061026987835484  0.7776383425878847  1.0000
  C   C9        1.0  0.6483462611162449  0.4856724939412588  0.6568404204436858  1.0000
  C   C10       1.0  0.8515522751072453  0.8289728530065544  0.34326023096716085  1.0000
  C   C11       1.0  0.3516545544036376  0.5143252864850681  0.3431652692474927  1.0000
  C   C12       1.0  0.1484517674535866  0.1710286838952868  0.6567483090325082  1.0000
  C   C13       1.0  0.7845182210779454  0.5969828866664102  0.6157368745109223  1.0000
  C   C14       1.0  0.7156208517305129  0.9814503525106772  0.38424555862168563  1.0000
  C   C15       1.0  0.21547616448980728  0.40301239118959137  0.38426455226952777  1.0000
  C   C16       1.0  0.2843864389162433  0.018558698427703697  0.6157660315258724  1.0000
  O   O1        1.0  0.7501706348165695  0.1376682651544812  0.9999462030117879  1.0000
  O   O2        1.0  0.24983021072835498  0.8623345252035293  5.916750504294837e-05  1.0000
  O   O3        1.0  0.5979179809582646  0.5450826844440539  0.8786361827563379  1.0000
  O   O4        1.0  0.902401381521166  0.6661116250341907  0.12159230517239188  1.0000
  O   O5        1.0  0.4020844842081743  0.45492386326898776  0.12137203049488927  1.0000
  O   O6        1.0  0.0975930194706862  0.33388991692023495  0.878415310942408  1.0000
  O   O7        1.0  0.3240478621450648  0.5897417408521688  0.7642334075137283  1.0000
  O   O8        1.0  0.17601456920358766  0.8255785986856164  0.23603403725651606  1.0000
  O   O9        1.0  0.6759529863474824  0.4102610492813313  0.23577108456279913  1.0000
  O   O10       1.0  0.8239846359492304  0.17441918284473698  0.7639725233008717  1.0000
  O   O11       1.0  0.8780937672484936  0.4834675625430336  0.6675561391  1.0000
  O   O12       1.0  0.6217728025145347  0.8161639858920254  0.3325002728254346  1.0000
  O   O13       1.0  0.12190546189691528  0.5165339763238279  0.33244974285646817  1.0000
  O   O14       1.0  0.37822966292629445  0.18384506790940947  0.6675121730401441  1.0000
  O   O15       1.0  0.766802040361817  0.8759416481713204  0.6330854099027617  1.0000
  O   O16       1.0  0.7333016143467076  0.2429366439963019  0.3668033245246746  1.0000
  O   O17       1.0  0.23319235404881763  0.1240536290111507  0.3669133815567704  1.0000
  O   O18       1.0  0.26669762686359627  0.7570674000609114  0.6332032762849307  1.0000
  O   O19       1.0  0.8486090681625595  0.8281551691158384  0.8115797786641819  1.0000
  O   O20       1.0  0.65152923246103  0.0166381916968064  0.1883253208851627  1.0000
  O   O21       1.0  0.15139338452740964  0.17184511427427646  0.1884213668123848  1.0000
  O   O22       1.0  0.3484715953981307  0.9833646000082651  0.8116853202734969  1.0000
