data_image0
_chemical_formula_structural       Li8H28C16O24
_chemical_formula_sum              "Li8 H28 C16 O24"
_cell_length_a       8.173765459915048
_cell_length_b       7.799957746726617
_cell_length_c       11.049670526379227
_cell_angle_alpha    110.66656181381127
_cell_angle_beta     95.58699739414357
_cell_angle_gamma    89.99679070299781

_space_group_name_H-M_alt    "P 1"
_space_group_IT_number       1

loop_
  _space_group_symop_operation_xyz
  'x, y, z'

loop_
  _atom_site_type_symbol
  _atom_site_label
  _atom_site_symmetry_multiplicity
  _atom_site_fract_x
  _atom_site_fract_y
  _atom_site_fract_z
  _atom_site_occupancy
  Li  Li1       1.0  0.056123602860402896  0.52356335338429  0.38550176920863066  1.0000
  Li  Li2       1.0  0.44402915849144614  0.1378179012792842  0.614501917481533  1.0000
  Li  Li3       1.0  0.9438766970847395  0.4764305945404106  0.6144998426305222  1.0000
  Li  Li4       1.0  0.5559631386378427  0.8621884822099447  0.3854984958167265  1.0000
  Li  Li5       1.0  0.9389384143921758  0.2778596955828831  0.13501358912495928  1.0000
  Li  Li6       1.0  0.5610539099116635  0.14245009705618375  0.8648099386683296  1.0000
  Li  Li7       1.0  0.0610634575227991  0.7221383649754074  0.8649819409268814  1.0000
  Li  Li8       1.0  0.43893925643044435  0.8575439443200424  0.13518113390689024  1.0000
  H   H1        1.0  0.7695093652651508  0.58407146675426  0.24145329296482737  1.0000
  H   H2        1.0  0.7304667457371394  0.3421958872674652  0.7583787258594867  1.0000
  H   H3        1.0  0.23048752734059258  0.41592664044632954  0.7585445411727035  1.0000
  H   H4        1.0  0.2695372616447145  0.6577980237813039  0.24162228657608156  1.0000
  H   H5        1.0  0.8763801270582547  0.6217626047540323  0.1384420066065887  1.0000
  H   H6        1.0  0.6236234057601139  0.4829280778683583  0.8613940473629212  1.0000
  H   H7        1.0  0.12362296530842089  0.37823680956369554  0.8615566802278992  1.0000
  H   H8        1.0  0.3763782228176423  0.5170672313925663  0.1386062066161529  1.0000
  H   H9        1.0  0.8642690105492717  0.3094519682192641  0.92571638412241  1.0000
  H   H10       1.0  0.635620976481249  0.38383223642135517  0.07401765116814829  1.0000
  H   H11       1.0  0.13573141106449066  0.6905433553541159  0.07428286575312637  1.0000
  H   H12       1.0  0.3643747928959798  0.6161699923380582  0.9259838310461033  1.0000
  H   H13       1.0  0.8950794564066198  0.107032125932335  0.9015950594712618  1.0000
  H   H14       1.0  0.6049640077975482  0.2057296215451387  0.09843694288994698  1.0000
  H   H15       1.0  0.10491474381002772  0.8929618890085537  0.09840424063585834  1.0000
  H   H16       1.0  0.3950304141201427  0.7942671431777627  0.9015585362184877  1.0000
  H   H17       1.0  0.5105779828284084  0.30992187417879086  0.2868025484544532  1.0000
  H   H18       1.0  0.9890829198419907  0.021514179260300605  0.7127599151053515  1.0000
  H   H19       1.0  0.48943143096781927  0.6900802229047472  0.7131946291133743  1.0000
  H   H20       1.0  0.010898211704827122  0.9784923118259742  0.2872441022607575  1.0000
  H   H21       1.0  0.46405425434727476  0.18004483905087915  0.3809601748227465  1.0000
  H   H22       1.0  0.03654159682379541  0.7981050445429007  0.6183337684013424  1.0000
  H   H23       1.0  0.5359470145638667  0.8199490778924029  0.6190523733339504  1.0000
  H   H24       1.0  0.9634535711232671  0.2019081779573142  0.38166316378573123  1.0000
  H   H25       1.0  0.364071374681231  0.5761381802681528  0.42990472330904334  1.0000
  H   H26       1.0  0.13570123575991738  0.1463530585952384  0.5704308473779278  1.0000
  H   H27       1.0  0.6359211090252117  0.4238695834158435  0.57009061923997  1.0000
  H   H28       1.0  0.8642876026091242  0.8536588476956838  0.42957064968346964  1.0000
  C   C1        1.0  0.26477423586262455  0.21420394125922118  0.2537067430835974  1.0000
  C   C2        1.0  0.23530678727103546  0.9599946289395761  0.7462177813074929  1.0000
  C   C3        1.0  0.7352176018468767  0.7857887387807737  0.7462856873517083  1.0000
  C   C4        1.0  0.7646917284461169  0.0400171643670717  0.25379084565361854  1.0000
  C   C5        1.0  0.4190380961290998  0.28985219637618104  0.3477860089645901  1.0000
  C   C6        1.0  0.0811194604279066  0.941269741939884  0.6519518747991668  1.0000
  C   C7        1.0  0.5809735964387884  0.7101471283618821  0.6522133860948073  1.0000
  C   C8        1.0  0.9188725635794909  0.0587352552931435  0.34805722096253777  1.0000
  C   C9        1.0  0.41302361377816504  0.4690333255244569  0.4647417680339173  1.0000
  C   C10       1.0  0.08698132012327868  0.0043028864334644  0.535266213334765  1.0000
  C   C11       1.0  0.5869936282296351  0.5309864994106802  0.5352722633412412  1.0000
  C   C12       1.0  0.9130229142988497  0.995696509025727  0.46473618638889747  1.0000
  C   C13       1.0  0.29807340966657137  0.4447233338536735  0.5583877448426477  1.0000
  C   C14       1.0  0.2020260985897124  0.8868097238186651  0.4415395643173312  1.0000
  C   C15       1.0  0.7019025455946561  0.5552654174250619  0.4415914947092005  1.0000
  C   C16       1.0  0.7979840517930014  0.11318412324463621  0.5584619539931805  1.0000
  O   O1        1.0  0.142547822987197  0.3157235857759416  0.2527429832494191  1.0000
  O   O2        1.0  0.3575483215039482  0.0623803691404916  0.7471038799028233  1.0000
  O   O3        1.0  0.8574600038366569  0.6843032061411308  0.7472665552646731  1.0000
  O   O4        1.0  0.6424539775161691  0.937625924094867  0.2528901193669667  1.0000
  O   O5        1.0  0.2693015592128417  0.04878921453657631  0.17660005719817917  1.0000
  O   O6        1.0  0.23089882174394918  0.8719330301292845  0.8234753004090435  1.0000
  O   O7        1.0  0.7307395265808266  0.9511809880272893  0.8234000015446981  1.0000
  O   O8        1.0  0.7691101351624781  0.1280621993183573  0.17652736647704606  1.0000
  O   O9        1.0  0.1521154805845057  0.4978751662548291  0.5501781842250892  1.0000
  O   O10       1.0  0.3477552757702612  0.9486419266524211  0.449469595508461  1.0000
  O   O11       1.0  0.8478880846896572  0.5021393195840107  0.44983063815147517  1.0000
  O   O12       1.0  0.6522404694408052  0.0513534647783018  0.5505193174531229  1.0000
  O   O13       1.0  0.35127727301343004  0.37034628707040446  0.6397681860461191  1.0000
  O   O14       1.0  0.14912126941749188  0.7308134259420455  0.360360147048496  1.0000
  O   O15       1.0  0.6487172273005156  0.6296518502704559  0.36022673695579494  1.0000
  O   O16       1.0  0.8508864779949546  0.26917498200471374  0.6396280435528466  1.0000
  O   O17       1.0  0.8308344194219471  0.5241785242647765  0.16312155370817288  1.0000
  O   O18       1.0  0.6692604590829916  0.3607110145121625  0.8368041328483782  1.0000
  O   O19       1.0  0.1691674794684488  0.47582227243728437  0.8368782817018996  1.0000
  O   O20       1.0  0.3307411262223994  0.6392842917180419  0.1631979269877846  1.0000
  O   O21       1.0  0.9487935803646791  0.23136203359420904  0.9474598204921847  1.0000
  O   O22       1.0  0.5511440464543752  0.28403429714677497  0.05245989983357192  1.0000
  O   O23       1.0  0.05120188357602729  0.76863333813683  0.052540830540500814  1.0000
  O   O24       1.0  0.4488444701811928  0.7159734852288226  0.9475468772615796  1.0000
