data_image0
_chemical_formula_structural       Zn2P2H16C14S2N2O6
_chemical_formula_sum              "Zn2 P2 H16 C14 S2 N2 O6"
_cell_length_a       5.111149152249017
_cell_length_b       9.351113686999385
_cell_length_c       11.683382317494583
_cell_angle_alpha    66.99084220880003
_cell_angle_beta     84.02153499882255
_cell_angle_gamma    90.27503526094617

_space_group_name_H-M_alt    "P 1"
_space_group_IT_number       1

loop_
  _space_group_symop_operation_xyz
  'x, y, z'

loop_
  _atom_site_type_symbol
  _atom_site_label
  _atom_site_symmetry_multiplicity
  _atom_site_fract_x
  _atom_site_fract_y
  _atom_site_fract_z
  _atom_site_occupancy
  Zn  Zn1       1.0  0.7326233163035596  0.8261242677704246  0.9896682398470347  1.0000
  Zn  Zn2       1.0  0.2673806542258674  0.1738715648889766  0.010336073803841826  1.0000
  P   P1        1.0  0.20598230349898466  0.7928802857033403  0.1451705038901636  1.0000
  P   P2        1.0  0.7940174825455271  0.2071107225996371  0.8548321825134408  1.0000
  H   H1        1.0  0.23079943524488297  0.5533440691384898  0.3236859451516878  1.0000
  H   H2        1.0  0.7692069473723181  0.4466608971771962  0.6763100798274593  1.0000
  H   H3        1.0  0.4917850289334638  0.691805098273072  0.2990571653692555  1.0000
  H   H4        1.0  0.5082062101691848  0.3081727417853132  0.700942590201265  1.0000
  H   H5        1.0  0.9233649724646397  0.6875725102077297  0.41987607708044555  1.0000
  H   H6        1.0  0.0766108687220637  0.3124121493234711  0.5801229691234865  1.0000
  H   H7        1.0  0.15434023103921396  0.8508772156494049  0.37508507677330266  1.0000
  H   H8        1.0  0.8456716113681323  0.14911933362194674  0.6249040819780801  1.0000
  H   H9        1.0  0.37339309732891474  0.5366180808632562  0.7972356037161319  1.0000
  H   H10       1.0  0.6266195584057783  0.46339409022853306  0.20276201663668306  1.0000
  H   H11       1.0  0.16678685089522108  0.6183855943814862  0.9624934839435256  1.0000
  H   H12       1.0  0.8332262008548951  0.3816346195721323  0.037498871880565283  1.0000
  H   H13       1.0  0.6245805328092686  0.8759575871030734  0.7348414126613959  1.0000
  H   H14       1.0  0.37542586063756295  0.12404747448822212  0.2651571488094717  1.0000
  H   H15       1.0  0.8195871681992488  0.8175203273124011  0.554802877387381  1.0000
  H   H16       1.0  0.18042346063346323  0.18249065770931594  0.44519523061671157  1.0000
  C   C1        1.0  0.2767780186382609  0.6763662404827143  0.30316000121050024  1.0000
  C   C2        1.0  0.723212253812136  0.3236308127244385  0.6968505267234092  1.0000
  C   C3        1.0  0.1332868450721989  0.7244049747156538  0.4026399055126149  1.0000
  C   C4        1.0  0.8666971177992335  0.2755839016755672  0.5973744897506422  1.0000
  C   C5        1.0  0.12019493111932181  0.6747321277948047  0.6591758798164733  1.0000
  C   C6        1.0  0.879847285213394  0.3252806495504856  0.3408270355387657  1.0000
  C   C7        1.0  0.21036904020184008  0.6140751496947489  0.7781110204735597  1.0000
  C   C8        1.0  0.7896438043345172  0.3859406362043885  0.22188881270951544  1.0000
  C   C9        1.0  0.0906901471533459  0.6545318258768803  0.8721873727219672  1.0000
  C   C10       1.0  0.9092988214755451  0.34547886911716574  0.12781096703359646  1.0000
  C   C11       1.0  0.7921981343152426  0.8021635687902133  0.743800034320536  1.0000
  C   C12       1.0  0.20779433976202447  0.19783881271464313  0.25619491912793524  1.0000
  C   C13       1.0  0.90314687946546  0.7700068283380261  0.6433459621174008  1.0000
  C   C14       1.0  0.0968471601579139  0.22998747026694127  0.3566524669336176  1.0000
  S   S1        1.0  0.28892757760919346  0.6259238397271571  0.5438529480949441  1.0000
  S   S2        1.0  0.7110683105814033  0.37406747096171966  0.45615923464172436  1.0000
  N   N1        1.0  0.8839025574723395  0.7472863033797169  0.8564956835887897  1.0000
  N   N2        1.0  0.11609258644470796  0.25273008445544315  0.14349534079035214  1.0000
  O   O1        1.0  0.9105908462881799  0.7664527768293325  0.1397799808792755  1.0000
  O   O2        1.0  0.08941660803036909  0.2335345517896528  0.8602158734810601  1.0000
  O   O3        1.0  0.28704729691968106  0.9593785722609456  0.12638328886681185  1.0000
  O   O4        1.0  0.7129367753361607  0.0406132202497602  0.8736147182873707  1.0000
  O   O5        1.0  0.3766971611639605  0.7321546917029239  0.05806295119683816  1.0000
  O   O6        1.0  0.6233008849722879  0.2678409117267506  0.9419374287629266  1.0000
