data_image0
_chemical_formula_structural       Zn2H28C32N8O8
_chemical_formula_sum              "Zn2 H28 C32 N8 O8"
_cell_length_a       8.878431333852518
_cell_length_b       9.586110506493915
_cell_length_c       10.889436467668071
_cell_angle_alpha    67.55928542106795
_cell_angle_beta     65.41055637225286
_cell_angle_gamma    77.11593189865413

_space_group_name_H-M_alt    "P 1"
_space_group_IT_number       1

loop_
  _space_group_symop_operation_xyz
  'x, y, z'

loop_
  _atom_site_type_symbol
  _atom_site_label
  _atom_site_symmetry_multiplicity
  _atom_site_fract_x
  _atom_site_fract_y
  _atom_site_fract_z
  _atom_site_occupancy
  Zn  Zn1       1.0  0.367321804518788  0.30602752993890897  0.44414679589434763  1.0000
  Zn  Zn2       1.0  0.6326773293513384  0.6939719243646961  0.5558534834885048  1.0000
  H   H1        1.0  0.2375711051092679  0.3464715071386664  0.18921569219539683  1.0000
  H   H2        1.0  0.7624280287608586  0.6535279471649316  0.8107845871874559  1.0000
  H   H3        1.0  0.4631462069237885  0.663453204517623  0.2273511650353724  1.0000
  H   H4        1.0  0.5368528313386705  0.3365473817287921  0.7726487659429394  1.0000
  H   H5        1.0  0.391411588933103  0.7904808372767177  0.978105731111654  1.0000
  H   H6        1.0  0.6085886878758586  0.209519749711454  0.02189378736714795  1.0000
  H   H7        1.0  0.21401660365594208  0.47772895315424796  0.9535990164230764  1.0000
  H   H8        1.0  0.7859851136836653  0.5222693701248317  0.04639986461505437  1.0000
  H   H9        1.0  0.32420334949429025  0.6397246811551653  0.8397087408328686  1.0000
  H   H10       1.0  0.6757957843758363  0.36027477314843276  0.1602915385499769  1.0000
  H   H11       1.0  0.10419392160287091  0.7431632025999023  0.7421231717056642  1.0000
  H   H12       1.0  0.8958064615825663  0.2568362518802444  0.25787577342745044  1.0000
  H   H13       1.0  0.6597385992077919  0.9502753490903473  0.9919867958552753  1.0000
  H   H14       1.0  0.34026290537884313  0.04972523920477558  0.008013231874244285  1.0000
  H   H15       1.0  0.7345334448404374  0.8163356529183828  0.20674344896053037  1.0000
  H   H16       1.0  0.26546711879152  0.1836615382413385  0.7932571147318794  1.0000
  H   H17       1.0  0.9961057142528703  0.6537183438258295  0.18841024758807395  1.0000
  H   H18       1.0  0.0038935475313764067  0.34627997683933387  0.811587614948628  1.0000
  H   H19       1.0  0.8696932212614713  0.8758761222802747  0.6510883573590716  1.0000
  H   H20       1.0  0.1303058062321725  0.12412446453134858  0.34891249536946833  1.0000
  H   H21       1.0  0.7024294152630404  0.97815073510575  0.7489376258411296  1.0000
  H   H22       1.0  0.29757085077709894  0.0218498524476232  0.25106281438790745  1.0000
  H   H23       1.0  0.1529836007447187  0.01680739022597069  0.6773614912330002  1.0000
  H   H24       1.0  0.8470155331254078  0.9831920640776346  0.3226387881498525  1.0000
  H   H25       1.0  0.9922168950036013  0.4269331755170213  0.4183056241295019  1.0000
  H   H26       1.0  0.007783381805353418  0.5730674114711504  0.5816938943493  1.0000
  H   H27       1.0  0.7462266519560501  0.22687509855929017  0.5481136475267975  1.0000
  H   H28       1.0  0.25377248191407625  0.773124355744315  0.4518866318560484  1.0000
  C   C1        1.0  0.5102533457518065  0.0065260840341067996  0.42288903102539155  1.0000
  C   C2        1.0  0.48974558613416985  0.993475634720333  0.5771114732986149  1.0000
  C   C3        1.0  0.5887974025746274  0.4811306135022093  0.44894759487845437  1.0000
  C   C4        1.0  0.41120049274899634  0.5188688400596462  0.5510530970039084  1.0000
  C   C5        1.0  0.2883734733405703  0.4488036842555658  0.16987793980294444  1.0000
  C   C6        1.0  0.7116255541530664  0.5511969025560574  0.8301229129256028  1.0000
  C   C7        1.0  0.4030997175823218  0.6165975999140726  0.18468593263992256  1.0000
  C   C8        1.0  0.5968992250724698  0.38340411827515897  0.8153136499338555  1.0000
  C   C9        1.0  0.3692892658998019  0.6813775847793123  0.06146438941530624  1.0000
  C   C10       1.0  0.6307097723626568  0.3186230014671096  0.9385355415630056  1.0000
  C   C11       1.0  0.23080203629555035  0.591503605407567  0.9457221875120394  1.0000
  C   C12       1.0  0.7691984317287465  0.40849471769497103  0.054278027775836776  1.0000
  C   C13       1.0  0.06910381192727046  0.6896178872925275  0.9628310269423109  1.0000
  C   C14       1.0  0.9308979269499745  0.3103804348561354  0.03716601059536369  1.0000
  C   C15       1.0  0.023210252415935915  0.7613990344317613  0.8433973361535717  1.0000
  C   C16       1.0  0.9767901307695084  0.23860042004838522  0.15660160897954256  1.0000
  C   C17       1.0  0.8769500277184364  0.8566938661469905  0.852802546241605  1.0000
  C   C18       1.0  0.12304929736702522  0.1433033242709811  0.147198429950322  1.0000
  C   C19       1.0  0.7737290910402876  0.8759066147341982  0.9843644296726524  1.0000
  C   C20       1.0  0.22627127060751923  0.1240928408763651  0.01563635896091846  1.0000
  C   C21       1.0  0.8161290933677848  0.801592719943251  0.10459372000141812  1.0000
  C   C22       1.0  0.1838713854253271  0.19840560259408596  0.8954055735362229  1.0000
  C   C23       1.0  0.9640699767274086  0.7096033185229514  0.09355239404417418  1.0000
  C   C24       1.0  0.035930427995673114  0.2903961348267855  0.9064447075884768  1.0000
  C   C25       1.0  0.8356849054174234  0.9439999643620212  0.7214696290094479  1.0000
  C   C26       1.0  0.16431431329154833  0.0559983585639756  0.2785319205281737  1.0000
  C   C27       1.0  0.0793559360712379  0.10172191754404737  0.6220282836583804  1.0000
  C   C28       1.0  0.9206431021912211  0.8982786687023746  0.3779716473199313  1.0000
  C   C29       1.0  0.9919558879163973  0.31146549575506544  0.48971992221218114  1.0000
  C   C30       1.0  0.008043150346061612  0.6885350904913566  0.5102800087661307  1.0000
  C   C31       1.0  0.8669565707241703  0.21491498056446548  0.5549601106076235  1.0000
  C   C32       1.0  0.13304370608478425  0.7850856064236992  0.445039407871178  1.0000
  N   N1        1.0  0.351673864657208  0.4711292130362922  0.2517092230588531  1.0000
  N   N2        1.0  0.6483252692129186  0.528870241267306  0.7482910563239995  1.0000
  N   N3        1.0  0.2968627367779035  0.5729343695675837  0.053676418484812395  1.0000
  N   N4        1.0  0.7031377312463862  0.4270639535349545  0.9463237968030636  1.0000
  N   N5        1.0  0.924200719343567  0.0830939732023666  0.6385052524748144  1.0000
  N   N6        1.0  0.07579955746538766  0.916906613785798  0.3614942660039873  1.0000
  N   N7        1.0  0.1241229018419361  0.23912250958660047  0.5317369958704957  1.0000
  N   N8        1.0  0.8758773641982033  0.7608780779667725  0.46826344435853423  1.0000
  O   O1        1.0  0.5641584736784253  0.888198891978277  0.38763336423526334  1.0000
  O   O2        1.0  0.43584055381521136  0.11180169483334619  0.6123674884932766  1.0000
  O   O3        1.0  0.4717313927185316  0.13466835746081782  0.3440411609317877  1.0000
  O   O4        1.0  0.5282688733216078  0.8653322300925551  0.6559592792972424  1.0000
  O   O5        1.0  0.6035115539840844  0.3839661998976211  0.39109561187347464  1.0000
  O   O6        1.0  0.3964874842783743  0.6160343863487938  0.6089043191048444  1.0000
  O   O7        1.0  0.7062165629420393  0.5491796630435957  0.4322455774785394  1.0000
  O   O8        1.0  0.2937824645515974  0.4508209237680276  0.5677552752500076  1.0000
