data_image0
_chemical_formula_structural       Al6H38C84S12O64
_chemical_formula_sum              "Al6 H38 C84 S12 O64"
_cell_length_a       14.018011880376246
_cell_length_b       14.052589848151277
_cell_length_c       28.1146970987396
_cell_angle_alpha    90.03544614442035
_cell_angle_beta     90.11625913766747
_cell_angle_gamma    120.39817604106119

_space_group_name_H-M_alt    "P 1"
_space_group_IT_number       1

loop_
  _space_group_symop_operation_xyz
  'x, y, z'

loop_
  _atom_site_type_symbol
  _atom_site_label
  _atom_site_symmetry_multiplicity
  _atom_site_fract_x
  _atom_site_fract_y
  _atom_site_fract_z
  _atom_site_occupancy
  Al  Al1       1.0  0.48899621228667917  0.24928161429725287  0.5009111951575704  1.0000
  Al  Al2       1.0  0.7125787573162795  0.2378598627958438  0.5000103969753624  1.0000
  Al  Al3       1.0  0.7336890736567909  0.4610739444542628  0.4999724135487326  1.0000
  Al  Al4       1.0  0.24921046315724021  0.48982310661462225  0.9991456395299421  1.0000
  Al  Al5       1.0  0.2374848323703419  0.7128520996522242  0.00024647498076289993  1.0000
  Al  Al6       1.0  0.4618680522900574  0.7345061289326792  0.0007113880199086  1.0000
  H   H1        1.0  0.9806482640195855  0.6347787348625574  0.7736321062795355  1.0000
  H   H2        1.0  0.6632256585683931  0.12487377407878598  0.20338323492066476  1.0000
  H   H3        1.0  0.4655239386250258  0.33968329442013356  0.20785312249667945  1.0000
  H   H4        1.0  0.875431564198436  0.5430788433867945  0.21458465909789476  1.0000
  H   H5        1.0  0.8247379040928494  0.4315085820660796  0.7317937114181416  1.0000
  H   H6        1.0  0.5729435075519405  0.40094132546283834  0.7368446672157205  1.0000
  H   H7        1.0  0.6081837153694565  0.17382392111104378  0.7405054224306367  1.0000
  H   H8        1.0  0.41500846218403326  0.8198506196956996  0.23063833978654458  1.0000
  H   H9        1.0  0.40853473594319223  0.585878579493091  0.2348493497112756  1.0000
  H   H10       1.0  0.18174657747129438  0.6026441122817445  0.23960320181689093  1.0000
  H   H11       1.0  0.21773329781041179  0.5579441441809506  0.7538472315822489  1.0000
  H   H12       1.0  0.3743993624537937  0.3592606865683479  0.7806140869495763  1.0000
  H   H13       1.0  0.4562920457280623  0.67319711795011  0.7557830547553408  1.0000
  H   H14       1.0  0.3356342299637588  0.7820459049088766  0.7597469113508879  1.0000
  H   H15       1.0  0.5516632444153586  0.21277415668747318  0.256737993224867  1.0000
  H   H16       1.0  0.6697884633475724  0.4560884963123328  0.259362779742851  1.0000
  H   H17       1.0  0.7884252858867243  0.33608310722914325  0.26303522223366116  1.0000
  H   H18       1.0  0.8800337786000156  0.18291733795349055  0.7364708112569429  1.0000
  H   H19       1.0  0.8288919085300891  0.7122838057032512  0.7378542728155608  1.0000
  H   H20       1.0  0.28882640793308667  0.10873463428512753  0.7383248263530573  1.0000
  H   H21       1.0  0.18299633129192466  0.8707291616397511  0.22011349427808816  1.0000
  H   H22       1.0  0.6914395908150793  0.817392223181791  0.2200368800357282  1.0000
  H   H23       1.0  0.6484727852368833  0.01999986968542073  0.787610539588222  1.0000
  H   H24       1.0  0.13260242341100795  0.322543975552513  0.22079115319339584  1.0000
  H   H25       1.0  0.04947899610222347  0.23302999113910522  0.7632553640290494  1.0000
  H   H26       1.0  0.7783103661236338  0.8279641712574273  0.763264492599063  1.0000
  H   H27       1.0  0.17693691449341725  0.9392303241639933  0.7614704791913026  1.0000
  H   H28       1.0  0.2571478779057301  0.07030908480421519  0.2738397829953243  1.0000
  H   H29       1.0  0.8216073446128788  0.752275934565901  0.2738150645350074  1.0000
  H   H30       1.0  0.9330678626453944  0.1863325825813078  0.27290953274834345  1.0000
  H   H31       1.0  0.615471001192418  0.968048627440666  0.2771180509588049  1.0000
  H   H32       1.0  0.3599385591463572  0.3893288727933849  0.2826254612796149  1.0000
  H   H33       1.0  0.03257693777101889  0.6449989774451482  0.2897393431448804  1.0000
  H   H34       1.0  0.13246373219884333  0.669684485121003  0.698771500504243  1.0000
  H   H35       1.0  0.3363873761997808  0.4702078381007055  0.704039115449376  1.0000
  H   H36       1.0  0.5426076861948627  0.8672717973506604  0.7111452136315677  1.0000
  H   H37       1.0  0.30451019069340646  0.14397843934197846  0.4753895013710903  1.0000
  H   H38       1.0  0.16947716351953088  0.3078282007070569  0.027340392731325398  1.0000
  C   C1        1.0  0.5809598869185422  0.44635485125525065  0.5660510715977409  1.0000
  C   C2        1.0  0.47273824533024134  0.994196977978696  0.1952861323596409  1.0000
  C   C3        1.0  0.5241639029707416  0.5285588376736214  0.19872234228919433  1.0000
  C   C4        1.0  0.007010106101397264  0.4878089033237957  0.20282504950623087  1.0000
  C   C5        1.0  0.9590199663990832  0.39986848121552027  0.7660556051046683  1.0000
  C   C6        1.0  0.6112487509888639  0.5711864766785125  0.7685571888766274  1.0000
  C   C7        1.0  0.43613354762190687  0.039927973258130606  0.7705313630754559  1.0000
  C   C8        1.0  0.3853991633723269  0.9554628660889434  0.26505236069704097  1.0000
  C   C9        1.0  0.577375355861143  0.6196189529546526  0.26767226101753744  1.0000
  C   C10       1.0  0.046485856069580195  0.43117567736985746  0.2704032648365242  1.0000
  C   C11       1.0  0.9127091302913755  0.4617343014492619  0.7365676343835189  1.0000
  C   C12       1.0  0.5517006040449033  0.12021891495802342  0.5670633370018905  1.0000
  C   C13       1.0  0.5449343823519398  0.46004141021904127  0.7409324412309457  1.0000
  C   C14       1.0  0.5493005322453683  0.08603418559358293  0.7445569924605095  1.0000
  C   C15       1.0  0.4470087466697593  0.9076339481707123  0.23665387971080065  1.0000
  C   C16       1.0  0.4653921671269715  0.5553227196001913  0.24045615467115766  1.0000
  C   C17       1.0  0.09377381234894956  0.5445149560772008  0.24477631506397293  1.0000
  C   C18       1.0  0.07280047881811669  0.5292107192605896  0.83933748645196  1.0000
  C   C19       1.0  0.4863819964188921  0.5638844188532771  0.8422753849544334  1.0000
  C   C20       1.0  0.43870401156984684  0.9245915747035411  0.8462368731827467  1.0000
  C   C21       1.0  0.5111597277161125  0.06227635697305082  0.3411358482354885  1.0000
  C   C22       1.0  0.5641843164205226  0.49705591692626405  0.34400120195086703  1.0000
  C   C23       1.0  0.8604288311373834  0.40869659205338127  0.563132766206806  1.0000
  C   C24       1.0  0.9357032728196157  0.4367382536517467  0.348010740682561  1.0000
  C   C25       1.0  0.9610925867714284  0.4597888482763465  0.6466866972497343  1.0000
  C   C26       1.0  0.5411190749017295  0.5026819348939711  0.6504050449507942  1.0000
  C   C27       1.0  0.5106709344852618  0.03398222393239791  0.6535815855950915  1.0000
  C   C28       1.0  0.4553728989100989  0.9617202267635035  0.1469906331058581  1.0000
  C   C29       1.0  0.5060809144959677  0.5428501275911515  0.1504849878118293  1.0000
  C   C30       1.0  0.03577990239820386  0.5067581482497728  0.1541873353821615  1.0000
  C   C31       1.0  0.5822879995376126  0.44269625686474956  0.43238253161415935  1.0000
  C   C32       1.0  0.5517366767721156  0.12468868537520442  0.4314857246830712  1.0000
  C   C33       1.0  0.8550310512303837  0.40587453419783504  0.4351497621905409  1.0000
  C   C34       1.0  0.4451650826433066  0.578672274976057  0.06625889879390459  1.0000
  C   C35       1.0  0.4441399392700942  0.5867965320476997  0.9320467784149143  1.0000
  C   C36       1.0  0.12884296555048994  0.555012354754858  0.9305424979366277  1.0000
  C   C37       1.0  0.4034246458625003  0.8528358460389351  0.9349698430483426  1.0000
  C   C38       1.0  0.08361008458068385  0.5935387843242308  0.7187281207012005  1.0000
  C   C39       1.0  0.4140034380391383  0.4990300632289219  0.7232298878912856  1.0000
  C   C40       1.0  0.5122092582111081  0.9157583286073105  0.728933276926611  1.0000
  C   C41       1.0  0.5844912766169728  0.07709673196104919  0.22179207882150817  1.0000
  C   C42       1.0  0.4975666730400262  0.41896168267684425  0.22581876954892263  1.0000
  C   C43       1.0  0.9234740616204745  0.5109430326320351  0.23145235870593683  1.0000
  C   C44       1.0  0.9993003743796082  0.5740016990510809  0.7592098032459518  1.0000
  C   C45       1.0  0.11893495889299276  0.5523934721877238  0.0670284116905933  1.0000
  C   C46       1.0  0.4350567331130152  0.43740632693034337  0.7645913015713788  1.0000
  C   C47       1.0  0.5710092942535852  0.0005167262887509823  0.7702313885103962  1.0000
  C   C48       1.0  0.5578505445762616  0.9898619675815111  0.2617110493547017  1.0000
  C   C49       1.0  0.4387410409500632  0.4466041863322872  0.2661744073950203  1.0000
  C   C50       1.0  0.01098335049600521  0.5678172011079142  0.2719508071340755  1.0000
  C   C51       1.0  0.09240381368928038  0.5406328751356354  0.8817826545804122  1.0000
  C   C52       1.0  0.47145339415932586  0.573296526439023  0.8841754541920323  1.0000
  C   C53       1.0  0.4253765019402352  0.8989337816522391  0.8880472834157798  1.0000
  C   C54       1.0  0.5279261774672576  0.08378612320554167  0.38332789015367297  1.0000
  C   C55       1.0  0.5708894047589865  0.47743079936866906  0.3856047612977206  1.0000
  C   C56       1.0  0.41101835156722194  0.8611341080710132  0.063575510890665  1.0000
  C   C57       1.0  0.9071430549840472  0.42538766975430786  0.3894559937108824  1.0000
  C   C58       1.0  0.9226640210711278  0.4390334046233587  0.6066256378917314  1.0000
  C   C59       1.0  0.5580800138393726  0.48162348622577145  0.6104359305676113  1.0000
  C   C60       1.0  0.5282106892165501  0.06666091936238419  0.6126920945676204  1.0000
  C   C61       1.0  0.43778287483182504  0.9239087250617357  0.1068543396358166  1.0000
  C   C62       1.0  0.48368385676384656  0.5579879681559491  0.1104050004671322  1.0000
  C   C63       1.0  0.06671886430223146  0.52549507716639  0.11306563521245747  1.0000
  C   C64       1.0  0.13076996196157614  0.5324727675915782  0.7484983537772363  1.0000
  C   C65       1.0  0.4795771043901739  0.6104396590447579  0.7510150681740412  1.0000
  C   C66       1.0  0.3986019688279399  0.8687186781008192  0.7548827344778104  1.0000
  C   C67       1.0  0.9959359660498208  0.4808988241494203  0.6946635531335942  1.0000
  C   C68       1.0  0.5236797047991643  0.12568580104599644  0.2506794435606992  1.0000
  C   C69       1.0  0.6095697917078128  0.48249966525823856  0.2534786642113289  1.0000
  C   C70       1.0  0.8754633970883177  0.3974833465673341  0.257332880072397  1.0000
  C   C71       1.0  0.04723448947007091  0.5139207164559136  0.7902764597970702  1.0000
  C   C72       1.0  0.49979086462109007  0.5489570099360889  0.7935928770000585  1.0000
  C   C73       1.0  0.4572642266093328  0.9525896405905315  0.7975227892877399  1.0000
  C   C74       1.0  0.4973126715965535  0.03866939013482095  0.2918757091403634  1.0000
  C   C75       1.0  0.5509096483531906  0.5099296813210118  0.2950653834514654  1.0000
  C   C76       1.0  0.9626751880620574  0.454196295831231  0.29917660292601056  1.0000
  C   C77       1.0  0.04456565480850128  0.4204205369466507  0.7255032199480169  1.0000
  C   C78       1.0  0.5243250797256775  0.5208174909314776  0.6982728678185663  1.0000
  C   C79       1.0  0.5893905064854652  0.6332962937571267  0.7271459989898617  1.0000
  C   C80       1.0  0.3769903940437941  0.9541946204814094  0.7290981189333436  1.0000
  C   C81       1.0  0.41285750035293484  0.04452935382688133  0.22533968051472894  1.0000
  C   C82       1.0  0.6372179688500096  0.5912744828005357  0.22752013057328205  1.0000
  C   C83       1.0  0.9573614108711153  0.373295160532251  0.2300283237077139  1.0000
  C   C84       1.0  0.4916666751289327  0.002544278130571254  0.7019239253139558  1.0000
  S   S1        1.0  0.873446900140614  0.27533556098340733  0.7988848624241598  1.0000
  S   S2        1.0  0.3192078756592735  0.08334829676071104  0.2035366077167282  1.0000
  S   S3        1.0  0.7690342343012014  0.6846869359581828  0.2042826057607243  1.0000
  S   S4        1.0  0.9197733833924602  0.24404993754772153  0.20455560707316778  1.0000
  S   S5        1.0  0.7381424555801247  0.610052554170494  0.7996091174446603  1.0000
  S   S6        1.0  0.3946351072113075  0.12778679688146602  0.7992472809732829  1.0000
  S   S7        1.0  0.2513992224698712  0.8764604249960826  0.2891265227864465  1.0000
  S   S8        1.0  0.6329140905050679  0.7547800537548496  0.29016873832465245  1.0000
  S   S9        1.0  0.12648645758164884  0.3753964758762435  0.2917030207755005  1.0000
  S   S10       1.0  0.07231426245628814  0.32312848976719977  0.6993329823577382  1.0000
  S   S11       1.0  0.6867927078075129  0.757244357618582  0.6996562139234327  1.0000
  S   S12       1.0  0.255091489383112  0.9258157726166516  0.6990772459386534  1.0000
  O   O1        1.0  0.4911589620439187  0.15788421922636786  0.5541538748991428  1.0000
  O   O2        1.0  0.3506195630534562  0.5055982839442946  0.05204142311717419  1.0000
  O   O3        1.0  0.13557567136979284  0.6436137252290947  0.0485085135167154  1.0000
  O   O4        1.0  0.48356348788868814  0.8391977958920551  0.0481208322610414  1.0000
  O   O5        1.0  0.4835120033067284  0.14522353518516695  0.4513105762142259  1.0000
  O   O6        1.0  0.8294802200317264  0.31532981123474724  0.4560138052721499  1.0000
  O   O7        1.0  0.6706743082250171  0.5101944354249566  0.45561263310128897  1.0000
  O   O8        1.0  0.15867161282527312  0.48998089325688443  0.9459925718502544  1.0000
  O   O9        1.0  0.3075304404747286  0.8209714086476793  0.9521264246380027  1.0000
  O   O10       1.0  0.5101476067429832  0.6803747978410543  0.9520156858174857  1.0000
  O   O11       1.0  0.5080546097434321  0.3484388499421057  0.4457758777342917  1.0000
  O   O12       1.0  0.8197176283571109  0.30907958156574705  0.5490080393795722  1.0000
  O   O13       1.0  0.6436968699145353  0.1410362640813432  0.4492018767330633  1.0000
  O   O14       1.0  0.8334169734486209  0.4788410011518848  0.4500504936124442  1.0000
  O   O15       1.0  0.3569077488836286  0.5088861514860881  0.9495950651219189  1.0000
  O   O16       1.0  0.13178650527569852  0.6359510709112823  0.9535531595656224  1.0000
  O   O17       1.0  0.4794576895703953  0.8421787338541121  0.9549052145519923  1.0000
  O   O18       1.0  0.6466428203963233  0.31648761631670647  0.4999210045161532  1.0000
  O   O19       1.0  0.3168656652810923  0.6475339620859301  0.0003473080104398998  1.0000
  O   O20       1.0  0.9192787139125117  0.2820969222472129  0.8450311819385021  1.0000
  O   O21       1.0  0.7609926697024604  0.249246397892513  0.7922783070865691  1.0000
  O   O22       1.0  0.8904027524996111  0.18256170796511376  0.7715822851074918  1.0000
  O   O23       1.0  0.6794465174316142  0.5074788314589823  0.5494829923622432  1.0000
  O   O24       1.0  0.7337042816773547  0.6451906728806235  0.8468378497969694  1.0000
  O   O25       1.0  0.7647052669202806  0.5254840431358401  0.7902062375038524  1.0000
  O   O26       1.0  0.8293645400624783  0.7229254754076989  0.7730157538297249  1.0000
  O   O27       1.0  0.3649625463817188  0.09387424030946077  0.8474632017628351  1.0000
  O   O28       1.0  0.4752617816933622  0.23935057168441876  0.786749829750164  1.0000
  O   O29       1.0  0.27832414910975695  0.09644826176009495  0.7734070496173189  1.0000
  O   O30       1.0  0.24451928561127545  0.793569942864174  0.32069750225464577  1.0000
  O   O31       1.0  0.21834818687393218  0.9540445304155014  0.30540503369367394  1.0000
  O   O32       1.0  0.1827988870747674  0.8145303144148598  0.24288561883574994  1.0000
  O   O33       1.0  0.5579043999108464  0.7628880671234197  0.3219310575948171  1.0000
  O   O34       1.0  0.14765074433505282  0.4878005787619343  0.049913135789879  1.0000
  O   O35       1.0  0.7457415066011136  0.7913097730850039  0.30553268383552273  1.0000
  O   O36       1.0  0.6360806780243422  0.8184492545624238  0.24303657142537108  1.0000
  O   O37       1.0  0.2089297335892936  0.4483919780370299  0.3246326369510512  1.0000
  O   O38       1.0  0.04912062394493697  0.26164792261800335  0.3053211432354033  1.0000
  O   O39       1.0  0.18880294734542247  0.3764792068768584  0.24451522472605797  1.0000
  O   O40       1.0  0.9673558100675875  0.23300614386729987  0.6823992195372454  1.0000
  O   O41       1.0  0.1646809807511359  0.37915226026692744  0.668004269628433  1.0000
  O   O42       1.0  0.11479274879904718  0.2823104868480897  0.7435505292613271  1.0000
  O   O43       1.0  0.7766507655906448  0.7425386498594118  0.6832703704324175  1.0000
  O   O44       1.0  0.6308952584995423  0.7922114616419049  0.6677650226256304  1.0000
  O   O45       1.0  0.31561629895348636  0.8278067252397391  0.045494996553792084  1.0000
  O   O46       1.0  0.729193102396607  0.8432381289449821  0.7432016861074473  1.0000
  O   O47       1.0  0.26924774344499264  0.030419139727165062  0.6833473072672476  1.0000
  O   O48       1.0  0.22526646824289998  0.8372674134600613  0.6662311556492496  1.0000
  O   O49       1.0  0.16455369426164893  0.876590526792654  0.7408203115976945  1.0000
  O   O50       1.0  0.3742041827427299  0.1724200329753031  0.17059548468719746  1.0000
  O   O51       1.0  0.2189746644130891  0.9831597524792954  0.18890025879694855  1.0000
  O   O52       1.0  0.2956982510971073  0.13220054067943465  0.249931111403761  1.0000
  O   O53       1.0  0.80265665949895  0.628740474641759  0.1718532058120488  1.0000
  O   O54       1.0  0.767390749712767  0.782609310143961  0.18856681346485255  1.0000
  O   O55       1.0  0.8446294747921144  0.7130616996954229  0.2501960455545102  1.0000
  O   O56       1.0  0.5095864161139616  0.6723807175369456  0.0463499694803318  1.0000
  O   O57       1.0  0.8307092376363342  0.212434358053315  0.1716180316557612  1.0000
  O   O58       1.0  0.020647069321419978  0.24816696836111163  0.1887628333794211  1.0000
  O   O59       1.0  0.8708614811445585  0.16490667781806664  0.2491703865373367  1.0000
  O   O60       1.0  0.505065250663641  0.3577652979344989  0.5482614437730291  1.0000
  O   O61       1.0  0.6353797578443333  0.12811023955256218  0.5442413602761391  1.0000
  O   O62       1.0  0.8464106856134563  0.48253768276490666  0.5431827615162419  1.0000
  O   O63       1.0  0.34573951170193606  0.1893082782674256  0.5022111383860661  1.0000
  O   O64       1.0  0.18664514781914918  0.3467080230678831  0.9974011077121359  1.0000
