data_image0
_chemical_formula_structural       Cu2H28C28I2N4O4
_chemical_formula_sum              "Cu2 H28 C28 I2 N4 O4"
_cell_length_a       4.1557092020418
_cell_length_b       12.246258313095176
_cell_length_c       14.860318076301727
_cell_angle_alpha    106.76491759447238
_cell_angle_beta     89.99960258290862
_cell_angle_gamma    90.00041968404994

_space_group_name_H-M_alt    "P 1"
_space_group_IT_number       1

loop_
  _space_group_symop_operation_xyz
  'x, y, z'

loop_
  _atom_site_type_symbol
  _atom_site_label
  _atom_site_symmetry_multiplicity
  _atom_site_fract_x
  _atom_site_fract_y
  _atom_site_fract_z
  _atom_site_occupancy
  Cu  Cu1       1.0  0.008917637389430402  0.27513955675597396  0.06192030864552577  1.0000
  Cu  Cu2       1.0  0.9910615612321578  0.27514011702712077  0.5619207673829081  1.0000
  H   H1        1.0  0.26368258146528234  0.21750823987005669  0.2270834765101739  1.0000
  H   H2        1.0  0.7363394605207745  0.21750916015150068  0.727090576306452  1.0000
  H   H3        1.0  0.1367438324513301  0.08328067401421889  0.3163688303950565  1.0000
  H   H4        1.0  0.8632755494935793  0.0832843938789054  0.8163709600177568  1.0000
  H   H5        1.0  0.5521333732694912  0.8947630180647648  0.08114359965171748  1.0000
  H   H6        1.0  0.4478754869307054  0.8947710250806435  0.5811435202304124  1.0000
  H   H7        1.0  0.6793862912075428  0.046812367744522  0.004397872521273896  1.0000
  H   H8        1.0  0.32060626462844516  0.0468175720033486  0.5044014172897491  1.0000
  H   H9        1.0  0.7321898690774732  0.8498228007017656  0.38676285261889365  1.0000
  H   H10       1.0  0.2678081319621626  0.8498244929592076  0.8867676890143201  1.0000
  H   H11       1.0  0.8088665415672694  0.9984814534524342  0.39994011764348153  1.0000
  H   H12       1.0  0.19113191841733376  0.9984889573740289  0.8999431143701031  1.0000
  H   H13       1.0  0.11121853457454733  0.895393964020876  0.3537608222999609  1.0000
  H   H14       1.0  0.8887812525194434  0.8953977331216337  0.8537622406041406  1.0000
  H   H15       1.0  0.7326840767589644  0.33083844845643984  0.2510516535717642  1.0000
  H   H16       1.0  0.26733499610508465  0.3308605745816421  0.7510438279312196  1.0000
  H   H17       1.0  0.8359127023598348  0.46586822061509986  0.405575620990561  1.0000
  H   H18       1.0  0.1640934481386154  0.46588246573237047  0.9055654607160334  1.0000
  H   H19       1.0  0.4284673813007204  0.6602220510962269  0.266732000945602  1.0000
  H   H20       1.0  0.5714934000450568  0.6602243318068942  0.7667296516905466  1.0000
  H   H21       1.0  0.32927390835900644  0.5060453627548469  0.11664194704226817  1.0000
  H   H22       1.0  0.6706944633429899  0.5060435756900787  0.6166384411162937  1.0000
  H   H23       1.0  0.2249750502503431  0.6960845102567532  0.5917918943289352  1.0000
  H   H24       1.0  0.7750196627356162  0.6960803620381311  0.09179581410646147  1.0000
  H   H25       1.0  0.15542410803564624  0.5481731905024175  0.5308973438146509  1.0000
  H   H26       1.0  0.8445713314622625  0.5481657534542919  0.030892274091584657  1.0000
  H   H27       1.0  0.8501826330055096  0.6506362367241109  0.534245419149876  1.0000
  H   H28       1.0  0.1498173282138922  0.6506325364219379  0.034239903831647156  1.0000
  C   C1        1.0  0.1020828118760377  0.1461599818670649  0.1970373883684786  1.0000
  C   C2        1.0  0.897948061574887  0.14615865974129597  0.6970416220860044  1.0000
  C   C3        1.0  0.031503771492111796  0.06905872344128029  0.2467640485367539  1.0000
  C   C4        1.0  0.9685001667845939  0.0690652100612752  0.7467666262509595  1.0000
  C   C5        1.0  0.8273444690127505  0.9770357711809226  0.20650858106878187  1.0000
  C   C6        1.0  0.17265586457038748  0.977038973148545  0.7065099235346038  1.0000
  C   C7        1.0  0.706437098373577  0.9664164079423115  0.11615477088869842  1.0000
  C   C8        1.0  0.2935700341863381  0.9664164316020986  0.6161517598275879  1.0000
  C   C9        1.0  0.7811226290461235  0.0491715240021833  0.0725452681483532  1.0000
  C   C10       1.0  0.21887552643547545  0.0491739709640555  0.5725497060698076  1.0000
  C   C11       1.0  0.7270423824679639  0.8942790818724757  0.2578934726091048  1.0000
  C   C12       1.0  0.27296694882608824  0.8942748006345553  0.7578894836957417  1.0000
  C   C13       1.0  0.8499590022574355  0.9104538292982411  0.355953514302115  1.0000
  C   C14       1.0  0.15004586668621306  0.9104561387527493  0.8559573817320255  1.0000
  C   C15       1.0  0.8912112754544239  0.4034855216342024  0.2569209329830144  1.0000
  C   C16       1.0  0.10881161768301693  0.4034911404833609  0.7569148971238491  1.0000
  C   C17       1.0  0.9480148225182675  0.4810922565703778  0.3440250702877208  1.0000
  C   C18       1.0  0.05200038157479271  0.48110288245337784  0.8440216760154797  1.0000
  C   C19       1.0  0.1485541378029964  0.5747015494594905  0.3498274146738893  1.0000
  C   C20       1.0  0.8514460872959903  0.574702667193975  0.8498181850402348  1.0000
  C   C21       1.0  0.27826841366217536  0.5868797176484789  0.26601982184688916  1.0000
  C   C22       1.0  0.7217245008022887  0.586877181272868  0.7660173845160826  1.0000
  C   C23       1.0  0.21847369165278246  0.5030779992487807  0.1823957567661338  1.0000
  C   C24       1.0  0.7815074432009723  0.503082399998604  0.6823928242632107  1.0000
  C   C25       1.0  0.24100982316787173  0.6562458488868897  0.4419644150193136  1.0000
  C   C26       1.0  0.7589826739153055  0.6562459396597619  0.9419598343058837  1.0000
  C   C27       1.0  0.1119451195087251  0.6367156693435942  0.5304702949039779  1.0000
  C   C28       1.0  0.8880570419439453  0.6367108831623937  0.030469131609215983  1.0000
  I   I1        1.0  0.5079190070803036  0.2760192015782862  0.9546723486806811  1.0000
  I   I2        1.0  0.4920818687035435  0.27602898119803837  0.454674734177722  1.0000
  N   N1        1.0  0.9735692071361798  0.1395957839418784  0.1120993017902805  1.0000
  N   N2        1.0  0.026427511970595705  0.13959529025781586  0.6121027485660306  1.0000
  N   N3        1.0  0.0307839894984241  0.41092668192820264  0.1768181122541321  1.0000
  N   N4        1.0  0.9692073374461927  0.4109323057377877  0.6768144280811015  1.0000
  O   O1        1.0  0.54118443998469  0.8156015251523241  0.21971081748776555  1.0000
  O   O2        1.0  0.4588193269887882  0.8156078595873167  0.7197163773859502  1.0000
  O   O3        1.0  0.4286392678902616  0.735304983305774  0.4441828746193224  1.0000
  O   O4        1.0  0.571357276646701  0.7353175077227547  0.944188332117463  1.0000
