data_image0
_chemical_formula_structural       Cd2H36C36N8O8
_chemical_formula_sum              "Cd2 H36 C36 N8 O8"
_cell_length_a       7.010071133396836
_cell_length_b       9.679251785706477
_cell_length_c       13.353568608431994
_cell_angle_alpha    88.39209692934433
_cell_angle_beta     84.09152501000439
_cell_angle_gamma    86.17676271832501

_space_group_name_H-M_alt    "P 1"
_space_group_IT_number       1

loop_
  _space_group_symop_operation_xyz
  'x, y, z'

loop_
  _atom_site_type_symbol
  _atom_site_label
  _atom_site_symmetry_multiplicity
  _atom_site_fract_x
  _atom_site_fract_y
  _atom_site_fract_z
  _atom_site_occupancy
  Cd  Cd1       1.0  0.35219932910612783  0.7445527594119596  0.26162694419848986  1.0000
  Cd  Cd2       1.0  0.647795840553144  0.2554459699313298  0.7383720641697453  1.0000
  H   H1        1.0  0.7084388097171441  0.8840166043661455  0.895068479982939  1.0000
  H   H2        1.0  0.2915582589972985  0.1159915536170146  0.10493386225714833  1.0000
  H   H3        1.0  0.6642916287868772  0.6373791409143762  0.6159496745949229  1.0000
  H   H4        1.0  0.3357035408723945  0.36261958842891323  0.3840493337733122  1.0000
  H   H5        1.0  0.3977523246917585  0.7702806721277611  0.011826098773809704  1.0000
  H   H6        1.0  0.6022498427184216  0.2297201224682794  0.9881717605483049  1.0000
  H   H7        1.0  0.863028357556189  0.3967314519918048  0.5524134449623548  1.0000
  H   H8        1.0  0.13697219629160173  0.6032704578163647  0.4475874485321755  1.0000
  H   H9        1.0  0.946702870733773  0.39957323547987045  0.4215426242681987  1.0000
  H   H10       1.0  0.053298141914545696  0.6004235176780952  0.5784591728865964  1.0000
  H   H11       1.0  0.400915053027184  0.7967372222008963  0.5087659117708512  1.0000
  H   H12       1.0  0.5990751702764286  0.2032531907137454  0.4912328644911741  1.0000
  H   H13       1.0  0.7568405420302964  0.5389248097362299  0.30798700093711784  1.0000
  H   H14       1.0  0.2431618713054746  0.4610729198306913  0.6920124496849028  1.0000
  H   H15       1.0  0.1123327390937945  0.25497980412403354  0.26605233396387024  1.0000
  H   H16       1.0  0.8876735706740745  0.7450220970013249  0.7339475397979387  1.0000
  H   H17       1.0  0.558958662442457  0.08250609642301751  0.3160607600879288  1.0000
  H   H18       1.0  0.44105107844044505  0.9174905506218212  0.6839361353485958  1.0000
  H   H19       1.0  0.8410716281373923  0.8244369951033123  0.19565631229887265  1.0000
  H   H20       1.0  0.1589207820822977  0.17555974004922353  0.8043458904152629  1.0000
  H   H21       1.0  0.6383965451898277  0.4348304497571575  0.11563152717504016  1.0000
  H   H22       1.0  0.36160833083993543  0.5651714483672947  0.8843684141799955  1.0000
  H   H23       1.0  0.8091356308304969  0.9936874466871118  0.4114657330422845  1.0000
  H   H24       1.0  0.19086604792682493  0.0063175932103547066  0.5885357496385739  1.0000
  H   H25       1.0  0.9822840354109629  0.10856757665452221  0.4342482634975583  1.0000
  H   H26       1.0  0.017720723697507903  0.8914353776236795  0.5657523963572048  1.0000
  H   H27       1.0  0.4274556251389328  0.2627180066289085  0.20169912412595895  1.0000
  H   H28       1.0  0.572552565084571  0.7372796935687732  0.7982985574035201  1.0000
  H   H29       1.0  0.9340706964839853  0.5232227702269158  0.0785055522996458  1.0000
  H   H30       1.0  0.06593106851209998  0.4767685366708748  0.9214866574779281  1.0000
  H   H31       1.0  0.1284291371349582  0.3981528591824529  0.07638045967152611  1.0000
  H   H32       1.0  0.8715790442038768  0.6018439089800439  0.9236209995171479  1.0000
  H   H33       1.0  0.10227417793480949  0.8970509312504691  0.070708499219954  1.0000
  H   H34       1.0  0.897718940329213  0.10295404926871041  0.9292918903006112  1.0000
  H   H35       1.0  0.07971023947406049  0.8706839477212825  0.9408816667351376  1.0000
  H   H36       1.0  0.920283124715553  0.1293179677687775  0.059120314085333796  1.0000
  C   C1        1.0  0.6868504805360871  0.8516197673568372  0.9737047901606604  1.0000
  C   C2        1.0  0.3131454092505095  0.14838625463148253  0.026295433313364897  1.0000
  C   C3        1.0  0.1328812551899645  0.5490879079531085  0.18563756465179893  1.0000
  C   C4        1.0  0.8671125977723761  0.4509281140382768  0.8143496786976243  1.0000
  C   C5        1.0  0.08466968246116119  0.9514109241780773  0.3308360818478064  1.0000
  C   C6        1.0  0.9153371312408821  0.0485838941674359  0.6691700028131893  1.0000
  C   C7        1.0  0.8912208171851076  0.3551513045683948  0.18392008346167904  1.0000
  C   C8        1.0  0.1087853756614691  0.6448516527107133  0.8160805087998642  1.0000
  C   C9        1.0  0.8451198858065752  0.15766565684725717  0.2999010325628079  1.0000
  C   C10       1.0  0.15488802863901444  0.8423341970307947  0.7000995846857736  1.0000
  C   C11       1.0  0.6445299387675051  0.6456592374966093  0.5365061928361783  1.0000
  C   C12       1.0  0.35546396809327524  0.35433743859755407  0.4634936942052833  1.0000
  C   C13       1.0  0.5350587469645874  0.7986954759746182  0.03237371037813831  1.0000
  C   C14       1.0  0.46493785643278335  0.20130325636957022  0.9676252303968698  1.0000
  C   C15       1.0  0.9119727841317982  0.46314219983238303  0.4884370291532252  1.0000
  C   C16       1.0  0.0880293953613744  0.5368576420420368  0.5115638584682571  1.0000
  C   C17       1.0  0.5166019222190597  0.7226251132938161  0.4826681978754552  1.0000
  C   C18       1.0  0.483388067241961  0.27736741192833153  0.5173320153860317  1.0000
  C   C19       1.0  0.6961090922734812  0.5922368355499401  0.37536514464662935  1.0000
  C   C20       1.0  0.3038920792314599  0.4077588200814262  0.6246344352887974  1.0000
  C   C21       1.0  0.9624283312698765  0.25595886055905487  0.2512745765314649  1.0000
  C   C22       1.0  0.03757516504010279  0.7440420404700278  0.7487269619965248  1.0000
  C   C23       1.0  0.652511807219625  0.15908015969188943  0.27984311994809036  1.0000
  C   C24       1.0  0.347499154526453  0.8409185819749325  0.7201543955348556  1.0000
  C   C25       1.0  0.7578375905736507  0.8250187505299635  0.131553838983649  1.0000
  C   C26       1.0  0.24215598649089998  0.1749810733390262  0.8684474541971812  1.0000
  C   C27       1.0  0.6966661927017626  0.35691972839703817  0.166960499918396  1.0000
  C   C28       1.0  0.3033358908377792  0.6430811489447024  0.833040356842993  1.0000
  C   C29       1.0  0.9237966623957449  0.0541968758374693  0.3736306890438358  1.0000
  C   C30       1.0  0.07620673796059663  0.945805060658934  0.6263708186240607  1.0000
  C   C31       1.0  0.5784292986419217  0.2594808322725797  0.21476924606161427  1.0000
  C   C32       1.0  0.421579137507173  0.7405138028959898  0.7852300267677779  1.0000
  C   C33       1.0  0.01845259541219948  0.45596445287355203  0.1270289670918388  1.0000
  C   C34       1.0  0.9815469383643601  0.5440342234131704  0.8729675904172682  1.0000
  C   C35       1.0  0.012641283853007187  0.9218444116651198  0.009328800687860905  1.0000
  C   C36       1.0  0.9873545639982598  0.07816165169604972  0.9906729215058051  1.0000
  N   N1        1.0  0.7564634118380624  0.5635916024410507  0.46718562717406814  1.0000
  N   N2        1.0  0.2435359001789053  0.43640823343156415  0.5328153956338612  1.0000
  N   N3        1.0  0.5500636074454519  0.6881178715382958  0.38222268112882335  1.0000
  N   N4        1.0  0.44993357167374626  0.3118746480019468  0.6177764448067223  1.0000
  N   N5        1.0  0.5808919267558466  0.7830062934538092  0.13057980370924585  1.0000
  N   N6        1.0  0.4191020220402493  0.21699034126749692  0.8694185846125679  1.0000
  N   N7        1.0  0.8269031325673453  0.8663616821887385  0.03769206427570992  1.0000
  N   N8        1.0  0.17309288622354294  0.1336423309242107  0.9623104689979487  1.0000
  O   O1        1.0  0.19543610123110264  0.5095517690750028  0.26798626961208083  1.0000
  O   O2        1.0  0.8045719423386615  0.49046442773043  0.7320055433238367  1.0000
  O   O3        1.0  0.16641532360242187  0.6666595331489519  0.14320691223346674  1.0000
  O   O4        1.0  0.8335715977103246  0.33335247677359814  0.8567860380411718  1.0000
  O   O5        1.0  0.10493052867747821  0.8367834338667777  0.3798407832741831  1.0000
  O   O6        1.0  0.895065601348378  0.1632167063004317  0.6201716151174994  1.0000
  O   O7        1.0  0.19230165398202811  0.9805192490799328  0.25151202747989754  1.0000
  O   O8        1.0  0.8077010592976492  0.01947442136339821  0.7484905440217562  1.0000
