data_image0
_chemical_formula_structural       Cu4H36C24N36
_chemical_formula_sum              "Cu4 H36 C24 N36"
_cell_length_a       7.869099347382063
_cell_length_b       10.198576452265394
_cell_length_c       11.784007038010154
_cell_angle_alpha    90.00004031854509
_cell_angle_beta     89.99984991062544
_cell_angle_gamma    101.14977038727346

_space_group_name_H-M_alt    "P 1"
_space_group_IT_number       1

loop_
  _space_group_symop_operation_xyz
  'x, y, z'

loop_
  _atom_site_type_symbol
  _atom_site_label
  _atom_site_symmetry_multiplicity
  _atom_site_fract_x
  _atom_site_fract_y
  _atom_site_fract_z
  _atom_site_occupancy
  Cu  Cu1       1.0  0.916884326208155  0.9906794846285365  0.8361115274052935  1.0000
  Cu  Cu2       1.0  0.583116460024648  0.5093208943143068  0.3361111219404478  1.0000
  Cu  Cu3       1.0  0.08311526916658352  0.009320459819314  0.1638881553854574  1.0000
  Cu  Cu4       1.0  0.4168833846347582  0.4906800495255865  0.6638885608503885  1.0000
  H   H1        1.0  0.4601412980921041  0.8483308604594556  0.6662562483427266  1.0000
  H   H2        1.0  0.039862008367066395  0.65166882879295  0.1662585517018726  1.0000
  H   H3        1.0  0.5398593190253963  0.15166808552546476  0.3337425858390475  1.0000
  H   H4        1.0  0.9601391073148521  0.34833211597635483  0.8337428283034002  1.0000
  H   H5        1.0  0.8346330532182833  0.9712806184702957  0.5976171669752688  1.0000
  H   H6        1.0  0.6653701745044317  0.5287207056559993  0.09761662943648018  1.0000
  H   H7        1.0  0.1653667914427643  0.028720325369498305  0.4023816672077913  1.0000
  H   H8        1.0  0.3346309411791282  0.4712802391132058  0.9023839019610236  1.0000
  H   H9        1.0  0.47797310303609924  0.08822302718054689  0.7344950967444605  1.0000
  H   H10       1.0  0.022025278046733418  0.41177749848809964  0.2344958936034729  1.0000
  H   H11       1.0  0.5220252213144859  0.9117769163379918  0.2655037374396302  1.0000
  H   H12       1.0  0.9779745666110315  0.5882234453518934  0.7655046377951393  1.0000
  H   H13       1.0  0.5211865465552775  0.9695346931647679  0.8352870204669003  1.0000
  H   H14       1.0  0.9788127225497406  0.5304646852663168  0.33528763257967853  1.0000
  H   H15       1.0  0.4788125502517602  0.030463252498897496  0.1647118137158969  1.0000
  H   H16       1.0  0.021187122108024408  0.46953625857367615  0.6647128988189337  1.0000
  H   H17       1.0  0.6487279769839063  0.2734844643971713  0.8484222951944673  1.0000
  H   H18       1.0  0.8512716636790644  0.22651574142786057  0.34842409937439817  1.0000
  H   H19       1.0  0.3512726401335939  0.7265144815877492  0.1515765389873067  1.0000
  H   H20       1.0  0.14872818097706633  0.773485202412232  0.6515772806319903  1.0000
  H   H21       1.0  0.4676840905356556  0.18406772462902407  0.9205091109358037  1.0000
  H   H22       1.0  0.032316612696511995  0.31593484468674404  0.4205081337962612  1.0000
  H   H23       1.0  0.5323157541237507  0.8159332192108766  0.0794905718550325  1.0000
  H   H24       1.0  0.9676847522717226  0.684067099474511  0.579492397601328  1.0000
  H   H25       1.0  0.5919477518388446  0.7889862162369282  0.5643943290599722  1.0000
  H   H26       1.0  0.9080591679963774  0.7110141036042991  0.0643951757354486  1.0000
  H   H27       1.0  0.4080543855891179  0.21101373006925433  0.4356045051207786  1.0000
  H   H28       1.0  0.0919429694283025  0.2889858427020826  0.9356053556608545  1.0000
  H   H29       1.0  0.6442510075665525  0.03337603977151821  0.5690579999488108  1.0000
  H   H30       1.0  0.855752004903117  0.4666231039332587  0.0690590949169163  1.0000
  H   H31       1.0  0.3557485878081862  0.9666239046763322  0.4309416828419402  1.0000
  H   H32       1.0  0.14424886149413396  0.5333768414440029  0.9309422850882711  1.0000
  H   H33       1.0  0.795457828847276  0.15169611680707362  0.7112989934147294  1.0000
  H   H34       1.0  0.7045436124814871  0.348304058245219  0.21129858327773826  1.0000
  H   H35       1.0  0.20454151724279512  0.848302828248727  0.2887006893759363  1.0000
  H   H36       1.0  0.2954575032037141  0.6516968865238937  0.7887010995119895  1.0000
  C   C1        1.0  0.7047419932682147  0.15161084396220303  0.9860129277161249  1.0000
  C   C2        1.0  0.795258386984358  0.34838939460151147  0.48601235884896  1.0000
  C   C3        1.0  0.2952576021048827  0.848389100485747  0.013987603682402004  1.0000
  C   C4        1.0  0.2047424794145343  0.6516105507756507  0.5139881725484515  1.0000
  C   C5        1.0  0.5961815973486608  0.17599711873159413  0.8878163814498521  1.0000
  C   C6        1.0  0.9038181404435335  0.3240040955928478  0.3878164562201363  1.0000
  C   C7        1.0  0.40381799802443646  0.8240028257163557  0.1121841499486749  1.0000
  C   C8        1.0  0.0961817042125972  0.6759968482472446  0.612184923786252  1.0000
  C   C9        1.0  0.572699094757624  0.06725792074946922  0.7973064091407521  1.0000
  C   C10       1.0  0.9273009926272877  0.4327432726498727  0.2973065094877043  1.0000
  C   C11       1.0  0.42730025133408833  0.9327410243062392  0.2026924250421374  1.0000
  C   C12       1.0  0.07269885203047717  0.5672576711901272  0.7026940219109079  1.0000
  C   C13       1.0  0.7067218477145473  0.9779877317970078  0.631821265978374  1.0000
  C   C14       1.0  0.7932809986097238  0.5220126008450021  0.1318213490466675  1.0000
  C   C15       1.0  0.2932792679706537  0.022013212972097997  0.36817841681134683  1.0000
  C   C16       1.0  0.20672011707383578  0.47798834392420986  0.8681791823508364  1.0000
  C   C17       1.0  0.5946061423638297  0.839820969520602  0.6467568185866881  1.0000
  C   C18       1.0  0.9053981665796016  0.6601803668958156  0.1467584873535444  1.0000
  C   C19       1.0  0.405394724038338  0.1601789758563612  0.3532420155951783  1.0000
  C   C20       1.0  0.09460294910396526  0.3398205778733896  0.8532420440439594  1.0000
  C   C21       1.0  0.6552841954174866  0.7573296114540539  0.7363629324307227  1.0000
  C   C22       1.0  0.844718247116823  0.7426707453570743  0.23636306077451513  1.0000
  C   C23       1.0  0.3447166709830469  0.2426703339230158  0.2636367503589128  1.0000
  C   C24       1.0  0.1552828685667365  0.2573301994121309  0.7636374706229888  1.0000
  N   N1        1.0  0.8300205808895456  0.07846634847791019  0.9832395454393037  1.0000
  N   N2        1.0  0.6699782897625396  0.42153288912349046  0.4832400893133483  1.0000
  N   N3        1.0  0.16997901448519304  0.9215335959699402  0.0167601373514472  1.0000
  N   N4        1.0  0.3300210563258901  0.5784660559324166  0.5167604420850935  1.0000
  N   N5        1.0  0.8927488158092557  0.08421859010983472  0.0898948120064134  1.0000
  N   N6        1.0  0.6072490320775402  0.41578055469524605  0.5898948648995059  1.0000
  N   N7        1.0  0.10725205058963634  0.9157813552673274  0.910105719391005  1.0000
  N   N8        1.0  0.392750314012531  0.5842183903605547  0.4101048178911526  1.0000
  N   N9        1.0  0.6911865755457214  0.20051314817443713  0.0911781190203058  1.0000
  N   N10       1.0  0.8088130369802754  0.2994879966405933  0.5911777477980564  1.0000
  N   N11       1.0  0.30881301982737597  0.7994867962735129  0.9088224123782211  1.0000
  N   N12       1.0  0.19118655839282883  0.7005119478073567  0.40882278360047053  1.0000
  N   N13       1.0  0.8105742253263342  0.15650231065861675  0.1541862797715368  1.0000
  N   N14       1.0  0.6894248945469101  0.34349784933132105  0.6541861445058288  1.0000
  N   N15       1.0  0.1894253700484043  0.8434976337892339  0.8458134030192141  1.0000
  N   N16       1.0  0.3105747008278286  0.6565020951165296  0.3458135382849221  1.0000
  N   N17       1.0  0.7351501268573915  0.05785920418142609  0.7377289065941923  1.0000
  N   N18       1.0  0.7648512123832346  0.4421409769814205  0.237730145655128  1.0000
  N   N19       1.0  0.26485073954641797  0.9421407411954451  0.26226907897989093  1.0000
  N   N20       1.0  0.23514863227453728  0.5578599668585723  0.7622703857434844  1.0000
  N   N21       1.0  0.770766138756713  0.8027891630878159  0.8178368292286535  1.0000
  N   N22       1.0  0.7292347180603471  0.6972112116301618  0.31783713183033774  1.0000
  N   N23       1.0  0.2292347276438207  0.1972107822892468  0.18216285356098177  1.0000
  N   N24       1.0  0.2707651265974249  0.3027897322098312  0.6821633995682745  1.0000
  N   N25       1.0  0.5963351755656775  0.625874441167966  0.7526248145202175  1.0000
  N   N26       1.0  0.9036659331333609  0.8741259184734458  0.2526240716855028  1.0000
  N   N27       1.0  0.403666712574335  0.3741245057463658  0.2473757168759931  1.0000
  N   N28       1.0  0.09633518255019878  0.1258750262957591  0.7473764597120011  1.0000
  N   N29       1.0  0.6755897836625736  0.591298782334647  0.847119756192825  1.0000
  N   N30       1.0  0.8244084180015888  0.9087015972946587  0.3471183246771973  1.0000
  N   N31       1.0  0.32441108273467734  0.40870116304261483  0.1528816238123696  1.0000
  N   N32       1.0  0.17558990634572075  0.09129834622407883  0.6528822067224384  1.0000
  N   N33       1.0  0.78059390520761  0.6972668112473102  0.885892586052954  1.0000
  N   N34       1.0  0.7194054177229177  0.8027335782751595  0.3858912733490811  1.0000
  N   N35       1.0  0.21940848150174463  0.3027341344511143  0.11410794534343438  1.0000
  N   N36       1.0  0.280594177651821  0.1972663661726912  0.6141084094416699  1.0000
