data_image0
_chemical_formula_structural       NiH20C18N4O6
_chemical_formula_sum              "Ni1 H20 C18 N4 O6"
_cell_length_a       7.429631797060073
_cell_length_b       8.559162714063067
_cell_length_c       8.793795039403182
_cell_angle_alpha    97.07515582082623
_cell_angle_beta     115.44313287202552
_cell_angle_gamma    108.88827556809282

_space_group_name_H-M_alt    "P 1"
_space_group_IT_number       1

loop_
  _space_group_symop_operation_xyz
  'x, y, z'

loop_
  _atom_site_type_symbol
  _atom_site_label
  _atom_site_symmetry_multiplicity
  _atom_site_fract_x
  _atom_site_fract_y
  _atom_site_fract_z
  _atom_site_occupancy
  Ni  Ni1       1.0  0.49999864352422907  0.5000008535584329  0.5000011850833629  1.0000
  H   H1        1.0  0.19972581583382976  0.37282341490142556  0.847499161003469  1.0000
  H   H2        1.0  0.8002720241649397  0.6271731555029804  0.15250491082966272  1.0000
  H   H3        1.0  0.33283805189695664  0.26672779644884054  0.12154339557186222  1.0000
  H   H4        1.0  0.6671602597367395  0.733272606335646  0.8784625365320478  1.0000
  H   H5        1.0  0.41853179165293863  0.835857931375749  0.4416793372162429  1.0000
  H   H6        1.0  0.5814624886176173  0.16414120631040416  0.5583171036494148  1.0000
  H   H7        1.0  0.3299673162385305  0.042128978354277515  0.2736842166724216  1.0000
  H   H8        1.0  0.6700323105803607  0.9578690445017487  0.7263126946512626  1.0000
  H   H9        1.0  0.1886296790652722  0.9623549376812831  0.9503918419865937  1.0000
  H   H10       1.0  0.8113704861536276  0.0376444145518349  0.04960316768261921  1.0000
  H   H11       1.0  0.144996045096178  0.6817833601267151  0.7863920204731297  1.0000
  H   H12       1.0  0.8550029384676702  0.31821336602884287  0.21360448612580274  1.0000
  H   H13       1.0  0.03144669017186898  0.9681855950568163  0.338460725591801  1.0000
  H   H14       1.0  0.9685529747369869  0.03181489812560301  0.6615422540363622  1.0000
  H   H15       1.0  0.8262535551281474  0.029422442013846313  0.34498144909695583  1.0000
  H   H16       1.0  0.17374234055517962  0.9705767043787079  0.65501780524103  1.0000
  H   H17       1.0  0.8620070699225548  0.3297521427745522  0.49511890553947757  1.0000
  H   H18       1.0  0.1379918993037349  0.6702470700457112  0.5048825161743192  1.0000
  H   H19       1.0  0.7670461201215062  0.4497099816270805  0.3984779669834919  1.0000
  H   H20       1.0  0.2329498804168607  0.5502891320888564  0.6015235937337235  1.0000
  C   C1        1.0  0.31627816711912254  0.38779574339486794  0.11997930882323254  1.0000
  C   C2        1.0  0.6837185291018102  0.6122046506832246  0.8800238098083494  1.0000
  C   C3        1.0  0.36017943512884193  0.8044136482939735  0.3005371326366485  1.0000
  C   C4        1.0  0.6398251949981528  0.19558833109117296  0.6994631602371156  1.0000
  C   C5        1.0  0.30796222186673106  0.9166146073963616  0.2049637723127445  1.0000
  C   C6        1.0  0.6920405163723372  0.08338993163862088  0.7950328562554814  1.0000
  C   C7        1.0  0.22922951329432106  0.87193055217233  0.021404562206662047  1.0000
  C   C8        1.0  0.7707769182031112  0.128066413574885  0.9785921734785316  1.0000
  C   C9        1.0  0.20020915224727534  0.7144195606406569  0.9270707842164183  1.0000
  C   C10       1.0  0.7997990898226846  0.285583814549284  0.07292977437867874  1.0000
  C   C11       1.0  0.2538309105868066  0.6025493201220299  0.023199818304554764  1.0000
  C   C12       1.0  0.7461826112664196  0.39745544324078  0.9768049726738253  1.0000
  C   C13       1.0  0.33245672175020496  0.6454947296987966  0.2074503773857329  1.0000
  C   C14       1.0  0.6675516919398774  0.3545061098115169  0.7925487256633443  1.0000
  C   C15       1.0  0.1490971995947561  0.2297306181329688  0.49534805057337633  1.0000
  C   C16       1.0  0.8508970663382412  0.7702710062178822  0.5046533054071459  1.0000
  C   C17       1.0  0.9937145947682494  0.03883905514561552  0.42482180194300406  1.0000
  C   C18       1.0  0.006284097982892109  0.9611627260308779  0.575178768937583  1.0000
  N   N1        1.0  0.2461064786231758  0.4392113778644172  0.9734597259084263  1.0000
  N   N2        1.0  0.7538964982138482  0.5607841430630885  0.026540203624279057  1.0000
  N   N3        1.0  0.3696249851461033  0.5073649316640356  0.26309607739059254  1.0000
  N   N4        1.0  0.6303767811480012  0.49263691594016734  0.7369066608658128  1.0000
  O   O1        1.0  0.2716057685689464  0.2742703557715771  0.4260962541616066  1.0000
  O   O2        1.0  0.7283913087694245  0.7257314166985296  0.5739015032466595  1.0000
  O   O3        1.0  0.14632173488318054  0.33170476009517813  0.6111924889559786  1.0000
  O   O4        1.0  0.853671730512218  0.6682956165701343  0.3888050027309402  1.0000
  O   O5        1.0  0.726725900112747  0.3288303333602443  0.4026241251144142  1.0000
  O   O6        1.0  0.2732726353558306  0.6711714968311712  0.5973729861973351  1.0000
