data_image0
_chemical_formula_structural       Cu4H44C72N8O18
_chemical_formula_sum              "Cu4 H44 C72 N8 O18"
_cell_length_a       11.398992940010947
_cell_length_b       12.777425524140225
_cell_length_c       14.762448900067664
_cell_angle_alpha    80.08753556070079
_cell_angle_beta     67.29279850093158
_cell_angle_gamma    63.51624003717021

_space_group_name_H-M_alt    "P 1"
_space_group_IT_number       1

loop_
  _space_group_symop_operation_xyz
  'x, y, z'

loop_
  _atom_site_type_symbol
  _atom_site_label
  _atom_site_symmetry_multiplicity
  _atom_site_fract_x
  _atom_site_fract_y
  _atom_site_fract_z
  _atom_site_occupancy
  Cu  Cu1       1.0  0.6576921585655171  0.6592918663218583  0.013313532305204594  1.0000
  Cu  Cu2       1.0  0.33018724356852397  0.34076737831048126  0.9865779822694878  1.0000
  Cu  Cu3       1.0  0.4209775150919483  0.15921829213949223  0.4866755395539713  1.0000
  Cu  Cu4       1.0  0.06685837997036237  0.8407371789574258  0.5134110799915703  1.0000
  H   H1        1.0  0.4331881160876423  0.6002865356025922  0.006953761524606402  1.0000
  H   H2        1.0  0.04029371877351192  0.3996881224101403  0.9930171146846335  1.0000
  H   H3        1.0  0.19007186973534823  0.10032140139990992  0.4930900948319207  1.0000
  H   H4        1.0  0.7834986611660074  0.8997439231504885  0.5068771505864619  1.0000
  H   H5        1.0  0.29957530781466335  0.6390765505097208  0.9009847341918374  1.0000
  H   H6        1.0  0.8395132599911931  0.36094693120922017  0.0991064371109617  1.0000
  H   H7        1.0  0.9504929730032927  0.1391496648894375  0.5990825204676115  1.0000
  H   H8        1.0  0.6887817079880423  0.8608132125427159  0.4009105860840521  1.0000
  H   H9        1.0  0.523608304496271  0.843718198815907  0.7153057995290483  1.0000
  H   H10       1.0  0.08254293694801615  0.15651243418160732  0.28480162215891625  1.0000
  H   H11       1.0  0.9889791801265492  0.3437339976253427  0.7847513975646478  1.0000
  H   H12       1.0  0.1174601910424116  0.6562086912003338  0.21530922305237976  1.0000
  H   H13       1.0  0.6554434838587185  0.7885783490061868  0.8277890885231545  1.0000
  H   H14       1.0  0.27166042499731446  0.21164576275943153  0.17221203595332213  1.0000
  H   H15       1.0  0.23330807646554047  0.28848691711495894  0.6722712468545639  1.0000
  H   H16       1.0  0.1940586938065465  0.7114900318621338  0.32778296925694417  1.0000
  H   H17       1.0  0.02178003590432122  0.7766360213147433  0.7220724265392775  1.0000
  H   H18       1.0  0.5203601353664522  0.22342699216586234  0.2781127465283291  1.0000
  H   H19       1.0  0.4938788679991005  0.2765949643563061  0.7779205983413321  1.0000
  H   H20       1.0  0.548495135152784  0.7234214315247627  0.2219543096383916  1.0000
  H   H21       1.0  0.14823985583623078  0.7300468104299966  0.8366971795379001  1.0000
  H   H22       1.0  0.7148015325697942  0.27003066600140363  0.16342705535097937  1.0000
  H   H23       1.0  0.7349612035399811  0.23009382985770094  0.6632923717078755  1.0000
  H   H24       1.0  0.6284170809878443  0.7697997565492404  0.3366500946174186  1.0000
  H   H25       1.0  0.45440339893880116  0.8339114545847937  0.6065943010964645  1.0000
  H   H26       1.0  0.8948559158835465  0.1660791644921176  0.39346371574328737  1.0000
  H   H27       1.0  0.8108973813204229  0.3339904275596908  0.8934575245708559  1.0000
  H   H28       1.0  0.03845271766218156  0.6658395831422794  0.10660167603808901  1.0000
  H   H29       1.0  0.3214301298497587  0.8669733414383104  0.5012505281667857  1.0000
  H   H30       1.0  0.6896726140105398  0.1330113258741719  0.498854728104  1.0000
  H   H31       1.0  0.5726064137646036  0.3669887028198033  0.998774564526592  1.0000
  H   H32       1.0  0.9385546169207046  0.6328820114178767  0.001195801918996357  1.0000
  H   H33       1.0  0.4822996579771299  0.5669546283134396  0.3327934504414643  1.0000
  H   H34       1.0  0.38199199183149807  0.4329821350996426  0.6669603908090026  1.0000
  H   H35       1.0  0.5649668002780858  0.0669739366537456  0.1669980002552195  1.0000
  H   H36       1.0  0.7990420658970975  0.9330045118977424  0.8330457012207688  1.0000
  H   H37       1.0  0.21358122471979613  0.35897617894413264  0.3136944220215981  1.0000
  H   H38       1.0  0.8861318901786887  0.6410369012402272  0.6862201693948508  1.0000
  H   H39       1.0  0.27697646577607327  0.8589792688329111  0.18641166280880844  1.0000
  H   H40       1.0  0.3225925060454739  0.14103058592321824  0.8135995258473089  1.0000
  H   H41       1.0  0.20851150023246126  0.3937812052784365  0.47519001113892056  1.0000
  H   H42       1.0  0.07734106967784954  0.6062225105727849  0.5246827035469722  1.0000
  H   H43       1.0  0.4333753329170307  0.8937157497445655  0.024855121181993126  1.0000
  H   H44       1.0  0.35210885614070964  0.1061827399980757  0.9751900269379021  1.0000
  C   C1        1.0  0.45231741052554514  0.652709339192981  0.941437410734757  1.0000
  C   C2        1.0  0.046346897940679824  0.34733251633703327  0.058559606931304096  1.0000
  C   C3        1.0  0.14371274572317796  0.1527190947631922  0.5586254125028561  1.0000
  C   C4        1.0  0.8550803087858652  0.8472901375688198  0.44137803968965983  1.0000
  C   C5        1.0  0.37487625045682166  0.6771755318968362  0.8813239134326951  1.0000
  C   C6        1.0  0.9332611219582818  0.3228972677799504  0.11874138919516512  1.0000
  C   C7        1.0  0.006157272062686975  0.17721601805800447  0.6187557933984209  1.0000
  C   C8        1.0  0.8021700717865483  0.822739899211129  0.3812747831674131  1.0000
  C   C9        1.0  0.39691698422508626  0.7473976422106858  0.7977461507249118  1.0000
  C   C10       1.0  0.941948632349522  0.2526884964922331  0.20233112323516889  1.0000
  C   C11       1.0  0.9446331683995692  0.24746397904856107  0.7023157588948764  1.0000
  C   C12       1.0  0.894438885420065  0.7524662475855308  0.29773121875332714  1.0000
  C   C13       1.0  0.5001584982437208  0.788221357418486  0.778399213293838  1.0000
  C   C14       1.0  0.06667318740010589  0.2119630316896988  0.22168592826115946  1.0000
  C   C15       1.0  0.02859750679697004  0.2882227147854764  0.7216711080512682  1.0000
  C   C16       1.0  0.03848675817319244  0.7117284990057443  0.2783909508705449  1.0000
  C   C17       1.0  0.574329904804763  0.7588819313635468  0.8414134471155991  1.0000
  C   C18       1.0  0.17447805057390298  0.24129139455725127  0.1586055576957365  1.0000
  C   C19       1.0  0.16577783468890317  0.2588341895523741  0.6586580045444066  1.0000
  C   C20       1.0  0.0832615894838327  0.7411374411315563  0.3414122816747209  1.0000
  C   C21       1.0  0.11854966487095439  0.7872367897436803  0.6998343230527483  1.0000
  C   C22       1.0  0.6055659429381349  0.2127495796270367  0.3002944206774104  1.0000
  C   C23       1.0  0.568371254688422  0.2872744739044535  0.800151572251764  1.0000
  C   C24       1.0  0.6559156933082234  0.7126827650373927  0.19975332281234165  1.0000
  C   C25       1.0  0.1901584542204802  0.7627345004350873  0.7638305799227754  1.0000
  C   C26       1.0  0.7166500208567967  0.23724872228078905  0.23625677986699864  1.0000
  C   C27       1.0  0.7039570199536551  0.26283763058568616  0.7361454319500923  1.0000
  C   C28       1.0  0.7030537346903785  0.7370771175769094  0.26379673939300124  1.0000
  C   C29       1.0  0.31548876539270726  0.7765275476550999  0.7326276808055924  1.0000
  C   C30       1.0  0.8245883119289273  0.22347850803952704  0.2674296755568051  1.0000
  C   C31       1.0  0.7980441256901898  0.27666134606191417  0.7673824083137574  1.0000
  C   C32       1.0  0.842147871800542  0.7232893491197672  0.23263261027442894  1.0000
  C   C33       1.0  0.36041801665609774  0.8176982489356276  0.6366727193531787  1.0000
  C   C34       1.0  0.814706619090572  0.182302186009089  0.36340531270999327  1.0000
  C   C35       1.0  0.7470040276545473  0.31777890828535504  0.863363390234703  1.0000
  C   C36       1.0  0.9282232643403957  0.6821512996214594  0.1366521235404435  1.0000
  C   C37       1.0  0.28432833467073226  0.8383852946353373  0.5763087832477681  1.0000
  C   C38       1.0  0.6989687721658059  0.1616072077201949  0.42380268880935296  1.0000
  C   C39       1.0  0.6105544873700662  0.33844946541096027  0.9236975667941821  1.0000
  C   C40       1.0  0.8728502451167659  0.6614824256287406  0.07625563196874909  1.0000
  C   C41       1.0  0.4234645525753962  0.5219541088729115  0.32739790426128945  1.0000
  C   C42       1.0  0.2727515206468354  0.47800947439277763  0.6724179370701222  1.0000
  C   C43       1.0  0.5006678319567256  0.02200490632210971  0.17249176806176084  1.0000
  C   C44       1.0  0.6952750735172516  0.9779697563255425  0.8275590493202715  1.0000
  C   C45       1.0  0.42649310817024855  0.5018956823436795  0.2362626827101694  1.0000
  C   C46       1.0  0.16463704889095954  0.4980594112818295  0.7635675020745154  1.0000
  C   C47       1.0  0.4126855454145967  0.0019239441258278999  0.26365292085932884  1.0000
  C   C48       1.0  0.6783656486589816  0.9980842124021269  0.7363850732382319  1.0000
  C   C49       1.0  0.34847573832005446  0.44463112769602026  0.23097450885695278  1.0000
  C   C50       1.0  0.02404716814897523  0.5554113754382329  0.7688849088165527  1.0000
  C   C51       1.0  0.3293461534633196  0.9446195343597665  0.26902876040815477  1.0000
  C   C52       1.0  0.5431434228063239  0.055347494078297595  0.7309964211027237  1.0000
  C   C53       1.0  0.27122737632950583  0.4059807283990581  0.3174324050782857  1.0000
  C   C54       1.0  0.9945326577958937  0.5940220166448852  0.6824488521231232  1.0000
  C   C55       1.0  0.3384376550353707  0.9059392186495998  0.18262639288485624  1.0000
  C   C56       1.0  0.42719017095541983  0.0939781085683791  0.8174096994016794  1.0000
  C   C57       1.0  0.26899472570544  0.4245177202347961  0.40850330710453164  1.0000
  C   C58       1.0  0.10190403437680828  0.5754529765865826  0.591355450093566  1.0000
  C   C59       1.0  0.4271919776235221  0.924490004365616  0.09151877263902015  1.0000
  C   C60       1.0  0.4433615548305738  0.0754034497054121  0.9085294769466046  1.0000
  C   C61       1.0  0.344719862972397  0.48329571740167415  0.41305742126825606  1.0000
  C   C62       1.0  0.24097388442423537  0.5167875669954115  0.5867843857644958  1.0000
  C   C63       1.0  0.507534740753776  0.9832260221858679  0.08690580763457235  1.0000
  C   C64       1.0  0.5778112130846152  0.0166313697453901  0.9131601455788143  1.0000
  C   C65       1.0  0.5237219635936156  0.5314750888986383  0.1434700289172214  1.0000
  C   C66       1.0  0.1987060112689179  0.4684210972440043  0.85635281823906  1.0000
  C   C67       1.0  0.417214847992902  0.031432722602957604  0.3564415465039588  1.0000
  C   C68       1.0  0.8052423092030451  0.968539269778276  0.6436369938927344  1.0000
  C   C69       1.0  0.3379789652084567  0.4338142473786634  0.13495017118112426  1.0000
  C   C70       1.0  0.9067853368196876  0.5663165662847192  0.8649899848555976  1.0000
  C   C71       1.0  0.22291763073590684  0.9338422109281197  0.3651048667365587  1.0000
  C   C72       1.0  0.5219668281039204  0.06621893804801722  0.6349135442845011  1.0000
  N   N1        1.0  0.5507343145000262  0.6926058779489425  0.9225093946957373  1.0000
  N   N2        1.0  0.16572993446978052  0.3074569438827126  0.07745932990242471  1.0000
  N   N3        1.0  0.22322291688542603  0.19260867843601664  0.5775338986721863  1.0000
  N   N4        1.0  0.9933685383883526  0.8074119033301203  0.4224957867049355  1.0000
  N   N5        1.0  0.1652803178567551  0.8231104848958354  0.6065870358485554  1.0000
  N   N6        1.0  0.5949038882410206  0.17690880304639484  0.3935479823025433  1.0000
  N   N7        1.0  0.5218219944721336  0.3231439897017622  0.8934018546725542  1.0000
  N   N8        1.0  0.7384960604194218  0.6768452906394344  0.1064987104637893  1.0000
  O   O1        1.0  0.5027323979627096  0.6401894326628224  0.13032463569707897  1.0000
  O   O2        1.0  0.2732275731812093  0.3597023178889104  0.8695001200667818  1.0000
  O   O3        1.0  0.38306980042364086  0.140147093780044  0.3696053574993741  1.0000
  O   O4        1.0  0.892815820086028  0.8597828563708421  0.6304716131944165  1.0000
  O   O5        1.0  0.6191911269071897  0.45060806590544894  0.08547233028281208  1.0000
  O   O6        1.0  0.1553839260576522  0.5492652335832844  0.9143679192261446  1.0000
  O   O7        1.0  0.454694342964167  0.9505565587695346  0.4144353755543337  1.0000
  O   O8        1.0  0.8200233488626264  0.049368945018947806  0.585660914201526  1.0000
  O   O9        1.0  0.2867751104812014  0.5248667567417016  0.08957052167080094  1.0000
  O   O10       1.0  0.9013750797854243  0.4753067746020676  0.9105340756860942  1.0000
  O   O11       1.0  0.12647217793367818  0.024876981695435098  0.4105552096251799  1.0000
  O   O12       1.0  0.5620765335841398  0.975210280701887  0.589379607313063  1.0000
  O   O13       1.0  0.38137627514446126  0.32889663544615644  0.10523961785039397  1.0000
  O   O14       1.0  0.8155944350976797  0.6712634628688364  0.8946169967348682  1.0000
  O   O15       1.0  0.23668668155504244  0.8289089263441342  0.39480073673651356  1.0000
  O   O16       1.0  0.46032729440936027  0.1711613968370145  0.605316838994071  1.0000
  O   O17       1.0  0.35347067445606933  0.5002007402280243  0.4999264097371707  1.0000
  O   O18       1.0  0.6033953451373365  0.999823959115936  3.763457041131798e-05  1.0000
