data_image0
_chemical_formula_structural       H48Pb2C48N12O8
_chemical_formula_sum              "H48 Pb2 C48 N12 O8"
_cell_length_a       7.6539966815602565
_cell_length_b       10.679359500872103
_cell_length_c       15.248109693301128
_cell_angle_alpha    110.50142129049485
_cell_angle_beta     93.90093399121594
_cell_angle_gamma    90.00515370823197

_space_group_name_H-M_alt    "P 1"
_space_group_IT_number       1

loop_
  _space_group_symop_operation_xyz
  'x, y, z'

loop_
  _atom_site_type_symbol
  _atom_site_label
  _atom_site_symmetry_multiplicity
  _atom_site_fract_x
  _atom_site_fract_y
  _atom_site_fract_z
  _atom_site_occupancy
  H   H1        1.0  0.4739275728732224  0.674302039090776  0.006314653190614225  1.0000
  H   H2        1.0  0.026264487397582997  0.6674472881363798  0.9935049662304107  1.0000
  H   H3        1.0  0.5261657100771727  0.32566840624552645  0.9936695008056231  1.0000
  H   H4        1.0  0.9738868082094854  0.332573187702998  0.006482380036963797  1.0000
  H   H5        1.0  0.3384859846077005  0.5191961144885795  0.07533744554788062  1.0000
  H   H6        1.0  0.16163408736699128  0.44326385995592693  0.9243980069043758  1.0000
  H   H7        1.0  0.6615168044157472  0.4807703483420909  0.9246446000364869  1.0000
  H   H8        1.0  0.8383741984551207  0.5566716664312139  0.07556018875722972  1.0000
  H   H9        1.0  0.3680822809920556  0.5816801122903784  0.2513769030660313  1.0000
  H   H10       1.0  0.13198489884455  0.3298131204180805  0.7483536386085134  1.0000
  H   H11       1.0  0.6319183504659307  0.41826139263032763  0.7485884103192433  1.0000
  H   H12       1.0  0.8679633056765611  0.670165501417415  0.2515941311632233  1.0000
  H   H13       1.0  0.5314327210553884  0.7946478228135874  0.3491563421510619  1.0000
  H   H14       1.0  0.9686450659600394  0.4450852479633555  0.6506431880927934  1.0000
  H   H15       1.0  0.4686556275652549  0.20525457369013375  0.6508226379681117  1.0000
  H   H16       1.0  0.0314425774748344  0.5550273394027769  0.3493424395759916  1.0000
  H   H17       1.0  0.7194126899664327  0.0102533675613046  0.23090303835456175  1.0000
  H   H18       1.0  0.7808830768299586  0.7789748183752823  0.7689993834543998  1.0000
  H   H19       1.0  0.2805591428896435  0.9897270356328323  0.7690984445238414  1.0000
  H   H20       1.0  0.2190615583887094  0.22101452393397378  0.23102042968775996  1.0000
  H   H21       1.0  0.7044546123649623  0.9944020697780117  0.5724880167121286  1.0000
  H   H22       1.0  0.7955997411997942  0.4217035341446761  0.42733140548279636  1.0000
  H   H23       1.0  0.29576490705444775  0.0054682274817495  0.4275025998059973  1.0000
  H   H24       1.0  0.2043922518243733  0.5783690045794287  0.5726594237204452  1.0000
  H   H25       1.0  0.8998346960072469  0.1985354932378556  0.6262555441450174  1.0000
  H   H26       1.0  0.6004307940490321  0.5723316274804944  0.3736615207261522  1.0000
  H   H27       1.0  0.10030368580296309  0.801374870858943  0.3737317045328651  1.0000
  H   H28       1.0  0.3994939312056331  0.4278038292379662  0.6263681296326665  1.0000
  H   H29       1.0  0.9984217742239992  0.2880627300005402  0.5040615183445425  1.0000
  H   H30       1.0  0.5017092595231815  0.7838326318562849  0.4959675816170446  1.0000
  H   H31       1.0  0.0015720818381694938  0.7119106534533584  0.4959422620676149  1.0000
  H   H32       1.0  0.49816349631937135  0.2161995760019977  0.5040990579902882  1.0000
  H   H33       1.0  0.8921585485229073  0.17034406811644942  0.335587117565467  1.0000
  H   H34       1.0  0.6079229852175204  0.8344058321278498  0.6644292738128429  1.0000
  H   H35       1.0  0.10768364053299709  0.8297133692976573  0.6644302768808714  1.0000
  H   H36       1.0  0.3919113020815885  0.1655734005480269  0.33561903001247356  1.0000
  H   H37       1.0  0.6665645247232561  0.32614910784815987  0.2793974582890825  1.0000
  H   H38       1.0  0.8338676199367612  0.0469660008886663  0.720561404005778  1.0000
  H   H39       1.0  0.3335098464364847  0.6738813450610408  0.7206008731441428  1.0000
  H   H40       1.0  0.1661900810718109  0.9530363894370524  0.27944582107674176  1.0000
  H   H41       1.0  0.4714363175445228  0.31776189732450183  0.20535222120939517  1.0000
  H   H42       1.0  0.0289246981622284  0.1126299205320223  0.7946891751962184  1.0000
  H   H43       1.0  0.5285629227196651  0.6822543563305105  0.7946944686173295  1.0000
  H   H44       1.0  0.9711132836381254  0.8873703189224145  0.20535553823057742  1.0000
  H   H45       1.0  0.6667545403375499  0.3889396145402131  0.1852368071296695  1.0000
  H   H46       1.0  0.833566707249595  0.20381144507194193  0.8148380581927057  1.0000
  H   H47       1.0  0.33321670268225023  0.6110618929652105  0.8147442919485071  1.0000
  H   H48       1.0  0.1664717938162141  0.7962039670683511  0.18516779269122455  1.0000
  Pb  Pb1       1.0  0.750036187416633  0.9097394622770807  0.9999227173654005  1.0000
  Pb  Pb2       1.0  0.24962136806784233  0.09031821553502081  4.186442382800417e-05  1.0000
  C   C1        1.0  0.4868567634652193  0.6948687947511304  0.08195218911182421  1.0000
  C   C2        1.0  0.013380851889429795  0.6124298759653897  0.9178626979578652  1.0000
  C   C3        1.0  0.5131620108682426  0.30510564265178164  0.918037619197257  1.0000
  C   C4        1.0  0.986703144941032  0.3875755679938706  0.08213109607178377  1.0000
  C   C5        1.0  0.41033356016333755  0.6092145234309144  0.12022363944263505  1.0000
  C   C6        1.0  0.0898699975376616  0.48850435271817366  0.8795436584362476  1.0000
  C   C7        1.0  0.589697904121479  0.39074796294634245  0.8797505337881402  1.0000
  C   C8        1.0  0.9101302433908315  0.511464166565915  0.12042503583952417  1.0000
  C   C9        1.0  0.42766425011166825  0.6443806927141013  0.2179003840875851  1.0000
  C   C10       1.0  0.07249360284574638  0.42601891726909713  0.7818637807381419  1.0000
  C   C11       1.0  0.5723449512096579  0.3555817814067908  0.7820776161631499  1.0000
  C   C12       1.0  0.9275220979388905  0.5739806120437835  0.21810982306540444  1.0000
  C   C13       1.0  0.5169655715551897  0.7615952180547297  0.2730596028557315  1.0000
  C   C14       1.0  0.9832121223249859  0.4881161939756709  0.7267338706120583  1.0000
  C   C15       1.0  0.4830524875657787  0.23835820021913187  0.7269295794223538  1.0000
  C   C16       1.0  0.016879021859082896  0.5119453375015937  0.2732523807958812  1.0000
  C   C17       1.0  0.5916061280983769  0.841822365025358  0.2280519940938532  1.0000
  C   C18       1.0  0.9086018442253376  0.6133555503807385  0.7717972286028142  1.0000
  C   C19       1.0  0.40835295000396604  0.15816805009806253  0.7719495587449642  1.0000
  C   C20       1.0  0.09145997442724509  0.38669088016763453  0.22821117908379307  1.0000
  C   C21       1.0  0.7494184779442179  0.0371171429367223  0.5223245495435336  1.0000
  C   C22       1.0  0.7506691588832837  0.5145953251832225  0.4775363542226002  1.0000
  C   C23       1.0  0.2507282524794547  0.9627691834538793  0.4776655720551303  1.0000
  C   C24       1.0  0.24931235609345487  0.48547718204899587  0.5224626348545343  1.0000
  C   C25       1.0  0.8582181861675978  0.15052094444084224  0.5522330039086254  1.0000
  C   C26       1.0  0.6419920101254277  0.5981712451211649  0.4476791087389599  1.0000
  C   C27       1.0  0.1418891392618846  0.8494003943918926  0.44776442036512526  1.0000
  C   C28       1.0  0.35795934664636764  0.4019001751886861  0.5523421909298918  1.0000
  C   C29       1.0  0.9118781537204795  0.2000531110713908  0.4842709668231036  1.0000
  C   C30       1.0  0.588265506444678  0.7155866485247415  0.5157132653358332  1.0000
  C   C31       1.0  0.08812701208264427  0.7999062713152725  0.5157290855347014  1.0000
  C   C32       1.0  0.4116292766636746  0.2844386164540467  0.4843366721131305  1.0000
  C   C33       1.0  0.8536724341263168  0.1359127051250155  0.39108633238116397  1.0000
  C   C34       1.0  0.6464112493715318  0.7445226392261333  0.6088915816936904  1.0000
  C   C35       1.0  0.1462608940112062  0.8640906886085206  0.6089247607411963  1.0000
  C   C36       1.0  0.3534630734244502  0.25547860944637085  0.3911569704860085  1.0000
  C   C37       1.0  0.7416304539164571  0.021759127011982602  0.367975239424183  1.0000
  C   C38       1.0  0.7584764880749759  0.653436027899332  0.6319253065312224  1.0000
  C   C39       1.0  0.2583706471170402  0.9781962537256066  0.6320243413412997  1.0000
  C   C40       1.0  0.24148767218942166  0.34658833403889844  0.36809792224563154  1.0000
  C   C41       1.0  0.6652006269132117  0.1764283630435344  0.1408069160822762  1.0000
  C   C42       1.0  0.8350896777249233  0.0355453838663351  0.8590386267341896  1.0000
  C   C43       1.0  0.3347530614633243  0.8235960840191154  0.8591956454493753  1.0000
  C   C44       1.0  0.1648861722818253  0.9644760886221774  0.14095608737372337  1.0000
  C   C45       1.0  0.6142360221951364  0.3101600417878744  0.2076578252832704  1.0000
  C   C46       1.0  0.886122983609809  0.10263704292985658  0.7923307254388305  1.0000
  C   C47       1.0  0.38576735898023873  0.6898623672926122  0.7923518331480253  1.0000
  C   C48       1.0  0.11390752326110491  0.8973743527702427  0.20767845086250963  1.0000
  N   N1        1.0  0.5774105866800169  0.8070504229587456  0.1332771528018739  1.0000
  N   N2        1.0  0.9228310801952375  0.6733235816096653  0.8665703718018064  1.0000
  N   N3        1.0  0.42255266074499087  0.19294704160277834  0.8667138233117057  1.0000
  N   N4        1.0  0.0772656537213763  0.3267098412323223  0.1334353597950226  1.0000
  N   N5        1.0  0.6844767280865014  0.9599242187766991  0.2740737821798689  1.0000
  N   N6        1.0  0.8157253383341895  0.6854565085058084  0.7258047688289294  1.0000
  N   N7        1.0  0.3154888977980548  0.040066197145257804  0.7259273387655794  1.0000
  N   N8        1.0  0.18427770161051885  0.3145558790972061  0.2742076489140999  1.0000
  N   N9        1.0  0.691014560984577  0.9729177152119629  0.4324447302505446  1.0000
  N   N10       1.0  0.8090546756679089  0.5401411432348838  0.5674057308688276  1.0000
  N   N11       1.0  0.30911206698085186  0.026993612490031203  0.5675521921694083  1.0000
  N   N12       1.0  0.19096974834778283  0.4599223647800412  0.4325892221865145  1.0000
  O   O1        1.0  0.5881114857973203  0.1327518879590741  0.0580126817163844  1.0000
  O   O2        1.0  0.9119824339349593  0.07464388147025151  0.9418986880663665  1.0000
  O   O3        1.0  0.4117878129039881  0.8672905433486308  0.9420003338708867  1.0000
  O   O4        1.0  0.0879604712744069  0.9253715524060482  0.05810521342220915  1.0000
  O   O5        1.0  0.784857344480173  0.11090141083220574  0.1662423405805029  1.0000
  O   O6        1.0  0.7155401070914423  0.9445010488710255  0.8334867015688516  1.0000
  O   O7        1.0  0.2151063821796484  0.8891101124217825  0.8337376967492388  1.0000
  O   O8        1.0  0.2844050648560951  0.055542478166501  0.16650126346192454  1.0000
