data_image0
_chemical_formula_structural       Zn4H24C12N16O16
_chemical_formula_sum              "Zn4 H24 C12 N16 O16"
_cell_length_a       8.180996587858035
_cell_length_b       9.444099292348545
_cell_length_c       9.576823084327367
_cell_angle_alpha    89.55397413995259
_cell_angle_beta     64.68574678987973
_cell_angle_gamma    88.95882464160078

_space_group_name_H-M_alt    "P 1"
_space_group_IT_number       1

loop_
  _space_group_symop_operation_xyz
  'x, y, z'

loop_
  _atom_site_type_symbol
  _atom_site_label
  _atom_site_symmetry_multiplicity
  _atom_site_fract_x
  _atom_site_fract_y
  _atom_site_fract_z
  _atom_site_occupancy
  Zn  Zn1       1.0  0.9065193707255332  0.3169251854353874  0.7656364585511924  1.0000
  Zn  Zn2       1.0  0.6721461720047726  0.816952851358927  0.2343178332577551  1.0000
  Zn  Zn3       1.0  0.18315927459238412  0.4461458278561921  0.2050995436596779  1.0000
  Zn  Zn4       1.0  0.3885801476095665  0.9462822691132261  0.7948205731270265  1.0000
  H   H1        1.0  0.6161368603906606  0.3827117180276005  0.6911847791911614  1.0000
  H   H2        1.0  0.30744300727014445  0.8826484112945039  0.3087290258639186  1.0000
  H   H3        1.0  0.5309480689847277  0.29041303850571143  0.8480601503013647  1.0000
  H   H4        1.0  0.37901627171785884  0.7903243074022583  0.15184448312449209  1.0000
  H   H5        1.0  0.47255045607668206  0.5330650191906303  0.26518357408890136  1.0000
  H   H6        1.0  0.7379802291892262  0.033017924330138705  0.7349696634097426  1.0000
  H   H7        1.0  0.5280162730582487  0.3899093132260205  0.16514745688451876  1.0000
  H   H8        1.0  0.693373512672977  0.889852450333528  0.8350191421125005  1.0000
  H   H9        1.0  0.8139660460650545  0.4420329716508747  0.32843285503538056  1.0000
  H   H10       1.0  0.14298941514292826  0.9421015347554377  0.6713849623386565  1.0000
  H   H11       1.0  0.8780822615383668  0.46513193660847213  0.14948873234556012  1.0000
  H   H12       1.0  0.027896389055754756  0.9653279952277033  0.8503185191605311  1.0000
  H   H13       1.0  0.9621583948469307  0.7634008389718971  0.5880987266735789  1.0000
  H   H14       1.0  0.5501605124311766  0.26351147549296183  0.4116649392544576  1.0000
  H   H15       1.0  0.761139752153518  0.6826601395865309  0.6141431845858918  1.0000
  H   H16       1.0  0.3750136880080958  0.18252657180677553  0.386131181490697  1.0000
  H   H17       1.0  0.8629975456277704  0.051823240085788286  0.3954843091083262  1.0000
  H   H18       1.0  0.2576091553452214  0.5523216972493188  0.6049557314465162  1.0000
  H   H19       1.0  0.9099520225451483  0.23049828869070413  0.42183528924505975  1.0000
  H   H20       1.0  0.33136527158198  0.7308597995154713  0.5785078515969958  1.0000
  H   H21       1.0  0.2094422082651304  0.3658276892979658  0.8059600533537649  1.0000
  H   H22       1.0  0.015465147643283179  0.8658803515315724  0.19400282465683463  1.0000
  H   H23       1.0  0.2632124943638912  0.22328193101622415  0.7019612830785534  1.0000
  H   H24       1.0  0.9649712457962067  0.723296802886196  0.2980143224159661  1.0000
  C   C1        1.0  0.8455306154015715  0.6416667348606353  0.791988498344253  1.0000
  C   C2        1.0  0.6372556448688369  0.1416287216158096  0.2079208743058132  1.0000
  C   C3        1.0  0.8875921422139467  0.6641609602043915  0.6264072392780877  1.0000
  C   C4        1.0  0.5138890564900932  0.1641843140348911  0.37356210783276117  1.0000
  C   C5        1.0  0.9927291126328298  0.5503437032442522  0.5110159859090757  1.0000
  C   C6        1.0  0.5039944038683757  0.0504726894148675  0.48890156962340836  1.0000
  C   C7        1.0  0.11008887762058346  0.12485680047790033  0.22642472103777325  1.0000
  C   C8        1.0  0.3362431348534326  0.6250598253784291  0.7736980827453764  1.0000
  C   C9        1.0  0.9699423516969644  0.1246936627617501  0.38807540755492903  1.0000
  C   C10       1.0  0.3574549096017703  0.6249867471463587  0.612166274330079  1.0000
  C   C11       1.0  0.03100250479036495  0.0704199004531318  0.5097366566536721  1.0000
  C   C12       1.0  0.5401720523122788  0.5705895893219406  0.49037025179858074  1.0000
  N   N1        1.0  0.8764835155784494  0.5259896155342503  0.8608306589813141  1.0000
  N   N2        1.0  0.7372506608916681  0.0260141591924565  0.13903539107015214  1.0000
  N   N3        1.0  0.8267735611707964  0.5616891409787571  0.009132892542389507  1.0000
  N   N4        1.0  0.8358500120111927  0.061738637402335414  0.990717738282385  1.0000
  N   N5        1.0  0.7661768521917693  0.6934538779514837  0.02833907005694409  1.0000
  N   N6        1.0  0.794264812884961  0.1934579489419619  0.9715482837684564  1.0000
  N   N7        1.0  0.7751312090193136  0.7461306998355043  0.8954768495238952  1.0000
  N   N8        1.0  0.6702135462035201  0.24607179405540341  0.1044381706127383  1.0000
  N   N9        1.0  0.14754028354106904  0.0158131899370062  0.1288357481067237  1.0000
  N   N10       1.0  0.27616045518448834  0.5159227047119118  0.8711901960485661  1.0000
  N   N11       1.0  0.2797463950973196  0.060359469755489704  0.9964700680154905  1.0000
  N   N12       1.0  0.2762567342720885  0.5602887642996492  0.0034679247330728787  1.0000
  N   N13       1.0  0.32429363822411256  0.1909222898952265  0.009588517018293953  1.0000
  N   N14       1.0  0.3340323296521888  0.6908302572302957  0.9903762616567992  1.0000
  N   N15       1.0  0.21867437537716225  0.2339591338355547  0.15398260562363222  1.0000
  N   N16       1.0  0.3726204992809271  0.7340278805438275  0.8460899883203794  1.0000
  O   O1        1.0  0.1684293208281032  0.2971341269622769  0.7493215869145686  1.0000
  O   O2        1.0  0.9177411554224691  0.7971625038020492  0.2505526367126479  1.0000
  O   O3        1.0  0.06567456337612738  0.5945923957549368  0.370324598708443  1.0000
  O   O4        1.0  0.4367737611408557  0.09480871685809687  0.6295387180561038  1.0000
  O   O5        1.0  0.6396344246800679  0.339858803551941  0.7757240531384113  1.0000
  O   O6        1.0  0.4154736601856897  0.839898264268342  0.22398260843078088  1.0000
  O   O7        1.0  0.007129199477482602  0.4236008606239282  0.5464812947476005  1.0000
  O   O8        1.0  0.5536169517746004  0.9236624162097798  0.4534425093058943  1.0000
  O   O9        1.0  0.15015700817798455  0.9733115533221336  0.47706370287973954  1.0000
  O   O10       1.0  0.6265030282587386  0.4733385790555146  0.5230211654857726  1.0000
  O   O11       1.0  0.4240206803886153  0.4554161484798342  0.22642312601173137  1.0000
  O   O12       1.0  0.6505360099102759  0.9554702815350427  0.773955908344256  1.0000
  O   O13       1.0  0.9460154804311498  0.12099700060763746  0.6456920451925755  1.0000
  O   O14       1.0  0.5913096329029199  0.6211391935883908  0.3544239442012299  1.0000
  O   O15       1.0  0.910495425909623  0.41419131718811286  0.22629853806184752  1.0000
  O   O16       1.0  0.13737899754941182  0.9145369862524786  0.7735683681962301  1.0000
