data_image0
_chemical_formula_structural       Mg24H48C48O96
_chemical_formula_sum              "Mg24 H48 C48 O96"
_cell_length_a       9.923457679005862
_cell_length_b       18.181202012007198
_cell_length_c       18.32615672900494
_cell_angle_alpha    89.99996919191254
_cell_angle_beta     89.9999217328201
_cell_angle_gamma    89.99990293760068

_space_group_name_H-M_alt    "P 1"
_space_group_IT_number       1

loop_
  _space_group_symop_operation_xyz
  'x, y, z'

loop_
  _atom_site_type_symbol
  _atom_site_label
  _atom_site_symmetry_multiplicity
  _atom_site_fract_x
  _atom_site_fract_y
  _atom_site_fract_z
  _atom_site_occupancy
  Mg  Mg1       1.0  0.423672410753298  0.9399176356529467  0.8198387012182877  1.0000
  Mg  Mg2       1.0  0.6137861094643996  0.0354328234880796  0.7164134773585147  1.0000
  Mg  Mg3       1.0  0.07632971512397552  0.4399178891612437  0.6801615589535785  1.0000
  Mg  Mg4       1.0  0.8862134765855528  0.5354320741765479  0.7835871748382885  1.0000
  Mg  Mg5       1.0  0.5763284613413688  0.5600818427920375  0.8198382005374469  1.0000
  Mg  Mg6       1.0  0.38621355454091594  0.46456792165690086  0.7164129012321823  1.0000
  Mg  Mg7       1.0  0.9236720558131354  0.06008232559235441  0.680160801491894  1.0000
  Mg  Mg8       1.0  0.11378748701111621  0.9645685239337571  0.7835862544406709  1.0000
  Mg  Mg9       1.0  0.5763290379356433  0.060082071296427834  0.1801613863064304  1.0000
  Mg  Mg10      1.0  0.3862123160823288  0.9645679834998266  0.2835871558351641  1.0000
  Mg  Mg11      1.0  0.923672741278246  0.5600818177876691  0.319838528570763  1.0000
  Mg  Mg12      1.0  0.11378595667359552  0.46456928282952986  0.21641345835487868  1.0000
  Mg  Mg13      1.0  0.4236719796348254  0.43991841417673794  0.1801607956511972  1.0000
  Mg  Mg14      1.0  0.6137878941478618  0.5354323353112634  0.283586640624236  1.0000
  Mg  Mg15      1.0  0.07632838516236969  0.939917931376279  0.3198387403649008  1.0000
  Mg  Mg16      1.0  0.8862119462512864  0.035431183016548615  0.2164138330847862  1.0000
  Mg  Mg17      1.0  0.5000003240314967  0.9999993877741749  0.9999997266748649  1.0000
  Mg  Mg18      1.0  6.073995279999998e-07  0.49999980930827104  0.4999999557461408  1.0000
  Mg  Mg19      1.0  0.4999983322346965  0.49999971382600733  2.2735332549999997e-07  1.0000
  Mg  Mg20      1.0  0.9999996028597735  5.029923074000003e-07  0.49999971960843226  1.0000
  Mg  Mg21      1.0  0.4999979249185671  0.7500000159822309  0.8133769215056432  1.0000
  Mg  Mg22      1.0  0.9999989788304974  0.2500009748227755  0.686623070446629  1.0000
  Mg  Mg23      1.0  0.49999747749075146  0.2499996909699363  0.186623166021306  1.0000
  Mg  Mg24      1.0  2.469855885999999e-06  0.7500003821825207  0.31337701707764143  1.0000
  H   H1        1.0  0.2513934321081379  0.0036292870429477002  0.6275733886474484  1.0000
  H   H2        1.0  0.1038280036542787  0.9925303311705351  0.9496990939009535  1.0000
  H   H3        1.0  0.20524178257240072  0.7531149064099059  0.8178613304655968  1.0000
  H   H4        1.0  0.713081897118542  0.8775256271235538  0.6739029387600509  1.0000
  H   H5        1.0  0.5468857034020331  0.15197792048451933  0.8402577681440846  1.0000
  H   H6        1.0  0.6670824417728483  0.8671593647381217  0.9779781709392097  1.0000
  H   H7        1.0  0.2486070266113458  0.5036286166925736  0.872426013162972  1.0000
  H   H8        1.0  0.3961719432771389  0.49253035965609393  0.5503011381770763  1.0000
  H   H9        1.0  0.29475790074664593  0.25311550717503917  0.6821379381217341  1.0000
  H   H10       1.0  0.7869176334228527  0.37752615718331844  0.8260969850938623  1.0000
  H   H11       1.0  0.9531155358536267  0.651977176452377  0.6597428218180923  1.0000
  H   H12       1.0  0.8329181286983102  0.3671605669793154  0.522022304117769  1.0000
  H   H13       1.0  0.7486104869925612  0.49637040616370626  0.6275747103031435  1.0000
  H   H14       1.0  0.8961705252271983  0.5074701770010325  0.9497000218680896  1.0000
  H   H15       1.0  0.7947560713730512  0.7468851231258072  0.8178605685552967  1.0000
  H   H16       1.0  0.2869153124817387  0.6224728303005735  0.6739042557206147  1.0000
  H   H17       1.0  0.45311566343288945  0.3480222075869862  0.8402572047937582  1.0000
  H   H18       1.0  0.3329180311589113  0.6328394780654495  0.9779783570206106  1.0000
  H   H19       1.0  0.7513937127433508  0.9963719333166243  0.872426787091193  1.0000
  H   H20       1.0  0.6038281400147553  0.007470475428107205  0.550301190928721  1.0000
  H   H21       1.0  0.7052438651998684  0.24688415648922304  0.6821394250596954  1.0000
  H   H22       1.0  0.2130817537278062  0.12247452857484126  0.8260967196335045  1.0000
  H   H23       1.0  0.046883724913598705  0.8480234887126205  0.659742558782014  1.0000
  H   H24       1.0  0.16708202597293106  0.13284083343496184  0.522021521460502  1.0000
  H   H25       1.0  0.7486049934392867  0.9963715199451078  0.3724266988780869  1.0000
  H   H26       1.0  0.8961724373196845  0.007470475816582203  0.0503009936238357  1.0000
  H   H27       1.0  0.7947576506908547  0.24688425052175947  0.1821387570600095  1.0000
  H   H28       1.0  0.2869175361438607  0.12247407982675182  0.3260971487654132  1.0000
  H   H29       1.0  0.4531137298581385  0.8480223364841354  0.15974341071751746  1.0000
  H   H30       1.0  0.33291799920367987  0.13283979219307443  0.02202191658602  1.0000
  H   H31       1.0  0.7513934143641592  0.49637164027605984  0.1275735286938229  1.0000
  H   H32       1.0  0.6038284976920282  0.5074726474052869  0.4497000406834246  1.0000
  H   H33       1.0  0.7052435479435104  0.7468847497934167  0.31786051239839  1.0000
  H   H34       1.0  0.21308179984023923  0.6224735497671362  0.1739025567634513  1.0000
  H   H35       1.0  0.04688389740808669  0.3480225304977795  0.3402578113755155  1.0000
  H   H36       1.0  0.1670823122765057  0.6328396899891617  0.47797778340716945  1.0000
  H   H37       1.0  0.2513939848356729  0.5036287507653373  0.3724264685568954  1.0000
  H   H38       1.0  0.10382689260813287  0.4925289799312724  0.050301156994557096  1.0000
  H   H39       1.0  0.20524134646093734  0.2531162338814924  0.18213897330231527  1.0000
  H   H40       1.0  0.7130831130661833  0.37752632663111296  0.3260974688098059  1.0000
  H   H41       1.0  0.5468837698310551  0.6519769493448282  0.1597423370636974  1.0000
  H   H42       1.0  0.6670824098177803  0.3671591288469644  0.0220222761729119  1.0000
  H   H43       1.0  0.2486067282306124  0.0036288736705004003  0.12757330043359616  1.0000
  H   H44       1.0  0.396171293245942  0.9925303315594792  0.44969889659644474  1.0000
  H   H45       1.0  0.2947575834899325  0.7531150004415184  0.317860662465165  1.0000
  H   H46       1.0  0.7869176795335733  0.8775262784128873  0.17390282222351772  1.0000
  H   H47       1.0  0.9531147006343444  0.15197786829436677  0.3402564374070778  1.0000
  H   H48       1.0  0.8329174072893012  0.8671594235341262  0.47797802039666243  1.0000
  C   C1        1.0  0.3323484929909597  0.9998791007579657  0.6687950472925834  1.0000
  C   C2        1.0  0.21326367032715865  0.9877682221453631  0.9390503408152995  1.0000
  C   C3        1.0  0.2246321196372634  0.8123370566733289  0.809676285268047  1.0000
  C   C4        1.0  0.6370498936289694  0.866531878016389  0.7168934348298777  1.0000
  C   C5        1.0  0.5197278895806859  0.09687485986957976  0.8614853751835199  1.0000
  C   C6        1.0  0.6024266181070814  0.8634269813411851  0.9290645030592231  1.0000
  C   C7        1.0  0.1676524388144358  0.4998791881602572  0.8312046351927478  1.0000
  C   C8        1.0  0.28673729911795925  0.4877683459145602  0.5609498938052582  1.0000
  C   C9        1.0  0.2753683873353339  0.3123376709113189  0.6903213146904363  1.0000
  C   C10       1.0  0.8629506787952367  0.36653126110918094  0.7831070405626619  1.0000
  C   C11       1.0  0.980271505508817  0.5968741022551287  0.6385146985357224  1.0000
  C   C12       1.0  0.8975719485363315  0.3634286474167326  0.5709365196595826  1.0000
  C   C13       1.0  0.6676577989188743  0.5001204594646185  0.6687972394561896  1.0000
  C   C14       1.0  0.7867348854351803  0.5122317417734698  0.939050255805981  1.0000
  C   C15       1.0  0.7753667626793614  0.6876629772931512  0.8096772063206217  1.0000
  C   C16       1.0  0.362948215171521  0.6334665561306353  0.716894689711289  1.0000
  C   C17       1.0  0.4802704005320919  0.40312525670961463  0.8614858536691088  1.0000
  C   C18       1.0  0.3975719628628269  0.6365718879471559  0.9290640936819231  1.0000
  C   C19       1.0  0.8323479431578348  0.00012094481328970003  0.8312045229307827  1.0000
  C   C20       1.0  0.7132637650094296  0.012231933384931904  0.5609498631119365  1.0000
  C   C21       1.0  0.7246333579560301  0.18766198832230435  0.6903222732502456  1.0000
  C   C22       1.0  0.13704982458123277  0.13346889790621932  0.7831068254398943  1.0000
  C   C23       1.0  0.019728816554007298  0.9031265744031034  0.6385144261503441  1.0000
  C   C24       1.0  0.1024270749560969  0.13657327653281479  0.570935237138336  1.0000
  C   C25       1.0  0.667651947985405  0.00012060619202000006  0.3312044945643535  1.0000
  C   C26       1.0  0.786735762935244  0.012231484804942704  0.06094974671016469  1.0000
  C   C27       1.0  0.7753673136289123  0.18766155024013648  0.1903221652532565  1.0000
  C   C28       1.0  0.36294953963257376  0.133468378952557  0.2831066526954302  1.0000
  C   C29       1.0  0.48026751282777275  0.9031253971012279  0.13851471234328017  1.0000
  C   C30       1.0  0.39757281515549175  0.13657217559033094  0.07093613013452679  1.0000
  C   C31       1.0  0.8323480021603802  0.5001210688082197  0.1687954523321977  1.0000
  C   C32       1.0  0.7132641495667045  0.5122341111280165  0.439050193718721  1.0000
  C   C33       1.0  0.7246350767813681  0.6876625860562131  0.3096771358289416  1.0000
  C   C34       1.0  0.1370507698937047  0.6334684458401941  0.2168930469620562  1.0000
  C   C35       1.0  0.019728935465309405  0.40312615471320623  0.3614859346573667  1.0000
  C   C36       1.0  0.10242748472366969  0.6365721595707047  0.4290641135337339  1.0000
  C   C37       1.0  0.3323476806202308  0.4998797975010946  0.331204485071332  1.0000
  C   C38       1.0  0.21326253240169987  0.48776686514034423  0.060950377388664406  1.0000
  C   C39       1.0  0.22463065515461977  0.3123383797141486  0.1903223355369903  1.0000
  C   C40       1.0  0.6370522258044886  0.36653205078162904  0.2831064891503843  1.0000
  C   C41       1.0  0.5197290327311634  0.5968739002220504  0.1385142338564975  1.0000
  C   C42       1.0  0.6024264626893938  0.3634267189666291  0.0709349025079078  1.0000
  C   C43       1.0  0.1676514901037152  0.9998793121556564  0.1687955645945252  1.0000
  C   C44       1.0  0.2867356682528026  0.9877683235841637  0.43904967874522777  1.0000
  C   C45       1.0  0.2753680907366913  0.8123366185902373  0.3096761772703189  1.0000
  C   C46       1.0  0.8629496086794576  0.8665319090813671  0.21689326208527152  1.0000
  C   C47       1.0  0.9802696089925577  0.09687478260359232  0.361485661375049  1.0000
  C   C48       1.0  0.8975733660187187  0.8634269804356625  0.4290648503866024  1.0000
  O   O1        1.0  0.30194474554984646  0.9696264229605451  0.7300806933006214  1.0000
  O   O2        1.0  0.44598884653548515  0.02512831911585071  0.6522353285893203  1.0000
  O   O3        1.0  0.3486513536207241  0.8329131953699902  0.8146969265609982  1.0000
  O   O4        1.0  0.1263568504380572  0.853623154701822  0.7967505234840004  1.0000
  O   O5        1.0  0.5087096928683934  0.045648891938761024  0.8134758722787581  1.0000
  O   O6        1.0  0.5841891598334072  0.9237849846540134  0.7465805146679685  1.0000
  O   O7        1.0  0.5287485981453842  0.920495852994357  0.915722383172401  1.0000
  O   O8        1.0  0.2464840457036175  0.9783260550526623  0.8716979658963879  1.0000
  O   O9        1.0  0.6108393533845557  0.801267224162608  0.7323282311744138  1.0000
  O   O10       1.0  0.6067508519852326  0.8062316511893146  0.89154655755636  1.0000
  O   O11       1.0  0.2934171110282904  0.9921215684880667  0.9914491852615015  1.0000
  O   O12       1.0  0.5024304192862914  0.08877032505408523  0.928508711008476  1.0000
  O   O13       1.0  0.198055272568098  0.4696259654530623  0.7699190053398439  1.0000
  O   O14       1.0  0.054011545365803215  0.5251272917836121  0.8477640617409321  1.0000
  O   O15       1.0  0.15134908939869973  0.3329133768228021  0.6853033907509031  1.0000
  O   O16       1.0  0.3736435282171158  0.3536242212154477  0.7032470544280187  1.0000
  O   O17       1.0  0.9912918768550372  0.5456491981923579  0.6865247744617449  1.0000
  O   O18       1.0  0.9158102269355765  0.42378433501099994  0.7534199301523827  1.0000
  O   O19       1.0  0.9712528142700947  0.42049689379400246  0.5842780634031185  1.0000
  O   O20       1.0  0.2535159453743887  0.4783261730298919  0.6283022737665576  1.0000
  O   O21       1.0  0.8891594064557895  0.30126604139252333  0.7676722790696715  1.0000
  O   O22       1.0  0.8932489001330597  0.3062338509621584  0.6084544957036471  1.0000
  O   O23       1.0  0.20658283717495607  0.4921206946025905  0.5085510470350485  1.0000
  O   O24       1.0  0.9975710164192222  0.5887695877558486  0.5714908213696078  1.0000
  O   O25       1.0  0.698056353099524  0.5303747541381159  0.7300823011662984  1.0000
  O   O26       1.0  0.5540180334548169  0.4748724607740443  0.6522357142464088  1.0000
  O   O27       1.0  0.651347516024451  0.6670868358783936  0.8146968589486008  1.0000
  O   O28       1.0  0.873643072218762  0.6463768862628502  0.7967508482623629  1.0000
  O   O29       1.0  0.49129174156750116  0.45435070061468974  0.8134757695955415  1.0000
  O   O30       1.0  0.4158108894604239  0.5762139834373344  0.7465806697064394  1.0000
  O   O31       1.0  0.4712520319281949  0.5795030235169778  0.9157219498005561  1.0000
  O   O32       1.0  0.7535146800649812  0.5216733953146007  0.8716979004039871  1.0000
  O   O33       1.0  0.3891597241698364  0.698731751645781  0.732328886159749  1.0000
  O   O34       1.0  0.3932488313979193  0.693766688393396  0.8915466665019381  1.0000
  O   O35       1.0  0.706582320185447  0.5078789170782373  0.991449161831504  1.0000
  O   O36       1.0  0.49756669394005115  0.4112286551993807  0.9285091723795347  1.0000
  O   O37       1.0  0.8019462718120777  0.03037310066520152  0.7699183537305884  1.0000
  O   O38       1.0  0.9459882485272076  0.9748721715416984  0.8477647032910554  1.0000
  O   O39       1.0  0.8486546839865241  0.16708628512709825  0.6853031772769995  1.0000
  O   O40       1.0  0.626358184444932  0.1463765310566529  0.7032491990224585  1.0000
  O   O41       1.0  0.0087093317379185  0.9543514524709737  0.6865244828694586  1.0000
  O   O42       1.0  0.0841903513746161  0.07621584007809193  0.7534197846797425  1.0000
  O   O43       1.0  0.028748190973289005  0.07950447291219832  0.5842774114935025  1.0000
  O   O44       1.0  0.7464849487482823  0.02167406980267121  0.6283016678035409  1.0000
  O   O45       1.0  0.1108401281673039  0.19873412598045098  0.7676715028034451  1.0000
  O   O46       1.0  0.10675103637214527  0.19376805267315697  0.6084537251128168  1.0000
  O   O47       1.0  0.7934173515008639  0.007879613068212206  0.5085504137421211  1.0000
  O   O48       1.0  0.0024284671059007  0.9112311251919115  0.5714911031139707  1.0000
  O   O49       1.0  0.6980546877140981  0.030372733971269408  0.2699188485568342  1.0000
  O   O50       1.0  0.5540115944400199  0.9748719378527756  0.3477642132674745  1.0000
  O   O51       1.0  0.6513470719261747  0.16708706159912626  0.1853042523009805  1.0000
  O   O52       1.0  0.8736405674005355  0.1463743521747105  0.203250109710936  1.0000
  O   O53       1.0  0.4912887326800473  0.9543508150118647  0.1865247609152192  1.0000
  O   O54       1.0  0.4158092657155592  0.07621527231555095  0.2534190271895653  1.0000
  O   O55       1.0  0.4712528505435571  0.07950385395501776  0.08427770435231709  1.0000
  O   O56       1.0  0.7535153875594673  0.021673651897792502  0.12830157596092556  1.0000
  O   O57       1.0  0.3891590721621725  0.19873358282529102  0.2676724020192722  1.0000
  O   O58       1.0  0.39324958899146617  0.19376695572310615  0.1084540756371695  1.0000
  O   O59       1.0  0.7065823222330891  0.007879238499661802  0.0085503565955136  1.0000
  O   O60       1.0  0.49757002169194914  0.9112277318398372  0.0714913765170451  1.0000
  O   O61       1.0  0.801945168407407  0.530374291515564  0.23008053651695087  1.0000
  O   O62       1.0  0.9459888956105613  0.4748724151663739  0.1522354801160049  1.0000
  O   O63       1.0  0.8486553824316018  0.667085780106689  0.3146961511046982  1.0000
  O   O64       1.0  0.6263589281865052  0.6463776858090571  0.2967492134186998  1.0000
  O   O65       1.0  0.0087085641189262  0.4543516087947667  0.3134753130630513  1.0000
  O   O66       1.0  0.08419021404078819  0.576215371938993  0.24657961170455414  1.0000
  O   O67       1.0  0.028747626703868392  0.579503913193122  0.4157220241216777  1.0000
  O   O68       1.0  0.7464855033128472  0.5216746339567636  0.3716978137578621  1.0000
  O   O69       1.0  0.1108400268073026  0.6987336655579314  0.232327262787642  1.0000
  O   O70       1.0  0.1067515408410742  0.6937664060061767  0.391546137489442  1.0000
  O   O71       1.0  0.7934165960858977  0.5078795623662132  0.4914495861584172  1.0000
  O   O72       1.0  0.002429424557306  0.4112295691753547  0.4285092661556291  1.0000
  O   O73       1.0  0.3019440878723785  0.4696260528485611  0.2699194233629357  1.0000
  O   O74       1.0  0.44598845379876917  0.5251283462102879  0.34776437327614934  1.0000
  O   O75       1.0  0.3486519172357135  0.33291342109025396  0.1853043199130084  1.0000
  O   O76       1.0  0.1263573687510942  0.35362612079868694  0.20324978492999426  1.0000
  O   O77       1.0  0.5087086994074852  0.5456490063350048  0.1865248635976968  1.0000
  O   O78       1.0  0.5841905592302298  0.42378462347476664  0.25341941781857  1.0000
  O   O79       1.0  0.5287484090505643  0.42049558339587645  0.0842770463885287  1.0000
  O   O80       1.0  0.24648475319742147  0.47832631163570494  0.1283021871214771  1.0000
  O   O81       1.0  0.6108407168061661  0.3012668552664908  0.2676722927019242  1.0000
  O   O82       1.0  0.606751609580151  0.30623191851930914  0.1084528753552974  1.0000
  O   O83       1.0  0.29341509765126267  0.49212023985435877  0.0085509256948484  1.0000
  O   O84       1.0  0.5024277007585596  0.5887694016973345  0.0714909151482317  1.0000
  O   O85       1.0  0.198054169164287  0.9696266062847845  0.2300811881263556  1.0000
  O   O86       1.0  0.054011184734505904  0.025127535408458402  0.15223592990255244  1.0000
  O   O87       1.0  0.151348780129652  0.8329134218215021  0.3146963645788219  1.0000
  O   O88       1.0  0.3736432642469367  0.8536226258745219  0.2967492514979568  1.0000
  O   O89       1.0  0.9912901015236243  0.04564880449797222  0.3134756046558564  1.0000
  O   O90       1.0  0.9158100895986577  0.9237849669088837  0.24658084851319728  1.0000
  O   O91       1.0  0.9712522500008448  0.9204957840561365  0.4157232216995865  1.0000
  O   O92       1.0  0.2535154922280753  0.9783256371473216  0.3716978740534032  1.0000
  O   O93       1.0  0.8891603128073482  0.8012666810068156  0.23232803905320049  1.0000
  O   O94       1.0  0.8932494046019812  0.806232204295171  0.3915469080802652  1.0000
  O   O95       1.0  0.206582081761205  0.9921211939196657  0.4914485824467505  1.0000
  O   O96       1.0  0.9975669352984512  0.08877133185330882  0.4285095300803974  1.0000
