data_image0
_chemical_formula_structural       Cd8H12C8S4N12O20
_chemical_formula_sum              "Cd8 H12 C8 S4 N12 O20"
_cell_length_a       6.859756077102889
_cell_length_b       10.172539715733926
_cell_length_c       12.402448018629475
_cell_angle_alpha    110.4537637689123
_cell_angle_beta     90.00313825332664
_cell_angle_gamma    109.70837244900437

_space_group_name_H-M_alt    "P 1"
_space_group_IT_number       1

loop_
  _space_group_symop_operation_xyz
  'x, y, z'

loop_
  _atom_site_type_symbol
  _atom_site_label
  _atom_site_symmetry_multiplicity
  _atom_site_fract_x
  _atom_site_fract_y
  _atom_site_fract_z
  _atom_site_occupancy
  Cd  Cd1       1.0  0.8052495379952871  0.9186840368723421  0.5994613572837864  1.0000
  Cd  Cd2       1.0  0.8864546747587027  0.08133798680862007  0.9005800507597288  1.0000
  Cd  Cd3       1.0  0.19475182822929338  0.0813166239799585  0.40053892553695664  1.0000
  Cd  Cd4       1.0  0.11354523366357926  0.9186626739946387  0.09942023202483341  1.0000
  Cd  Cd5       1.0  0.5972517297269918  0.21913963439841666  0.7171105154431956  1.0000
  Cd  Cd6       1.0  0.37809078086434755  0.7808076037741639  0.7829242991775659  1.0000
  Cd  Cd7       1.0  0.4027481786952833  0.7808610264048425  0.28288976734136645  1.0000
  Cd  Cd8       1.0  0.6219105853602398  0.21919305707812947  0.21707598364317704  1.0000
  H   H1        1.0  0.5564962674107575  0.49767230010518654  0.18022604391720173  1.0000
  H   H2        1.0  0.0591739620873213  0.5023230185402667  0.3197246417232479  1.0000
  H   H3        1.0  0.44350016042815804  0.5023272306293478  0.8197755255434772  1.0000
  H   H4        1.0  0.9408253852973657  0.4976765204126893  0.6802745112670793  1.0000
  H   H5        1.0  0.7626952191939794  0.5401452342097031  0.5130350496652413  1.0000
  H   H6        1.0  0.22245893033864653  0.460022249590338  0.9868755555041278  1.0000
  H   H7        1.0  0.23730873084925713  0.45985767851259135  0.4869650762374392  1.0000
  H   H8        1.0  0.7775409780836354  0.539978411212928  0.013124727280434434  1.0000
  H   H9        1.0  0.7953009566451852  0.7834331372207757  0.7648324887593888  1.0000
  H   H10       1.0  0.011845997510299414  0.21659266499621313  0.7352579143427465  1.0000
  H   H11       1.0  0.20469984722808474  0.21656639907442346  0.23516746978135936  1.0000
  H   H12       1.0  0.9881553687142881  0.7834079958560878  0.26474236847799665  1.0000
  C   C1        1.0  0.6083435141501711  0.543167318639135  0.27271155027596455  1.0000
  C   C2        1.0  0.06538866204988372  0.4568311478211199  0.22721995717959234  1.0000
  C   C3        1.0  0.39165493778352106  0.4568333448218809  0.7272879269581909  1.0000
  C   C4        1.0  0.9346106840210806  0.5431683884250517  0.772780001324982  1.0000
  C   C5        1.0  0.7097877333981798  0.5629664339868654  0.4414219993379903  1.0000
  C   C6        1.0  0.1468369626101306  0.4371451667289036  0.0584997434257346  1.0000
  C   C7        1.0  0.29021363151268526  0.4370342241586442  0.5585790889969929  1.0000
  C   C8        1.0  0.8531614893235685  0.5628554967321122  0.9414997338084136  1.0000
  S   S1        1.0  0.7455481200334473  0.1398420655770849  0.4383579851632362  1.0000
  S   S2        1.0  0.6058444518834633  0.8601374505980602  0.06161861762150528  1.0000
  S   S3        1.0  0.25445324619114007  0.8601585952752088  0.5616422976575067  1.0000
  S   S4        1.0  0.3941563519898068  0.13986208569713907  0.9383813409192359  1.0000
  N   N1        1.0  0.6574466978416494  0.4647107767893743  0.3299008620356645  1.0000
  N   N2        1.0  0.1928502299730042  0.5353521530955234  0.17003738979458666  1.0000
  N   N3        1.0  0.3425497313109815  0.5352887566519442  0.6700999019107814  1.0000
  N   N4        1.0  0.8071491174116828  0.4646473858574395  0.8299617631957475  1.0000
  N   N5        1.0  0.6914866057852577  0.6934637463471772  0.4523209719244434  1.0000
  N   N6        1.0  0.9980489161446755  0.3066376781584665  0.047597527865988816  1.0000
  N   N7        1.0  0.308512740285714  0.3065357898989943  0.5476789865801239  1.0000
  N   N8        1.0  0.0019509922775993397  0.6933629826447926  0.9524027549185733  1.0000
  N   N9        1.0  0.6263703717367192  0.6810259168209994  0.3433620406651698  1.0000
  N   N10       1.0  0.9454830073051782  0.31899947887793445  0.15656258961548994  1.0000
  N   N11       1.0  0.37363009903687316  0.31897586853935417  0.6566385663993942  1.0000
  N   N12       1.0  0.05451690243082638  0.6810011846321158  0.8434368876548393  1.0000
  O   O1        1.0  0.7508215619026969  0.2588508348001568  0.5497678893152839  1.0000
  O   O2        1.0  0.49208451764950917  0.7411462082932516  0.9501893827949319  1.0000
  O   O3        1.0  0.249179803008161  0.7411498233453528  0.4502331990196924  1.0000
  O   O4        1.0  0.5079168485750786  0.2588544525590422  0.04981090002581112  1.0000
  O   O5        1.0  0.8470390887627913  0.20678864512836978  0.3543307655861413  1.0000
  O   O6        1.0  0.6404045679138831  0.793169666627307  0.14561678450935037  1.0000
  O   O7        1.0  0.15296227746179614  0.7932120157239239  0.6456695172346018  1.0000
  O   O8        1.0  0.35959623727310935  0.20682987237469058  0.8543823685171577  1.0000
  O   O9        1.0  0.8550671418402659  0.0414369384463242  0.4543431578679816  1.0000
  O   O10       1.0  0.8137856665916486  0.9585600053727181  0.045642463391303234  1.0000
  O   O11       1.0  0.1449342256980442  0.9585637251127604  0.5456563194385212  1.0000
  O   O12       1.0  0.1862142418306334  0.0414406554305486  0.9543578193932662  1.0000
  O   O13       1.0  0.5217841509355381  0.04028611593253121  0.3881505360530114  1.0000
  O   O14       1.0  0.4816284896035724  0.9596591619396476  0.11182383384110045  1.0000
  O   O15       1.0  0.4782172152890497  0.9597145449197629  0.6118497467677316  1.0000
  O   O16       1.0  0.5183714188187025  0.040341498863611505  0.8881764489434616  1.0000
  O   O17       1.0  0.7305542666034623  0.8527247224957506  0.7584317225936987  1.0000
  O   O18       1.0  0.8777920708384028  0.14726969536573611  0.7416190097374341  1.0000
  O   O19       1.0  0.26944710093484764  0.14727594106332734  0.24156775471280414  1.0000
  O   O20       1.0  0.12220929669989998  0.8527309681933417  0.2583804675690758  1.0000
