data_image0
_chemical_formula_structural       Cd2H28C30S4N16O2
_chemical_formula_sum              "Cd2 H28 C30 S4 N16 O2"
_cell_length_a       5.781857861448505
_cell_length_b       13.261318927764954
_cell_length_c       13.241905400421413
_cell_angle_alpha    89.69775558848504
_cell_angle_beta     92.69562371808607
_cell_angle_gamma    99.86722341334378

_space_group_name_H-M_alt    "P 1"
_space_group_IT_number       1

loop_
  _space_group_symop_operation_xyz
  'x, y, z'

loop_
  _atom_site_type_symbol
  _atom_site_label
  _atom_site_symmetry_multiplicity
  _atom_site_fract_x
  _atom_site_fract_y
  _atom_site_fract_z
  _atom_site_occupancy
  Cd  Cd1       1.0  0.5003311056911245  0.1768477437951859  0.30192189556348126  1.0000
  Cd  Cd2       1.0  0.4997252974314464  0.823147839916011  0.6980767313999365  1.0000
  H   H1        1.0  0.6742021844829653  0.9590221274142866  0.19952648903657177  1.0000
  H   H2        1.0  0.32584522596454957  0.0409670767635646  0.8004521571201975  1.0000
  H   H3        1.0  0.6432133145523411  0.8265417762941424  0.043602903625291796  1.0000
  H   H4        1.0  0.3567656648916682  0.17343322078068718  0.9563759542118432  1.0000
  H   H5        1.0  0.3759763454433056  0.8105179167857841  0.9678949084589661  1.0000
  H   H6        1.0  0.6239907473878787  0.18947459891118967  0.032092207074903484  1.0000
  H   H7        1.0  0.02609977035086081  0.6943193578869966  0.020722947360425795  1.0000
  H   H8        1.0  0.9738446647421314  0.3056866186669465  0.9792841621129256  1.0000
  H   H9        1.0  0.7169335131475807  0.4784464846099608  0.17186929271949228  1.0000
  H   H10       1.0  0.2830218279584998  0.5215647944736261  0.8281381905089659  1.0000
  H   H11       1.0  0.8406237991073058  0.45553693411234514  0.05753914466230008  1.0000
  H   H12       1.0  0.15934806595256393  0.5444726546529637  0.9424710230824259  1.0000
  H   H13       1.0  0.6896960460509831  0.5600577986373096  0.06563636704348848  1.0000
  H   H14       1.0  0.3102712600046474  0.43994885802735695  0.9343691007818575  1.0000
  H   H15       1.0  0.719311736073145  0.7376715916188344  0.48367346274205386  1.0000
  H   H16       1.0  0.28069913736716506  0.2623155460996145  0.5163358998919279  1.0000
  H   H17       1.0  0.7240480998455682  0.6064971192254517  0.33792721805489373  1.0000
  H   H18       1.0  0.27591698778226714  0.39350752037343995  0.6620668274991957  1.0000
  H   H19       1.0  0.5117425197609081  0.4926920562844402  0.34137412556369645  1.0000
  H   H20       1.0  0.48822050831591923  0.5073157186149828  0.6586176460446964  1.0000
  H   H21       1.0  0.10997620554203283  0.48741461232754085  0.2655229966686861  1.0000
  H   H22       1.0  0.8899735289485876  0.5126003565426771  0.7344919467979878  1.0000
  H   H23       1.0  0.063560244724691  0.07521276309398668  0.10834620448832769  1.0000
  H   H24       1.0  0.9365137870629355  0.9247996605941893  0.8916501307502428  1.0000
  H   H25       1.0  0.061921035174741186  0.6080380540647781  0.591243118240584  1.0000
  H   H26       1.0  0.9380762504824531  0.3919654573759743  0.4087585742235689  1.0000
  H   H27       1.0  0.83322007658591  0.7113327001785449  0.21036744888071718  1.0000
  H   H28       1.0  0.16675015058132914  0.2886545526313212  0.7896143824242045  1.0000
  C   C1        1.0  0.5115364152415438  0.9716862324955855  0.1613546883513877  1.0000
  C   C2        1.0  0.48850637017169884  0.0283050670560883  0.8386336865086788  1.0000
  C   C3        1.0  0.45146408100937657  0.8171453171840212  0.04551894984628287  1.0000
  C   C4        1.0  0.5485208065226956  0.18284407435709937  0.9544663297155012  1.0000
  C   C5        1.0  0.3546051554298658  0.7253767179992822  0.10737032145101469  1.0000
  C   C6        1.0  0.6453703019201954  0.2746239679024711  0.8926262088146615  1.0000
  C   C7        1.0  0.1295652151342424  0.6702481270009243  0.08483198187794018  1.0000
  C   C8        1.0  0.87039385314975  0.32975549398359055  0.9151739738693223  1.0000
  C   C9        1.0  0.037491785232404644  0.583118173934146  0.14002901813558566  1.0000
  C   C10       1.0  0.9624596490146687  0.4168922899792236  0.8599813695760404  1.0000
  C   C11       1.0  0.8081983652193331  0.5168659694422217  0.10776525385422528  1.0000
  C   C12       1.0  0.1917690001396792  0.48314519936483435  0.8922440616259166  1.0000
  C   C13       1.0  0.5497708674038507  0.6895968905213438  0.4929391387544442  1.0000
  C   C14       1.0  0.45023097450520316  0.3103933894389073  0.5070692736785247  1.0000
  C   C15       1.0  0.5352136540799677  0.5765410814661179  0.3378934199460133  1.0000
  C   C16       1.0  0.4647489852575363  0.4234658926341339  0.66209983994505  1.0000
  C   C17       1.0  0.40012557612711686  0.6095445032823151  0.24700299178803678  1.0000
  C   C18       1.0  0.5998275578764236  0.3904614556741917  0.7530028401685414  1.0000
  C   C19       1.0  0.49110547425202367  0.6946358647658358  0.1886700302651931  1.0000
  C   C20       1.0  0.508858972555835  0.3053633548413399  0.811326181885718  1.0000
  C   C21       1.0  0.17626655537892327  0.5549728591337199  0.2214361695874132  1.0000
  C   C22       1.0  0.8236799533427188  0.4450428426395305  0.7785809647815681  1.0000
  C   C23       1.0  0.014517121037044904  0.2774551558519605  0.19521755021450093  1.0000
  C   C24       1.0  0.985549371763753  0.7225536505657004  0.8048034576749927  1.0000
  C   C25       1.0  0.9632296112651986  0.09475706608302657  0.3913719218986955  1.0000
  C   C26       1.0  0.03681637954512943  0.905214602780326  0.608634371091284  1.0000
  C   C27       1.0  0.19801856897841222  0.027398136132624994  0.1153302951510469  1.0000
  C   C28       1.0  0.8020387913038931  0.9726075224462104  0.8846639782450579  1.0000
  C   C29       1.0  0.21531550275193462  0.6233816327941283  0.5459174950108405  1.0000
  C   C30       1.0  0.7846779081758087  0.37662108131809896  0.4540863476083175  1.0000
  S   S1        1.0  0.2864211329841808  0.308491736989005  0.16425740978692005  1.0000
  S   S2        1.0  0.7136394576656999  0.6915194252423477  0.8357627199837337  1.0000
  S   S3        1.0  0.6981647246577013  0.0360020201484943  0.41111432137294907  1.0000
  S   S4        1.0  0.3018847195808121  0.9639852042848246  0.5888824803681629  1.0000
  N   N1        1.0  0.19314005015998242  0.9451409980348442  0.057724848871075096  1.0000
  N   N2        1.0  0.8068991234973242  0.05486639720182752  0.9422651851245405  1.0000
  N   N3        1.0  0.23636408108117737  0.5686707586701871  0.4639467760913617  1.0000
  N   N4        1.0  0.76360729248119  0.4313368023731743  0.5360520156100178  1.0000
  N   N5        1.0  0.39114690809996233  0.04647753411666859  0.18017476316478556  1.0000
  N   N6        1.0  0.6089222532993902  0.9535228261359378  0.8198137028137608  1.0000
  N   N7        1.0  0.3950459870228826  0.9113815313767047  0.08772621401456598  1.0000
  N   N8        1.0  0.6049815642170132  0.08861840871652048  0.912257350479706  1.0000
  N   N9        1.0  0.40466796280517064  0.6982003573388483  0.5668460351156668  1.0000
  N   N10       1.0  0.595336839696003  0.3017929367449739  0.43316401369613533  1.0000
  N   N11       1.0  0.4507671016169683  0.6120126434819682  0.4316158787079444  1.0000
  N   N12       1.0  0.5492160843877015  0.38798631617385837  0.5683868765752534  1.0000
  N   N13       1.0  0.8150795473535764  0.25603555723872506  0.21635050759613245  1.0000
  N   N14       1.0  0.18496411652555622  0.7439636339919034  0.7836606749909834  1.0000
  N   N15       1.0  0.15474603940711523  0.1396621982824158  0.3786540564081449  1.0000
  N   N16       1.0  0.8453272464823629  0.8603118380278403  0.6213431848553554  1.0000
  O   O1        1.0  0.7093854564484802  0.7533255953190618  0.21089292478997373  1.0000
  O   O2        1.0  0.29059437385519266  0.2466683760163306  0.7890945550865638  1.0000
