data_image0
_chemical_formula_structural       Cs4H28C28O16
_chemical_formula_sum              "Cs4 H28 C28 O16"
_cell_length_a       6.732601678992827
_cell_length_b       5.99938502211614
_cell_length_c       23.062463509550845
_cell_angle_alpha    90.0013924501722
_cell_angle_beta     89.99738969431148
_cell_angle_gamma    98.5219120502198

_space_group_name_H-M_alt    "P 1"
_space_group_IT_number       1

loop_
  _space_group_symop_operation_xyz
  'x, y, z'

loop_
  _atom_site_type_symbol
  _atom_site_label
  _atom_site_symmetry_multiplicity
  _atom_site_fract_x
  _atom_site_fract_y
  _atom_site_fract_z
  _atom_site_occupancy
  Cs  Cs1       1.0  0.6927617839338254  0.2521793670216397  0.44782643169503433  1.0000
  Cs  Cs2       1.0  0.8072577089970849  0.2478011872358294  0.9478266105102546  1.0000
  Cs  Cs3       1.0  0.3072466206601447  0.7477695367676915  0.5521852806673806  1.0000
  Cs  Cs4       1.0  0.19275938659759356  0.7522542036773813  0.052173393743139194  1.0000
  H   H1        1.0  0.44967443695901477  0.6912856623133338  0.3942472710768142  1.0000
  H   H2        1.0  0.050315334882839034  0.8086516911403333  0.8942408343495387  1.0000
  H   H3        1.0  0.5503319349393506  0.3086599362438561  0.6057622732943884  1.0000
  H   H4        1.0  0.9496730508576903  0.19138288676864332  0.1057596038116984  1.0000
  H   H5        1.0  0.3320302574117803  0.21941814340232207  0.29845825365853773  1.0000
  H   H6        1.0  0.16792380202265628  0.2805421807533435  0.7984617189628195  1.0000
  H   H7        1.0  0.6679420327418911  0.7805730249713958  0.7015361144181326  1.0000
  H   H8        1.0  0.8320590980589132  0.7194502248715009  0.2015248441554504  1.0000
  H   H9        1.0  0.9973572384718921  0.15466558846136272  0.2500980259137364  1.0000
  H   H10       1.0  0.5026315561371604  0.3453485201436237  0.7501081027048213  1.0000
  H   H11       1.0  0.0026223760456289525  0.8453608851402945  0.7498950410665016  1.0000
  H   H12       1.0  0.4973348032530325  0.6546157611260808  0.2498706558072854  1.0000
  H   H13       1.0  0.7466419776851864  0.4112034009990423  0.2692769052353298  1.0000
  H   H14       1.0  0.7533930449893803  0.08886990275951938  0.7692785517472557  1.0000
  H   H15       1.0  0.2533643130176344  0.5888405830726171  0.7307283024166225  1.0000
  H   H16       1.0  0.2465791342198145  0.9111026093280968  0.2307032419113284  1.0000
  H   H17       1.0  0.8326561688013714  0.7355990132223624  0.33749242592205053  1.0000
  H   H18       1.0  0.667376911256831  0.7644701499169597  0.8374891796016684  1.0000
  H   H19       1.0  0.1673607023567669  0.2644190721807931  0.6625210203421616  1.0000
  H   H20       1.0  0.33261347928107204  0.23554059294028212  0.16250562184519876  1.0000
  H   H21       1.0  0.8370272488468019  0.8290077612497695  0.5330606391704932  1.0000
  H   H22       1.0  0.6629764945966842  0.6709699396456372  0.033051493390772194  1.0000
  H   H23       1.0  0.1630059661880807  0.17093837740138443  0.46695757714677916  1.0000
  H   H24       1.0  0.3370220554519888  0.3290811621228896  0.9669472101808623  1.0000
  H   H25       1.0  0.8757165770515202  0.8002261930496886  0.46722419917466596  1.0000
  H   H26       1.0  0.6243064451067255  0.6997714085601812  0.9672166795858387  1.0000
  H   H27       1.0  0.12431867085071253  0.19972325035750055  0.5327935835036897  1.0000
  H   H28       1.0  0.37569792493270165  0.3002879235501439  0.032782457502136694  1.0000
  C   C1        1.0  0.1282015497731592  0.660759501194974  0.3563678144699907  1.0000
  C   C2        1.0  0.3718083452422364  0.8392464533742584  0.8563655904583171  1.0000
  C   C3        1.0  0.8718116183669268  0.3392451716886952  0.6436334909656408  1.0000
  C   C4        1.0  0.6281835211407911  0.16076422583093833  0.14362921098069847  1.0000
  C   C5        1.0  0.27047413001596243  0.5133520636092399  0.3445874038937546  1.0000
  C   C6        1.0  0.22951100519124878  0.9866252705978765  0.8445860724576305  1.0000
  C   C7        1.0  0.7295212994546746  0.4866262345607594  0.6554156362410382  1.0000
  C   C8        1.0  0.7704894379947048  0.013383341816556501  0.1554052601071163  1.0000
  C   C9        1.0  0.22144957130625903  0.33143965305936257  0.3064303741793211  1.0000
  C   C10       1.0  0.2785235688225285  0.16854646811793117  0.8064336884506174  1.0000
  C   C11       1.0  0.7785306548948796  0.6685545660176826  0.6935665954621724  1.0000
  C   C12       1.0  0.7214634804121046  0.8314440619896641  0.1935511402370267  1.0000
  C   C13       1.0  0.03453635267500488  0.296470741895959  0.27966609069464704  1.0000
  C   C14       1.0  0.46546176339897727  0.20354536923851904  0.7796715995585898  1.0000
  C   C15       1.0  0.9654554302037893  0.7035484225766027  0.7203308787122111  1.0000
  C   C16       1.0  0.5345283208583851  0.7964365487737265  0.220313662775645  1.0000
  C   C17       1.0  0.8930504774443193  0.4414249581591462  0.2903443120403608  1.0000
  C   C18       1.0  0.6069693714039631  0.0586260584762073  0.7903475804740907  1.0000
  C   C19       1.0  0.10695450433597387  0.55860211926786  0.7096578604988295  1.0000
  C   C20       1.0  0.39301536626614103  0.9413594831870851  0.20964071710066887  1.0000
  C   C21       1.0  0.9407682728428882  0.6217178085404598  0.32839122443632357  1.0000
  C   C22       1.0  0.5592536165671972  0.8783180257522571  0.8283898105474204  1.0000
  C   C23       1.0  0.05924740162529928  0.37830202293339704  0.6716122489072021  1.0000
  C   C24       1.0  0.44074432009028197  0.12167542862742657  0.171602389344585  1.0000
  C   C25       1.0  0.17703738622206797  0.8457223185204795  0.3994206587986824  1.0000
  C   C26       1.0  0.3229877364241176  0.6542730476487006  0.8994180315323135  1.0000
  C   C27       1.0  0.8229848867572045  0.1542565187119251  0.6005854164168837  1.0000
  C   C28       1.0  0.6770145722772299  0.34575584100870327  0.10058240658946718  1.0000
  O   O1        1.0  0.7943210188246469  0.7279708624443586  0.4997338172076907  1.0000
  O   O2        1.0  0.7056955663099488  0.7720166792875601  0.9997283028426976  1.0000
  O   O3        1.0  0.20571865675607628  0.27197838960995563  0.5002817974219909  1.0000
  O   O4        1.0  0.29430086748163836  0.22803960267489734  0.0002712679156147  1.0000
  O   O5        1.0  0.453721141712137  0.5458072240200521  0.3698549205287874  1.0000
  O   O6        1.0  0.04626207656717433  0.9541250163624323  0.8698513190955948  1.0000
  O   O7        1.0  0.5462746211170639  0.45413713490551527  0.6301494206501417  1.0000
  O   O8        1.0  0.953742989175339  0.0458935745276037  0.1301417477953848  1.0000
  O   O9        1.0  0.042367284703523446  0.9588200891803138  0.4167297241982694  1.0000
  O   O10       1.0  0.4576651598646393  0.5411947676719819  0.916726256554625  1.0000
  O   O11       1.0  0.9576549877605132  0.0411587494803953  0.5832841559076981  1.0000
  O   O12       1.0  0.542332081032498  0.45883942808669076  0.0832728807444241  1.0000
  O   O13       1.0  0.35833596630548925  0.8798296014166026  0.4194272453898903  1.0000
  O   O14       1.0  0.14167799334560982  0.6201395292910448  0.9194227822608595  1.0000
  O   O15       1.0  0.6416748330709936  0.12011580634315781  0.5805831661678055  1.0000
  O   O16       1.0  0.8583291328476221  0.37990950751176206  0.08058242535202  1.0000
