data_image0
_chemical_formula_structural       Cu2H52C36N4O8
_chemical_formula_sum              "Cu2 H52 C36 N4 O8"
_cell_length_a       9.414595610399653
_cell_length_b       9.4145364568011
_cell_length_c       11.404123197698821
_cell_angle_alpha    73.3232357458596
_cell_angle_beta     73.32182175805941
_cell_angle_gamma    69.31173908599042

_space_group_name_H-M_alt    "P 1"
_space_group_IT_number       1

loop_
  _space_group_symop_operation_xyz
  'x, y, z'

loop_
  _atom_site_type_symbol
  _atom_site_label
  _atom_site_symmetry_multiplicity
  _atom_site_fract_x
  _atom_site_fract_y
  _atom_site_fract_z
  _atom_site_occupancy
  Cu  Cu1       1.0  0.5000030397222303  1.338712607400531e-06  0.9999997045890937  1.0000
  Cu  Cu2       1.0  0.5000016753109549  2.011259006498713e-06  0.5000017844917934  1.0000
  H   H1        1.0  0.4355838921839349  0.8825241113130246  0.22745544202879844  1.0000
  H   H2        1.0  0.6174721567150956  0.06441885492186827  0.2725490316365152  1.0000
  H   H3        1.0  0.56442103603451  0.11747390512228151  0.772544388536474  1.0000
  H   H4        1.0  0.382536465734475  0.9355780424175889  0.7274527998944151  1.0000
  H   H5        1.0  0.2443547422985191  0.8322835506778715  0.08900100418982503  1.0000
  H   H6        1.0  0.6677182311624889  0.2556448883847935  0.411013103157451  1.0000
  H   H7        1.0  0.7556473690783322  0.16772371666596794  0.910993745032762  1.0000
  H   H8        1.0  0.3322868401249083  0.7443601187642128  0.5889867365379189  1.0000
  H   H9        1.0  0.4256880140276778  0.704979056184449  0.12259605790957546  1.0000
  H   H10       1.0  0.7950218364557384  0.07430149943925103  0.3774070423766106  1.0000
  H   H11       1.0  0.574316151986359  0.2950212148349394  0.8773963921490378  1.0000
  H   H12       1.0  0.20498993262397386  0.9257070194589829  0.6225894233084474  1.0000
  H   H13       1.0  0.20087988666247014  0.624627893877978  0.275861822908439  1.0000
  H   H14       1.0  0.875370639877687  0.2991110448040785  0.2241473785907928  1.0000
  H   H15       1.0  0.7991242876364238  0.3753723854475624  0.7241315000317385  1.0000
  H   H16       1.0  0.12462652323031878  0.7009055455082205  0.7758515623755499  1.0000
  H   H17       1.0  0.31669209305400153  0.6704826527506356  0.3499590729739239  1.0000
  H   H18       1.0  0.8295245798973951  0.1833032010302489  0.15004972185061397  1.0000
  H   H19       1.0  0.6833102232166651  0.3295164633628573  0.6500358658456165  1.0000
  H   H20       1.0  0.17048094928229326  0.8167076030912169  0.8499468341756183  1.0000
  H   H21       1.0  0.0365704007554299  0.7930710393375691  0.43324970273344826  1.0000
  H   H22       1.0  0.7069451896611978  0.4634253012788818  0.06675918170207508  1.0000
  H   H23       1.0  0.963434897251112  0.2069292621010561  0.5667450938344983  1.0000
  H   H24       1.0  0.29304516269571923  0.5365842403965999  0.9332387643016772  1.0000
  H   H25       1.0  0.005965455841057136  0.881741699225813  0.2806087829529673  1.0000
  H   H26       1.0  0.6182678767935882  0.49403364938921607  0.21940036976263141  1.0000
  H   H27       1.0  0.9940357532916907  0.11825741138689949  0.7193864280019467  1.0000
  H   H28       1.0  0.38172764146486327  0.5059736347868409  0.7806012495615916  1.0000
  H   H29       1.0  0.2168840686823684  0.9457921188120154  0.40925195729851527  1.0000
  H   H30       1.0  0.5542224703505524  0.2831101293291239  0.09075741215324486  1.0000
  H   H31       1.0  0.7831240762759392  0.0542023855441798  0.5907435607693189  1.0000
  H   H32       1.0  0.44577406168602346  0.7168902194709118  0.9092491631949357  1.0000
  H   H33       1.0  0.038392741341283496  0.0749303801885759  0.3739577679314792  1.0000
  H   H34       1.0  0.4250937857310007  0.46159852043059857  0.1260448100462384  1.0000
  H   H35       1.0  0.9616158863638874  0.9250699460585279  0.626037085111932  1.0000
  H   H36       1.0  0.5748963633365916  0.538397122878969  0.873961846513019  1.0000
  H   H37       1.0  0.14725053742120045  0.08749472258544697  0.14609428283668544  1.0000
  H   H38       1.0  0.4125010174326532  0.3527602133391028  0.3539129981383979  1.0000
  H   H39       1.0  0.8527580104646334  0.9125020999986617  0.853899692760109  1.0000
  H   H40       1.0  0.5875060731261286  0.6472309147517024  0.6460958807233084  1.0000
  H   H41       1.0  0.26221795893571437  0.14184371847186128  0.2132747649712741  1.0000
  H   H42       1.0  0.3581583323533408  0.23778748824517487  0.2867281381113926  1.0000
  H   H43       1.0  0.737788802456379  0.85815543625705  0.7867208310699282  1.0000
  H   H44       1.0  0.641846535644731  0.7622036205379247  0.7132804121394826  1.0000
  H   H45       1.0  0.9967620502692328  0.6246075107695788  0.017469520436435577  1.0000
  H   H46       1.0  0.8754275144281889  0.5032107090217224  0.482486234876255  1.0000
  H   H47       1.0  0.0032154894698166077  0.3753891494865726  0.9825312020691397  1.0000
  H   H48       1.0  0.12457911520905901  0.49677804269812476  0.517518076285505  1.0000
  H   H49       1.0  0.16931697715716612  0.3944669059020071  0.13228338286918984  1.0000
  H   H50       1.0  0.1055449732443066  0.3306712047553759  0.3676459696935836  1.0000
  H   H51       1.0  0.8306675036630649  0.6055285770052735  0.8677106682617933  1.0000
  H   H52       1.0  0.8944516476980624  0.6693208765282249  0.6323485749095639  1.0000
  C   C1        1.0  0.3189615261380751  0.7904315314779707  0.15799415541278708  1.0000
  C   C2        1.0  0.709573967410897  0.1810431894042921  0.34201133923994587  1.0000
  C   C3        1.0  0.681041905555375  0.20956759844244743  0.842001384152951  1.0000
  C   C4        1.0  0.2904300599881964  0.8189652992946322  0.6579879042742717  1.0000
  C   C5        1.0  0.2351765917902071  0.719995271593092  0.2858060868568727  1.0000
  C   C6        1.0  0.7800082210208571  0.26481726921781495  0.21420005978471585  1.0000
  C   C7        1.0  0.7648242693797653  0.280004999536267  0.7141889253709834  1.0000
  C   C8        1.0  0.21999030079879128  0.7351946458033254  0.7857961845635516  1.0000
  C   C9        1.0  0.0929986719457575  0.8427533081198318  0.339419360943424  1.0000
  C   C10       1.0  0.6572545304067603  0.40699943816549927  0.16058916343363452  1.0000
  C   C11       1.0  0.9070059384200985  0.15724932265822383  0.6605759110519928  1.0000
  C   C12       1.0  0.3427387020413663  0.5930043396521538  0.839412995596284  1.0000
  C   C13       1.0  0.14002435464988128  0.9812030697635241  0.3425965091878424  1.0000
  C   C14       1.0  0.5188125693177595  0.3599756320685188  0.15741058901219426  1.0000
  C   C15       1.0  0.8599845961634855  0.0187960710484916  0.657395923937912  1.0000
  C   C16       1.0  0.4811846669292095  0.6400224040043766  0.8425972566716594  1.0000
  C   C17       1.0  0.22460225191844066  0.04441179428847869  0.21289044870975718  1.0000
  C   C18       1.0  0.45558665714467855  0.2754110808907838  0.2871125445085312  1.0000
  C   C19       1.0  0.7754059562894824  0.9555861971184145  0.7871042010415508  1.0000
  C   C20       1.0  0.5444189617436946  0.72458118560359  0.7128946619983552  1.0000
  C   C21       1.0  0.7330567485457424  0.8317029185085543  0.11639564769739498  1.0000
  C   C22       1.0  0.6682827703143702  0.7669204706841981  0.38360223622780854  1.0000
  C   C23       1.0  0.26693355187565976  0.1682997238208586  0.8836118908735313  1.0000
  C   C24       1.0  0.3317070691854979  0.23307979527426428  0.6164007346431646  1.0000
  C   C25       1.0  0.8398804528184626  0.693074420350733  0.18421725766624772  1.0000
  C   C26       1.0  0.806923024541966  0.6601179580118528  0.31576828851768823  1.0000
  C   C27       1.0  0.1601101157463773  0.30692355779904545  0.815789602185106  1.0000
  C   C28       1.0  0.19306898255385363  0.3398788485097697  0.6842367521622137  1.0000
  C   C29       1.0  0.9708854214553  0.5973376030921429  0.11944151362877163  1.0000
  C   C30       1.0  0.9026809589249111  0.5291137823829359  0.38052230959417704  1.0000
  C   C31       1.0  0.029104669618284583  0.4026579820743805  0.8805590327594928  1.0000
  C   C32       1.0  0.09731659214538987  0.4708830599487327  0.6194822432904417  1.0000
  C   C33       1.0  0.06762668939984448  0.4679184212426932  0.18452870359497095  1.0000
  C   C34       1.0  0.0320903404092761  0.43237173942243595  0.3154191231511732  1.0000
  C   C35       1.0  0.9323592796605095  0.5320759398733301  0.8154687656539751  1.0000
  C   C36       1.0  0.9679008495173704  0.5676238429387154  0.6845802782201532  1.0000
  N   N1        1.0  0.3632458739017395  0.9244146673990697  0.1639970717793915  1.0000
  N   N2        1.0  0.5755919786658266  0.1367696848134727  0.3359967669306343  1.0000
  N   N3        1.0  0.6367611970580782  0.07557986468094668  0.8360022099500881  1.0000
  N   N4        1.0  0.4244184551320629  0.8632249052996244  0.6640060628005884  1.0000
  O   O1        1.0  0.6686430637656925  0.8030903118646789  0.043574128184161585  1.0000
  O   O2        1.0  0.6968865878579606  0.831356782310273  0.45641109349814685  1.0000
  O   O3        1.0  0.3313608755291994  0.19691466486510475  0.9564233650018678  1.0000
  O   O4        1.0  0.303116515471693  0.16864010413758018  0.5435938444727667  1.0000
  O   O5        1.0  0.7080158846418669  0.964885052635324  0.13476232998642254  1.0000
  O   O6        1.0  0.5351050404848081  0.7919137673261075  0.365253877084278  1.0000
  O   O7        1.0  0.2919710725404342  0.035114127671803885  0.8652512577149877  1.0000
  O   O8        1.0  0.4648911902689007  0.20809121242896816  0.6347498854571896  1.0000
