data_image0
_chemical_formula_structural       Cd2H36C32N4O10
_chemical_formula_sum              "Cd2 H36 C32 N4 O10"
_cell_length_a       8.422699602184402
_cell_length_b       9.874119814302944
_cell_length_c       9.874062253114188
_cell_angle_alpha    95.79010704801838
_cell_angle_beta     90.86628795350492
_cell_angle_gamma    90.86636739753267

_space_group_name_H-M_alt    "P 1"
_space_group_IT_number       1

loop_
  _space_group_symop_operation_xyz
  'x, y, z'

loop_
  _atom_site_type_symbol
  _atom_site_label
  _atom_site_symmetry_multiplicity
  _atom_site_fract_x
  _atom_site_fract_y
  _atom_site_fract_z
  _atom_site_occupancy
  Cd  Cd1       1.0  0.2499967000530958  0.8928543747297081  0.10714788972769185  1.0000
  Cd  Cd2       1.0  0.7499968411848315  0.10714531774473808  0.8928555925384603  1.0000
  H   H1        1.0  0.4992665101585629  0.9729029523251425  0.361313459624185  1.0000
  H   H2        1.0  0.0007396693429412972  0.6386868016878465  0.027099071252109815  1.0000
  H   H3        1.0  0.500737960417581  0.027104801208935197  0.6386910679463258  1.0000
  H   H4        1.0  0.9992585725054468  0.361306762639181  0.9728907153196646  1.0000
  H   H5        1.0  0.5974246437408581  0.17251635725185108  0.5181614087536561  1.0000
  H   H6        1.0  0.9025779594479673  0.4818386568711687  0.8274871512186693  1.0000
  H   H7        1.0  0.40257984702289207  0.8274924130074622  0.48184423575427376  1.0000
  H   H8        1.0  0.09742152109767231  0.5181559188774614  0.17250073821461603  1.0000
  H   H9        1.0  0.3132162597176915  0.42684188833224823  0.28122253725192087  1.0000
  H   H10       1.0  0.1867924875492832  0.7187715299199482  0.5731558074529419  1.0000
  H   H11       1.0  0.6867905447395586  0.5731638132463245  0.718779802972435  1.0000
  H   H12       1.0  0.8132082810625433  0.28122812020235693  0.4268376899317517  1.0000
  H   H13       1.0  0.2224188521639689  0.21624991391560403  0.1408356640484882  1.0000
  H   H14       1.0  0.27758598646110494  0.8591613854227731  0.7837486038302262  1.0000
  H   H15       1.0  0.7775856602541682  0.7837578448836453  0.8591648137350351  1.0000
  H   H16       1.0  0.7224158668740728  0.14083520000612984  0.21624561579354665  1.0000
  H   H17       1.0  0.5888154361444718  0.4096108319425866  0.5944082524979494  1.0000
  H   H18       1.0  0.9111967324769807  0.4055899106100112  0.590386454873361  1.0000
  H   H19       1.0  0.4111855859125058  0.590400006106222  0.4055944938580682  1.0000
  H   H20       1.0  0.08880412954592741  0.5944107654515917  0.40960107232152165  1.0000
  H   H21       1.0  0.8757448791903926  0.7983782874075231  0.48468938384319676  1.0000
  H   H22       1.0  0.6242564113855381  0.5153172066566469  0.20161930312198006  1.0000
  H   H23       1.0  0.12425665426971481  0.20161217266035436  0.5153173706442759  1.0000
  H   H24       1.0  0.3757359838328327  0.4846835144281413  0.7983832479237523  1.0000
  H   H25       1.0  0.7631351150290656  0.8397572993943215  0.3388794005641318  1.0000
  H   H26       1.0  0.7368690641054697  0.6611272309146015  0.16024135119653957  1.0000
  H   H27       1.0  0.23686528287198164  0.1602341906001925  0.6611254102561832  1.0000
  H   H28       1.0  0.263129215184577  0.3388724232334965  0.8397632365736957  1.0000
  H   H29       1.0  0.8526935088771737  0.970671333310186  0.4526871110601507  1.0000
  H   H30       1.0  0.6473072478908505  0.5473208993498772  0.029324804410840993  1.0000
  H   H31       1.0  0.14731045040834087  0.0293201289267842  0.5473177695531748  1.0000
  H   H32       1.0  0.3526887498205866  0.45268081333519194  0.9706769084718235  1.0000
  H   H33       1.0  0.15759740043343837  0.0731597534004891  0.8881821764766616  1.0000
  H   H34       1.0  0.34239826729997697  0.11182036466568948  0.9268430047369736  1.0000
  H   H35       1.0  0.8423994570041344  0.9268317669841579  0.11182053965715263  1.0000
  H   H36       1.0  0.6575964177573469  0.8881813414763682  0.07317083424231191  1.0000
  C   C1        1.0  0.45746691854214566  0.0750999041561684  0.350329869916287  1.0000
  C   C2        1.0  0.04253379240508081  0.6496688611847999  0.9249005571160541  1.0000
  C   C3        1.0  0.5425351471295842  0.924906849841399  0.6496745066348881  1.0000
  C   C4        1.0  0.9574633437989705  0.35032776520304043  0.07509053211013143  1.0000
  C   C5        1.0  0.5108557864431588  0.18624312496870488  0.4375730994674641  1.0000
  C   C6        1.0  0.9891478439042556  0.5624259074406125  0.8137578222383582  1.0000
  C   C7        1.0  0.4891486639453859  0.8137636118401371  0.5624303111656347  1.0000
  C   C8        1.0  0.0108504898884405  0.43757071101101264  0.18623227780542356  1.0000
  C   C9        1.0  0.4587215536146303  0.3175628542665336  0.4172928382981383  1.0000
  C   C10       1.0  0.0412818649540014  0.5826985146423806  0.6824360271901997  1.0000
  C   C11       1.0  0.5412841863068678  0.6824469287306841  0.5827098966245503  1.0000
  C   C12       1.0  0.9587189051245983  0.41729910729462444  0.31755118653267544  1.0000
  C   C13       1.0  0.3538292227961506  0.32830878680045567  0.30693727129191484  1.0000
  C   C14       1.0  0.1461717137390366  0.6930586104348321  0.671690460324655  1.0000
  C   C15       1.0  0.6461729034383977  0.6717010173728254  0.693070456071496  1.0000
  C   C16       1.0  0.8538314194019917  0.3069400057734981  0.3283009542045435  1.0000
  C   C17       1.0  0.30402405105709823  0.21151441863113973  0.22676525241138284  1.0000
  C   C18       1.0  0.195981369344608  0.7732318065294379  0.788488176451665  1.0000
  C   C19       1.0  0.6959815759991059  0.788492307608884  0.7732391939327956  1.0000
  C   C20       1.0  0.8040193581586194  0.22676682423504244  0.21150622888910683  1.0000
  C   C21       1.0  0.5158369971796757  0.4342330641184872  0.5079125228277306  1.0000
  C   C22       1.0  0.9841648357764183  0.49208452405208203  0.5657657548887658  1.0000
  C   C23       1.0  0.4841639232058839  0.5657737043967758  0.4920877806721153  1.0000
  C   C24       1.0  0.015839545788971104  0.5079161189867989  0.43422589188610783  1.0000
  C   C25       1.0  0.018435571800971204  0.8632844372700816  0.32184390368716737  1.0000
  C   C26       1.0  0.48156202408483045  0.6781613699032504  0.13671253281298593  1.0000
  C   C27       1.0  0.9815659930406256  0.1367060267466869  0.6781598134600629  1.0000
  C   C28       1.0  0.5184316404788946  0.32184138064467754  0.8632882255849242  1.0000
  C   C29       1.0  0.8678883158249775  0.8664614297854314  0.4038524358141232  1.0000
  C   C30       1.0  0.6321114624215409  0.5961539558560316  0.13353758672087684  1.0000
  C   C31       1.0  0.13211086429981117  0.13352905142006222  0.5961522472511833  1.0000
  C   C32       1.0  0.3678833272407474  0.40384776344896517  0.8664661277909432  1.0000
  N   N1        1.0  0.35399820190252734  0.08608045095550661  0.24718468796901769  1.0000
  N   N2        1.0  0.1460052414346578  0.7528155899935242  0.9139269030433828  1.0000
  N   N3        1.0  0.6460039459864005  0.9139283417577174  0.7528178726700008  1.0000
  N   N4        1.0  0.853993091624652  0.24718204255074733  0.08606633883130141  1.0000
  O   O1        1.0  0.1498323789606957  0.8376568431880214  0.3741415805139639  1.0000
  O   O2        1.0  0.350168784591645  0.6258574950979393  0.16234184291304396  1.0000
  O   O3        1.0  0.8501717036506166  0.1623376771224301  0.6258605762311193  1.0000
  O   O4        1.0  0.6498224189051741  0.3741351211818795  0.8376365626678324  1.0000
  O   O5        1.0  0.004113720448799501  0.8914635746667442  0.19631745305419918  1.0000
  O   O6        1.0  0.49588356633707065  0.8036902070941636  0.10854434263089274  1.0000
  O   O7        1.0  0.9958818676434192  0.10852591625476997  0.80368705572743  1.0000
  O   O8        1.0  0.5041113004087024  0.19632064957502848  0.891479548785121  1.0000
  O   O9        1.0  0.24999773744502118  0.052719185166637296  0.9472790836497186  1.0000
  O   O10       1.0  0.7499991812887573  0.9472743713010702  0.05272384146542923  1.0000
