data_image0
_chemical_formula_structural       Zn2H34C42N6O12
_chemical_formula_sum              "Zn2 H34 C42 N6 O12"
_cell_length_a       8.585531666072535
_cell_length_b       10.442924187688668
_cell_length_c       11.004289020006176
_cell_angle_alpha    89.99997660999392
_cell_angle_beta     89.99988824970154
_cell_angle_gamma    102.9162076653646

_space_group_name_H-M_alt    "P 1"
_space_group_IT_number       1

loop_
  _space_group_symop_operation_xyz
  'x, y, z'

loop_
  _atom_site_type_symbol
  _atom_site_label
  _atom_site_symmetry_multiplicity
  _atom_site_fract_x
  _atom_site_fract_y
  _atom_site_fract_z
  _atom_site_occupancy
  Zn  Zn1       1.0  0.7499998079069385  0.24999997152659156  0.08373127401298322  1.0000
  Zn  Zn2       1.0  0.25000069045793083  0.7499997115533006  0.9162678564166599  1.0000
  H   H1        1.0  0.024012351957218  0.47755762871212687  0.10140853182912221  1.0000
  H   H2        1.0  0.47598745077030463  0.0224413712702116  0.10140827182329563  1.0000
  H   H3        1.0  0.9759858184941307  0.5224420601713647  0.8985915073388855  1.0000
  H   H4        1.0  0.5240130475933212  0.9775583118092469  0.8985917673429287  1.0000
  H   H5        1.0  0.1329875810701253  0.6639104400744104  0.23832139235417324  1.0000
  H   H6        1.0  0.36701305408629986  0.8360886425493631  0.23832117982506423  1.0000
  H   H7        1.0  0.8670140812484064  0.33608924010260927  0.7616795555477368  1.0000
  H   H8        1.0  0.6329869031794502  0.16390907565111953  0.7616779506053675  1.0000
  H   H9        1.0  0.9876670164558519  0.6890116965566904  0.43181619459810605  1.0000
  H   H10       1.0  0.5123328546936463  0.8109881309843772  0.43181562743317414  1.0000
  H   H11       1.0  0.012333752457344423  0.3109889689624695  0.5681838445677201  1.0000
  H   H12       1.0  0.4876688076273652  0.1890115491934878  0.5681835029955736  1.0000
  H   H13       1.0  0.636745378411682  0.3403757977508165  0.3294001002112807  1.0000
  H   H14       1.0  0.8632535660349916  0.15962391477847154  0.3293999608679528  1.0000
  H   H15       1.0  0.36325395599580906  0.6596238882306552  0.6705999389558386  1.0000
  H   H16       1.0  0.13674693232987786  0.8403757683014137  0.6705991695616903  1.0000
  H   H17       1.0  0.7110093987518341  0.5384826138459147  0.7589852326700496  1.0000
  H   H18       1.0  0.788989578304694  0.9615169066950815  0.7589850920051973  1.0000
  H   H19       1.0  0.288989042249078  0.46151805747727787  0.24101480649756726  1.0000
  H   H20       1.0  0.2110088626962181  0.03848376462811132  0.2410149471624194  1.0000
  H   H21       1.0  0.749999912776353  0.7499997046605601  0.8744192442385883  1.0000
  H   H22       1.0  0.24999825767499576  0.24999998422293157  0.12558079492942653  1.0000
  H   H23       1.0  0.04022581522593072  0.009917240235836301  0.8495887033114756  1.0000
  H   H24       1.0  0.4597736479167551  0.4900830196663862  0.8495901070160627  1.0000
  H   H25       1.0  0.9597737897323597  0.9900834281857627  0.15041042711866484  1.0000
  H   H26       1.0  0.5402271209951905  0.5099176458523473  0.1504108408863516  1.0000
  H   H27       1.0  0.18237835883064693  0.1298251804275452  0.9328415645845567  1.0000
  H   H28       1.0  0.3176232047093137  0.370174995549995  0.932843232331692  1.0000
  H   H29       1.0  0.817623574039928  0.8701754821900284  0.06715756584379311  1.0000
  H   H30       1.0  0.6823772936543193  0.629824687529471  0.0671568068345323  1.0000
  H   H31       1.0  0.09974606724201611  0.17258143541101134  0.7938648992953077  1.0000
  H   H32       1.0  0.4002558760943344  0.32741887097525085  0.7938673652542932  1.0000
  H   H33       1.0  0.9002547016724167  0.8274192301085751  0.2061342311339374  1.0000
  H   H34       1.0  0.5997460567725099  0.6725817916410436  0.20613449138380704  1.0000
  C   C1        1.0  0.9611566320117362  0.49204706893922184  0.18434456266462013  1.0000
  C   C2        1.0  0.5388424382957737  0.007951797263757502  0.1843440705706954  1.0000
  C   C3        1.0  0.03884180898917582  0.5079536023839709  0.8156554765029966  1.0000
  C   C4        1.0  0.46115778951953257  0.9920469033764334  0.8156550598593386  1.0000
  C   C5        1.0  0.02187030670894069  0.5959219832481963  0.2625102409963347  1.0000
  C   C6        1.0  0.4781290983879672  0.9040770795800203  0.2625098319049287  1.0000
  C   C7        1.0  0.97812902769855  0.40407770273327515  0.7374897981707846  1.0000
  C   C8        1.0  0.5218725639330444  0.09592260059785222  0.7374892985238193  1.0000
  C   C9        1.0  0.9408907060858809  0.6082957139551797  0.369790430464228  1.0000
  C   C10       1.0  0.5591079000629762  0.8917031922502902  0.3697897606523811  1.0000
  C   C11       1.0  0.05910746436546793  0.3917039749283121  0.6302096087037797  1.0000
  C   C12       1.0  0.440893762256799  0.10829648792715574  0.630210278512948  1.0000
  C   C13       1.0  0.8002540284213919  0.5146006500318733  0.39628113644035073  1.0000
  C   C14       1.0  0.6997445053323761  0.985398231315671  0.3962811236623694  1.0000
  C   C15       1.0  0.19974557653566194  0.48540001838930646  0.6037189027263707  1.0000
  C   C16       1.0  0.30025482907635853  0.014601454666234302  0.6037180067681618  1.0000
  C   C17       1.0  0.7466052276412256  0.4138983870139939  0.3123112103985122  1.0000
  C   C18       1.0  0.7533937635059473  0.0861013415506022  0.31231126780218693  1.0000
  C   C19       1.0  0.2533932133596864  0.5861022843091989  0.6876888287691045  1.0000
  C   C20       1.0  0.24660673485892204  0.9138983415292828  0.6876878626274563  1.0000
  C   C21       1.0  0.7118895526081489  0.5126079181075484  0.5130011488163433  1.0000
  C   C22       1.0  0.7881100966773362  0.9873918332532201  0.5130009996171836  1.0000
  C   C23       1.0  0.28811005234890535  0.48739275031362445  0.4869988903503782  1.0000
  C   C24       1.0  0.2118892377301549  0.012607852728251604  0.4869990395499358  1.0000
  C   C25       1.0  0.7317929861355523  0.6376762611046233  0.5839761629733289  1.0000
  C   C26       1.0  0.7682050346825521  0.8623224441188457  0.583976092111975  1.0000
  C   C27       1.0  0.2682051843157964  0.3623234277788685  0.41602387619467857  1.0000
  C   C28       1.0  0.23179340631835998  0.13767822720434708  0.416023947055642  1.0000
  C   C29       1.0  0.7281036295372445  0.6323539707951087  0.7113564998405124  1.0000
  C   C30       1.0  0.771895477679706  0.8676455944383934  0.7113564212808968  1.0000
  C   C31       1.0  0.2718939180570885  0.3676476858697981  0.2886435393276017  1.0000
  C   C32       1.0  0.22810385672778472  0.13235409154308542  0.2886436178862226  1.0000
  C   C33       1.0  0.749998883743807  0.7499997538905918  0.7756759271540761  1.0000
  C   C34       1.0  0.24999812275015637  0.24999993789448638  0.22432502075140803  1.0000
  C   C35       1.0  0.9372517145155896  0.1510325200514444  0.9431724072950942  1.0000
  C   C36       1.0  0.5627495855720709  0.3489685727162454  0.9431726569575575  1.0000
  C   C37       1.0  0.06274905439759951  0.8489681454677154  0.05682763187073191  1.0000
  C   C38       1.0  0.4372511833398817  0.6510320928024883  0.05682829094484991  1.0000
  C   C39       1.0  0.07415941773544431  0.11315498050061022  0.877054312021663  1.0000
  C   C40       1.0  0.4258411343048394  0.38684525072712733  0.8770558072611578  1.0000
  C   C41       1.0  0.9258399166745336  0.8868447054817139  0.12294390967228713  1.0000
  C   C42       1.0  0.5741596346071063  0.6131554147916063  0.12294514064124941  1.0000
  N   N1        1.0  0.8249154528094635  0.40284272715421576  0.2086642927126405  1.0000
  N   N2        1.0  0.6750826576304833  0.09715710157011162  0.2086635573801559  1.0000
  N   N3        1.0  0.17508155368575015  0.5971569646312956  0.7913357464562621  1.0000
  N   N4        1.0  0.32491757018482303  0.9028415990700721  0.7913355730498851  1.0000
  N   N5        1.0  0.74999923245165  0.7499998736246027  0.520475432610617  1.0000
  N   N6        1.0  0.24999920854926222  0.2500007976985899  0.4795246065569998  1.0000
  O   O1        1.0  0.6274088227387864  0.40944996561145797  0.5526684939445374  1.0000
  O   O2        1.0  0.87259040496577  0.09054855207251222  0.5526665491830017  1.0000
  O   O3        1.0  0.37259140507280364  0.5905487350274542  0.4473333626952468  1.0000
  O   O4        1.0  0.12740892944171378  0.9094511339089664  0.4473334899841177  1.0000
  O   O5        1.0  0.9710046157929427  0.24043480710777498  0.0266151944935089  1.0000
  O   O6        1.0  0.5289977545687492  0.25956616617550304  0.026616438864479598  1.0000
  O   O7        1.0  0.02899704652806892  0.7595648730700973  0.9733839359352459  1.0000
  O   O8        1.0  0.47100444884890197  0.7404354788809189  0.9733845090366487  1.0000
  O   O9        1.0  0.7947206083196647  0.09757517181452613  0.9165192829415502  1.0000
  O   O10       1.0  0.7052813057054979  0.40242791084269686  0.9165192933641537  1.0000
  O   O11       1.0  0.20528043114308767  0.9024264761443348  0.08348075622387802  1.0000
  O   O12       1.0  0.2947208977133969  0.5975737342141444  0.0834807458003866  1.0000
