data_image0
_chemical_formula_structural       Zn2H24C42N4O14
_chemical_formula_sum              "Zn2 H24 C42 N4 O14"
_cell_length_a       11.020043096028646
_cell_length_b       16.53429999084726
_cell_length_c       17.61127667581064
_cell_angle_alpha    89.56267402006408
_cell_angle_beta     90.15449200853234
_cell_angle_gamma    89.84946944314198

_space_group_name_H-M_alt    "P 1"
_space_group_IT_number       1

loop_
  _space_group_symop_operation_xyz
  'x, y, z'

loop_
  _atom_site_type_symbol
  _atom_site_label
  _atom_site_symmetry_multiplicity
  _atom_site_fract_x
  _atom_site_fract_y
  _atom_site_fract_z
  _atom_site_occupancy
  Zn  Zn1       1.0  0.5144589324193022  0.4171205827249551  0.49716185194149887  1.0000
  Zn  Zn2       1.0  0.5095417463651444  0.5877411407172702  0.49569790986974716  1.0000
  H   H1        1.0  0.24167217146193562  0.4141874686412166  0.38173271832020106  1.0000
  H   H2        1.0  0.7913568038337077  0.4354175924804764  0.3624439295630778  1.0000
  H   H3        1.0  0.41758164010239807  0.3725186515659402  0.8744288052580129  1.0000
  H   H4        1.0  0.4160906512881298  0.3742249070128806  0.11937817326757026  1.0000
  H   H5        1.0  0.47237023136298717  0.3720802626100408  0.7365186253796023  1.0000
  H   H6        1.0  0.46135269997915174  0.3759790744273204  0.2579917406069825  1.0000
  H   H7        1.0  0.458620585603299  0.6312514832679809  0.7306823041866507  1.0000
  H   H8        1.0  0.43102666434155157  0.6350308213661435  0.2582869383285668  1.0000
  H   H9        1.0  0.40325972878294897  0.633152132654601  0.8685542018746941  1.0000
  H   H10       1.0  0.3867242408915103  0.6345451168098392  0.1188604826331172  1.0000
  H   H11       1.0  0.38224491607265776  0.1412731266712726  0.39896684658749126  1.0000
  H   H12       1.0  0.6379782317925304  0.1339452437690056  0.5862840938091621  1.0000
  H   H13       1.0  0.3955922325156607  0.2921640287264111  0.40243335265912333  1.0000
  H   H14       1.0  0.6389250804437623  0.2859145720997347  0.5821527882912816  1.0000
  H   H15       1.0  0.3543174164098062  0.8672193141837423  0.4155945854790274  1.0000
  H   H16       1.0  0.6471311180603649  0.868249651120216  0.5799988405944915  1.0000
  H   H17       1.0  0.3629090289099537  0.7151729701487497  0.420415236081041  1.0000
  H   H18       1.0  0.6433942553468057  0.7161563056853383  0.5768609149154926  1.0000
  H   H19       1.0  0.05439176450789059  0.6670163366193621  0.6383178239099863  1.0000
  H   H20       1.0  0.20104696918852477  0.6657927239012195  0.5920796091437664  1.0000
  H   H21       1.0  0.1895868034117143  0.6431504288611053  0.6916558659168286  1.0000
  H   H22       1.0  0.9419478007261972  0.49704728871054005  0.7002255348464101  1.0000
  H   H23       1.0  0.8001804719065007  0.4682209731165017  0.656538989875301  1.0000
  H   H24       1.0  0.8066476746043918  0.5557646672716601  0.7157792086805796  1.0000
  C   C1        1.0  0.4790210433745089  0.5066097537353685  0.3491100408727802  1.0000
  C   C2        1.0  0.5061062845539084  0.5011242549741226  0.6441619324501814  1.0000
  C   C3        1.0  0.2749126095914534  0.4955521449799037  0.5042501001016362  1.0000
  C   C4        1.0  0.7475165422490024  0.507310307621843  0.48955673414307194  1.0000
  C   C5        1.0  0.14318803871180558  0.4191931165943145  0.379077145356625  1.0000
  C   C6        1.0  0.8897773351938625  0.43298688947903935  0.3675869014803935  1.0000
  C   C7        1.0  0.0823841749694338  0.38465401511685116  0.3193825965072391  1.0000
  C   C8        1.0  0.9545238698905649  0.39199489200944976  0.3132829535007032  1.0000
  C   C9        1.0  0.9491911824705282  0.4670318813194712  0.4312879744738537  1.0000
  C   C10       1.0  0.0787649246012521  0.460549105752314  0.4367124343810857  1.0000
  C   C11       1.0  0.13903438866927334  0.49493242070124666  0.5000776817696958  1.0000
  C   C12       1.0  0.883872127209166  0.50566943109947  0.49059006052183196  1.0000
  C   C13       1.0  0.0735710306626203  0.5303132063926623  0.5580884220748172  1.0000
  C   C14       1.0  0.9447615727744959  0.536254219653884  0.553160471933829  1.0000
  C   C15       1.0  0.42670064087269566  0.4290490236223762  0.8427507242913348  1.0000
  C   C16       1.0  0.4193631217760511  0.43123665855309656  0.14986413071117966  1.0000
  C   C17       1.0  0.45771550145652645  0.42874114946420844  0.766396737587989  1.0000
  C   C18       1.0  0.4444178254404889  0.4321900048785706  0.2271200886066466  1.0000
  C   C19       1.0  0.4714652702063376  0.501684240999289  0.7261269662748331  1.0000
  C   C20       1.0  0.44957381599119367  0.5056748214927398  0.2663141241514707  1.0000
  C   C21       1.0  0.449671270180076  0.5751765897297288  0.7631196211634544  1.0000
  C   C22       1.0  0.42704226439083454  0.5784316162367346  0.2270818406836099  1.0000
  C   C23       1.0  0.41854292622583233  0.5761106486820539  0.8394342402414023  1.0000
  C   C24       1.0  0.40239581700700455  0.5781006241851188  0.14976979008311278  1.0000
  C   C25       1.0  0.40908881764973154  0.502963768271222  0.8810330849766286  1.0000
  C   C26       1.0  0.4003157404286598  0.5044181878170446  0.10964531682846967  1.0000
  C   C27       1.0  0.3905249438066321  0.503747439965771  0.9603915291208619  1.0000
  C   C28       1.0  0.38815609700525744  0.5041814185043875  0.02973820197321689  1.0000
  C   C29       1.0  0.4402811662405099  0.17073340928212125  0.44044420361382197  1.0000
  C   C30       1.0  0.583032234527991  0.16687405881597064  0.5448759166164763  1.0000
  C   C31       1.0  0.44717370273989593  0.25451729742765383  0.4421666972784236  1.0000
  C   C32       1.0  0.5841559522754736  0.2507134836709354  0.5427763302151047  1.0000
  C   C33       1.0  0.5091196966654151  0.1249988316246728  0.49293803028998423  1.0000
  C   C34       1.0  0.5046847366436467  0.0394823273702656  0.49403143514635406  1.0000
  C   C35       1.0  0.5020286194759648  0.9657721145054268  0.4958314410628757  1.0000
  C   C36       1.0  0.4193525680211039  0.8360630480055419  0.45218371248954253  1.0000
  C   C37       1.0  0.5828208083865647  0.8365687148793555  0.543929829382364  1.0000
  C   C38       1.0  0.42359450107561963  0.7522046872958725  0.45457031584030716  1.0000
  C   C39       1.0  0.5810467816907233  0.7526772632403295  0.5426132268427393  1.0000
  C   C40       1.0  0.5010153453833013  0.8802319488163094  0.49744245358760236  1.0000
  C   C41       1.0  0.1442503543735683  0.6380757578424293  0.6364436690563122  1.0000
  C   C42       1.0  0.8568748894286031  0.5193367785173136  0.6746798609452822  1.0000
  N   N1        1.0  0.5173727255156776  0.2936410390473867  0.49258442985684064  1.0000
  N   N2        1.0  0.5031353569455703  0.7114084148134837  0.49860778388626387  1.0000
  N   N3        1.0  0.1558403086548736  0.346037547239618  0.2601293199640934  1.0000
  N   N4        1.0  0.8850286321712133  0.3481717271319836  0.2552935092783599  1.0000
  O   O1        1.0  0.48932982894924487  0.4381600727890387  0.38289566806228237  1.0000
  O   O2        1.0  0.5229056357098542  0.4325118668909127  0.6131633011607602  1.0000
  O   O3        1.0  0.4910775810496445  0.575314452374421  0.3806072807975979  1.0000
  O   O4        1.0  0.5154489795747638  0.569685112913106  0.610801499678878  1.0000
  O   O5        1.0  0.32803189274371647  0.4275078914010208  0.507860440410461  1.0000
  O   O6        1.0  0.6972870036274442  0.4380381989089627  0.4910924661008236  1.0000
  O   O7        1.0  0.3238116411879943  0.5649432504174072  0.5011789043995022  1.0000
  O   O8        1.0  0.6954271414388556  0.5755307124953575  0.4873624516761836  1.0000
  O   O9        1.0  0.1337179915706841  0.552495434922335  0.6228153434304246  1.0000
  O   O10       1.0  0.8816078202865824  0.5723235247758467  0.6109563831926292  1.0000
  O   O11       1.0  0.2399995947008122  0.30118480601939274  0.2817139053250698  1.0000
  O   O12       1.0  0.1314951541533844  0.36292598516326546  0.19332329921442684  1.0000
  O   O13       1.0  0.7932563860227474  0.3815946577417434  0.22902234966650065  1.0000
  O   O14       1.0  0.9212519981937105  0.2792723909523076  0.2392980385646552  1.0000
