data_image0
_chemical_formula_structural       Ag8H8C8N24O52
_chemical_formula_sum              "Ag8 H8 C8 N24 O52"
_cell_length_a       8.66040048901085
_cell_length_b       8.962301252008842
_cell_length_c       15.284924289009236
_cell_angle_alpha    89.99993440944027
_cell_angle_beta     90.00010755055222
_cell_angle_gamma    89.9998534675583

_space_group_name_H-M_alt    "P 1"
_space_group_IT_number       1

loop_
  _space_group_symop_operation_xyz
  'x, y, z'

loop_
  _atom_site_type_symbol
  _atom_site_label
  _atom_site_symmetry_multiplicity
  _atom_site_fract_x
  _atom_site_fract_y
  _atom_site_fract_z
  _atom_site_occupancy
  Ag  Ag1       1.0  0.9121047708037439  0.4965828237728972  0.5793005380524721  1.0000
  Ag  Ag2       1.0  0.08789724580466898  0.5034151619220213  0.07930089206853813  1.0000
  Ag  Ag3       1.0  0.41210314431140205  0.003417691771240101  0.5793004377521456  1.0000
  Ag  Ag4       1.0  0.587894253567434  0.996583641284566  0.0793003381258615  1.0000
  Ag  Ag5       1.0  0.610745738540203  0.7502198563697606  0.7887674735051817  1.0000
  Ag  Ag6       1.0  0.38925350807832615  0.24978776252067553  0.28876962674775813  1.0000
  Ag  Ag7       1.0  0.1107434579916386  0.7497830846217611  0.788768516279241  1.0000
  Ag  Ag8       1.0  0.8892534792748349  0.25021783956175636  0.2887692382141368  1.0000
  H   H1        1.0  0.36018373359069505  0.6491299532696502  0.8952409143678325  1.0000
  H   H2        1.0  0.6398181751933264  0.3508696472946228  0.3952406492348644  1.0000
  H   H3        1.0  0.8601811282016243  0.8508710495783234  0.8952411124941124  1.0000
  H   H4        1.0  0.13981731653896654  0.14912966677443512  0.3952411053457895  1.0000
  H   H5        1.0  0.3591350757842661  0.8204207705722412  0.9072690480444054  1.0000
  H   H6        1.0  0.640865718170204  0.17957992230105901  0.4072675905480949  1.0000
  H   H7        1.0  0.8591329251444861  0.6795802113808591  0.9072687069328254  1.0000
  H   H8        1.0  0.1408644047691254  0.3204204814954323  0.407269240136671  1.0000
  C   C1        1.0  0.4040381931386179  0.5058645433472222  0.5841128499702608  1.0000
  C   C2        1.0  0.5959626847315107  0.4941345487412788  0.08411244201645472  1.0000
  C   C3        1.0  0.9040375167673956  0.9941324956258346  0.5841116434344615  1.0000
  C   C4        1.0  0.09596220642104208  0.005865480680519401  0.08411234007317603  1.0000
  C   C5        1.0  0.9797983965243944  0.7124884710175012  0.3277912413769002  1.0000
  C   C6        1.0  0.0202090621751125  0.2875101454127034  0.8277920420011642  1.0000
  C   C7        1.0  0.4797948611272602  0.7875111132084031  0.32779160457987905  1.0000
  C   C8        1.0  0.5202033601252367  0.21248750323254484  0.8277923330326902  1.0000
  N   N1        1.0  0.9451986040269703  0.6406374721361418  0.4054422696079741  1.0000
  N   N2        1.0  0.0548056479253205  0.3593609927261456  0.9054437130240914  1.0000
  N   N3        1.0  0.4451960325577673  0.8593620457592621  0.4054425845721284  1.0000
  N   N4        1.0  0.5548036006690039  0.14063753489357114  0.9054433980571022  1.0000
  N   N5        1.0  0.5663228358448009  0.5036283124052615  0.5822548970552364  1.0000
  N   N6        1.0  0.4336768811869547  0.49637301487991453  0.08225562350393291  1.0000
  N   N7        1.0  0.06632336468251052  0.9963706779892122  0.5822557742753676  1.0000
  N   N8        1.0  0.9336763523547732  0.003627301940760202  0.0822554005243461  1.0000
  N   N9        1.0  0.024452250705685696  0.6380512507888838  0.25223068508471874  1.0000
  N   N10       1.0  0.9755503389052222  0.36194528156804046  0.7522317974077808  1.0000
  N   N11       1.0  0.5244507705885653  0.8619473711705581  0.252230875774373  1.0000
  N   N12       1.0  0.4755472002953312  0.1380513927617599  0.7522316067149222  1.0000
  N   N13       1.0  0.3292275185258049  0.6091695229013467  0.6387960689481461  1.0000
  N   N14       1.0  0.6707723858539651  0.3908294624497232  0.13879515566511466  1.0000
  N   N15       1.0  0.8292271164126532  0.8908287094239288  0.638795586008456  1.0000
  N   N16       1.0  0.17076932392003388  0.10917250750175364  0.1387949843627894  1.0000
  N   N17       1.0  0.9848579935754386  0.8734995675015398  0.3269380618136922  1.0000
  N   N18       1.0  0.015147152936997097  0.12650016637971356  0.8269409278739419  1.0000
  N   N19       1.0  0.4848525762751874  0.6265011217110656  0.32693918735442656  1.0000
  N   N20       1.0  0.5151444874690795  0.3734986121807893  0.8269391480894797  1.0000
  N   N21       1.0  0.3221113011954486  0.4093448459311875  0.5280327442157146  1.0000
  N   N22       1.0  0.6778882361732741  0.590655471408951  0.028033012819882706  1.0000
  N   N23       1.0  0.8221105413182669  0.09065375982804369  0.5280318085681515  1.0000
  N   N24       1.0  0.17788899605085362  0.9093454417278796  0.028033294228400507  1.0000
  O   O1        1.0  0.9405718084204652  0.7183428993180387  0.4744671168197316  1.0000
  O   O2        1.0  0.05943036288054059  0.2816565465982849  0.9744686173244547  1.0000
  O   O3        1.0  0.4405705979271133  0.7816564952417694  0.4744668297151407  1.0000
  O   O4        1.0  0.559429264012266  0.21834183489318093  0.9744682501887711  1.0000
  O   O5        1.0  0.9205417313857395  0.5024988729953465  0.4068417209888438  1.0000
  O   O6        1.0  0.0794613705213933  0.49749958913739795  0.9068424436415088  1.0000
  O   O7        1.0  0.4205411025406107  0.9975018186969254  0.40684194321008255  1.0000
  O   O8        1.0  0.579459690004107  0.0024977592228765002  0.9068428756580857  1.0000
  O   O9        1.0  0.6404568876416832  0.5376763299544152  0.6498496334276425  1.0000
  O   O10       1.0  0.3595453627257754  0.4623270969536721  0.14985226662020076  1.0000
  O   O11       1.0  0.14045404282478557  0.9623279247841552  0.6498524962216409  1.0000
  O   O12       1.0  0.8595447435084224  0.037672154771080116  0.14985202078316465  1.0000
  O   O13       1.0  0.06451409054376002  0.5042206159758607  0.2549353770731031  1.0000
  O   O14       1.0  0.9354861986715618  0.49577479531781427  0.7549383196605177  1.0000
  O   O15       1.0  0.5645145644915529  0.9957779020020752  0.2549367863913973  1.0000
  O   O16       1.0  0.43548457003940644  0.004220856646952601  0.7549375645799048  1.0000
  O   O17       1.0  0.6346221502146675  0.46790086491801464  0.5128964075024385  1.0000
  O   O18       1.0  0.3653761823197641  0.5320994819686932  0.012897037334468604  1.0000
  O   O19       1.0  0.13462391162180856  0.03209934807453149  0.5128975964263491  1.0000
  O   O20       1.0  0.8653767302768145  0.9679009988080551  0.012897156890630902  1.0000
  O   O21       1.0  0.1058465586426962  0.9325301582483192  0.3002923657728545  1.0000
  O   O22       1.0  0.8941608089352471  0.0674685118613141  0.8002903180532713  1.0000
  O   O23       1.0  0.6058423962783976  0.5674681693727167  0.3002927541685737  1.0000
  O   O24       1.0  0.3941545791732964  0.43253161653202443  0.8002925466093276  1.0000
  O   O25       1.0  0.40218823999089176  0.7217342476882821  0.6640189623097827  1.0000
  O   O26       1.0  0.5978117479664817  0.27826468842748403  0.16401935549292557  1.0000
  O   O27       1.0  0.9021892914014913  0.7782648714348854  0.664019863423171  1.0000
  O   O28       1.0  0.0978060778292686  0.22173518047205934  0.16401780013728745  1.0000
  O   O29       1.0  0.8690896262241452  0.9426035883989031  0.35266986768601793  1.0000
  O   O30       1.0  0.13090983215970203  0.057394979469371804  0.8526807541199306  1.0000
  O   O31       1.0  0.36908439238424506  0.557399567367007  0.3526730023393725  1.0000
  O   O32       1.0  0.6309116019449306  0.4426012320803637  0.8526723855486227  1.0000
  O   O33       1.0  0.1914395025873148  0.5848422136978187  0.6610793984943231  1.0000
  O   O34       1.0  0.8085616303100309  0.4151567281549405  0.16107926964237865  1.0000
  O   O35       1.0  0.6914390358877753  0.9151585461618053  0.661080207699712  1.0000
  O   O36       1.0  0.308557478278118  0.08484597462091163  0.1610784604326625  1.0000
  O   O37       1.0  0.18613021068060928  0.4430584742619175  0.5060633008770523  1.0000
  O   O38       1.0  0.8138692538931807  0.5569418859614927  0.006063736718232302  1.0000
  O   O39       1.0  0.6861295403043782  0.05694274096045149  0.5060623878633309  1.0000
  O   O40       1.0  0.31387107895150723  0.9430576192608979  0.006065303971986701  1.0000
  O   O41       1.0  0.0220225870717172  0.7113126407949297  0.18128624498497464  1.0000
  O   O42       1.0  0.977980922146166  0.2886851458259444  0.6812874090780809  1.0000
  O   O43       1.0  0.522021301450458  0.7886872414152108  0.18128648486057847  1.0000
  O   O44       1.0  0.4779775890418918  0.21131166099620916  0.6812871691996494  1.0000
  O   O45       1.0  0.38825846474205156  0.2947235602228275  0.5008400106148514  1.0000
  O   O46       1.0  0.6117409825235782  0.705277925980745  0.0008407861625557003  1.0000
  O   O47       1.0  0.8882574005626225  0.2052771672205935  0.5008403064907583  1.0000
  O   O48       1.0  0.11174089202091149  0.7947243189850468  0.0008398360466160002  1.0000
  O   O49       1.0  0.36091908620432633  0.742134000188898  0.8615992383277559  1.0000
  O   O50       1.0  0.6390780923823199  0.2578667818336413  0.3615983806115892  1.0000
  O   O51       1.0  0.8609236558124493  0.7578670665055257  0.8615994988989399  1.0000
  O   O52       1.0  0.13908045086135704  0.24213371550784055  0.3615987742835146  1.0000
