data_image0
_chemical_formula_structural       Nd2H26C32N8O32
_chemical_formula_sum              "Nd2 H26 C32 N8 O32"
_cell_length_a       8.759383759469959
_cell_length_b       8.930918322340814
_cell_length_c       16.619207459669976
_cell_angle_alpha    75.4586142351324
_cell_angle_beta     76.8066043789112
_cell_angle_gamma    62.17995804725068

_space_group_name_H-M_alt    "P 1"
_space_group_IT_number       1

loop_
  _space_group_symop_operation_xyz
  'x, y, z'

loop_
  _atom_site_type_symbol
  _atom_site_label
  _atom_site_symmetry_multiplicity
  _atom_site_fract_x
  _atom_site_fract_y
  _atom_site_fract_z
  _atom_site_occupancy
  Nd  Nd1       1.0  0.8349809736785405  0.7548978424430215  0.9873521227601567  1.0000
  Nd  Nd2       1.0  0.16501169412307345  0.2451147705919254  0.012647777710348897  1.0000
  H   H1        1.0  0.4468714089361611  0.8806871385465768  0.41216942725785777  1.0000
  H   H2        1.0  0.5531297510163709  0.11929074504607938  0.5878287195494776  1.0000
  H   H3        1.0  0.9032070100692593  0.9684372040067613  0.30800386462521334  1.0000
  H   H4        1.0  0.0968005566906101  0.0315420169860587  0.6919975568011336  1.0000
  H   H5        1.0  0.8268366726948528  0.02491685714141309  0.1634106618542574  1.0000
  H   H6        1.0  0.1731692237274557  0.975071369185109  0.8365897471881563  1.0000
  H   H7        1.0  0.4141091995755132  0.6585365112937824  0.5625630393002505  1.0000
  H   H8        1.0  0.5858961191702575  0.3414530001620832  0.4374378671146457  1.0000
  H   H9        1.0  0.9620951895294707  0.5834460319847495  0.5610919038292363  1.0000
  H   H10       1.0  0.037903160862441575  0.4165511658885136  0.4389118025840018  1.0000
  H   H11       1.0  0.9177997791723059  0.5316945818458193  0.7159415773050167  1.0000
  H   H12       1.0  0.08220213990751549  0.46831037019063604  0.28406186865614547  1.0000
  H   H13       1.0  0.3598914891025943  0.3984166151218175  0.11777739495946794  1.0000
  H   H14       1.0  0.6401063751377264  0.6015895932434745  0.8822233531708715  1.0000
  H   H15       1.0  0.41886372372875497  0.5707460736320442  0.07268925579892736  1.0000
  H   H16       1.0  0.5811370413230676  0.4292588679158768  0.927312522901111  1.0000
  H   H17       1.0  0.26681176987047184  0.587953577753538  0.16405572007467129  1.0000
  H   H18       1.0  0.733181461853796  0.41205517206994097  0.8359428275973141  1.0000
  H   H19       1.0  0.5192548393162825  0.7405479739546265  0.11428494040737282  1.0000
  H   H20       1.0  0.48073727461533605  0.2594685005150481  0.8857151084749614  1.0000
  H   H21       1.0  0.44927590151835517  0.8418402992820687  0.025902696206514992  1.0000
  H   H22       1.0  0.5507208700609423  0.15817362928758172  0.9740965421674088  1.0000
  H   H23       1.0  0.8951862432590258  0.0895183062089302  0.9204161952154589  1.0000
  H   H24       1.0  0.10481109224292594  0.9104917591492523  0.07958169035994435  1.0000
  H   H25       1.0  0.8229833312356123  0.062441904188211994  0.8470597405682408  1.0000
  H   H26       1.0  0.17701111218239857  0.9375720069578435  0.15293857205683975  1.0000
  C   C1        1.0  0.5409013034715571  0.04035173482577649  0.11984579478696836  1.0000
  C   C2        1.0  0.4590942088009199  0.9596518798105294  0.8801543765551824  1.0000
  C   C3        1.0  0.5953179286492231  0.985367219379107  0.20614944268564966  1.0000
  C   C4        1.0  0.404684594563868  0.014633862338946797  0.793847832930197  1.0000
  C   C5        1.0  0.4914410731549806  0.9435675392709156  0.27729085555650096  1.0000
  C   C6        1.0  0.5085596844943722  0.056432242559281996  0.7227068035180646  1.0000
  C   C7        1.0  0.5296737966256231  0.9124413861659093  0.3580507611733238  1.0000
  C   C8        1.0  0.47032401630036685  0.0875570897297564  0.6419486250655948  1.0000
  C   C9        1.0  0.6784023972787807  0.923277351343856  0.36663114488931825  1.0000
  C   C10       1.0  0.3216034954422966  0.07670829512380102  0.6333672043403664  1.0000
  C   C11       1.0  0.7876747786973224  0.9620327127607453  0.2982042464114514  1.0000
  C   C12       1.0  0.21233456870525916  0.037947805454805895  0.7017949849761107  1.0000
  C   C13       1.0  0.7452208744952882  0.9918771510720957  0.21800325712354135  1.0000
  C   C14       1.0  0.2547908161475759  0.008103381901960896  0.7819950934328188  1.0000
  C   C15       1.0  0.10220721915938201  0.5348940098459637  0.8229466524510154  1.0000
  C   C16       1.0  0.8977953027286103  0.46510965261931153  0.17705328517091343  1.0000
  C   C17       1.0  0.14150632522284204  0.5624027237822631  0.7282869556592143  1.0000
  C   C18       1.0  0.8584973369392586  0.43759837108942884  0.27171379379780075  1.0000
  C   C19       1.0  0.2798049200511413  0.599045507491553  0.6828508731080303  1.0000
  C   C20       1.0  0.7202033283390105  0.4009453125639553  0.31715011272257226  1.0000
  C   C21       1.0  0.30650879389704494  0.6295737175234777  0.595690014991426  1.0000
  C   C22       1.0  0.6934930601145555  0.37042092396122667  0.4043112136522849  1.0000
  C   C23       1.0  0.19144765338037215  0.6219823674783029  0.5533196401451191  1.0000
  C   C24       1.0  0.8085547632287914  0.3780109915421547  0.44668289770616076  1.0000
  C   C25       1.0  0.05137382401013463  0.5870232197207699  0.5956454320686786  1.0000
  C   C26       1.0  0.9486274610524886  0.4129752858637658  0.40435775156690557  1.0000
  C   C27       1.0  0.02797426132546128  0.557135939608379  0.6826837948537655  1.0000
  C   C28       1.0  0.9720293669774378  0.4428625807346548  0.3173185079506096  1.0000
  C   C29       1.0  0.3113670959782553  0.5379058243484351  0.10479896436714134  1.0000
  C   C30       1.0  0.6886302056644951  0.4621016664810966  0.8952004745556219  1.0000
  C   C31       1.0  0.16804359166936667  0.619948018867575  0.05132735350711929  1.0000
  C   C32       1.0  0.8319531510770659  0.3800633342850616  0.9486728360208186  1.0000
  N   N1        1.0  0.335698323965822  0.9284670053301125  0.26895890006095147  1.0000
  N   N2        1.0  0.6643012934094371  0.07153534409368228  0.7310379471785351  1.0000
  N   N3        1.0  0.7173730717725275  0.8959019171914021  0.4518855613031431  1.0000
  N   N4        1.0  0.2826200083849173  0.10408879582925577  0.5481136225134333  1.0000
  N   N5        1.0  0.40167974573024157  0.6087953300880571  0.7269324172953655  1.0000
  N   N6        1.0  0.5983227235183365  0.3912031806548056  0.2730688204412387  1.0000
  N   N7        1.0  0.21980955886787254  0.6505476544299497  0.46157273396450166  1.0000
  N   N8        1.0  0.7801981017930755  0.3494444525316426  0.5384299536252753  1.0000
  O   O1        1.0  0.6606540285323987  0.0117979214987969  0.05740689322136206  1.0000
  O   O2        1.0  0.3393398147276159  0.9882121177239823  0.9425896037307804  1.0000
  O   O3        1.0  0.3791998864587498  0.11727434476814838  0.11536026636292715  1.0000
  O   O4        1.0  0.6207979640276804  0.8827292855150188  0.8846396263413747  1.0000
  O   O5        1.0  0.5492462483507409  0.7475975637833019  0.05360531518285675  1.0000
  O   O6        1.0  0.45074754094476066  0.25240990446430084  0.9463951438900434  1.0000
  O   O7        1.0  0.35596797039714556  0.8262671722404347  0.22354909627935618  1.0000
  O   O8        1.0  0.6440362845204818  0.17373263483680293  0.7764493492251244  1.0000
  O   O9        1.0  0.8813140373205145  0.002767436484646199  0.8973373612733648  1.0000
  O   O10       1.0  0.11868915376896882  0.9972426662139782  0.10265862332069271  1.0000
  O   O11       1.0  0.19686895581543237  0.011924629905038798  0.3088028419619205  1.0000
  O   O12       1.0  0.8031294347871026  0.9880725608612763  0.6911960469045152  1.0000
  O   O13       1.0  0.6622508349488638  0.8043260672001508  0.507814181402736  1.0000
  O   O14       1.0  0.33773817529009154  0.19566590481444732  0.4921841111630554  1.0000
  O   O15       1.0  0.8013954818866649  0.966883807200439  0.4631147591334538  1.0000
  O   O16       1.0  0.19859231903469518  0.03310816409766909  0.536888490298068  1.0000
  O   O17       1.0  0.16718073539035316  0.38140793759287556  0.861104145198048  1.0000
  O   O18       1.0  0.8328194231520598  0.6185957136673749  0.13889908202849435  1.0000
  O   O19       1.0  0.9957137752040097  0.6690126639116726  0.8526973002712661  1.0000
  O   O20       1.0  0.004292321723312335  0.3309961710812104  0.14729911269915158  1.0000
  O   O21       1.0  0.37410816501974836  0.5875524631580831  0.8047240596738444  1.0000
  O   O22       1.0  0.6258919948477483  0.4124486073549321  0.19527650554660872  1.0000
  O   O23       1.0  0.5232945812379554  0.6394185743652018  0.6846019801958219  1.0000
  O   O24       1.0  0.4767125030715461  0.3605722369785055  0.31539854276035567  1.0000
  O   O25       1.0  0.3494179681060102  0.675174785618779  0.42613722284674066  1.0000
  O   O26       1.0  0.6505885284742944  0.3248173126310121  0.5738650018686186  1.0000
  O   O27       1.0  0.11474336039490401  0.6472927023256217  0.42387002056399564  1.0000
  O   O28       1.0  0.8852614470676273  0.3527058240641096  0.5761309385347526  1.0000
  O   O29       1.0  0.13836510693443652  0.5286257322880915  0.013988083284367297  1.0000
  O   O30       1.0  0.8616275746210674  0.4713894588289733  0.9860126726121758  1.0000
  O   O31       1.0  0.07045156827896894  0.781468945456929  0.04229908944189726  1.0000
  O   O32       1.0  0.9295428111218698  0.2185423964906761  0.957704389690647  1.0000
