data_image0
_chemical_formula_structural       Cu2H20C12N4O10
_chemical_formula_sum              "Cu2 H20 C12 N4 O10"
_cell_length_a       7.985596126047319
_cell_length_b       8.315389802311863
_cell_length_c       8.579451099731207
_cell_angle_alpha    92.14734373890302
_cell_angle_beta     115.29352485684494
_cell_angle_gamma    110.6294422897746

_space_group_name_H-M_alt    "P 1"
_space_group_IT_number       1

loop_
  _space_group_symop_operation_xyz
  'x, y, z'

loop_
  _atom_site_type_symbol
  _atom_site_label
  _atom_site_symmetry_multiplicity
  _atom_site_fract_x
  _atom_site_fract_y
  _atom_site_fract_z
  _atom_site_occupancy
  Cu  Cu1       1.0  0.5827163126230346  0.6339586897129549  0.6256070406474733  1.0000
  Cu  Cu2       1.0  0.4172718300796491  0.3660212745338711  0.3743941842607725  1.0000
  H   H1        1.0  0.08923170677081056  0.674524395340434  0.04741840125184636  1.0000
  H   H2        1.0  0.910776059037957  0.32546573641319293  0.9526043620322896  1.0000
  H   H3        1.0  0.19393566503654824  0.8596458646334213  0.22450386228218375  1.0000
  H   H4        1.0  0.8060735636966144  0.14035940092824722  0.7755054012347672  1.0000
  H   H5        1.0  0.8134786152058098  0.6460425600164897  0.09948196277741056  1.0000
  H   H6        1.0  0.18651471190192132  0.3539548732293055  0.9005144425159699  1.0000
  H   H7        1.0  0.8996054717400597  0.4905031062663171  0.19910315215168586  1.0000
  H   H8        1.0  0.10039530143279762  0.5094955937560712  0.8008998724386203  1.0000
  H   H9        1.0  0.009302457157233013  0.8598237152972176  0.3966214714100289  1.0000
  H   H10       1.0  0.9906744023914911  0.14018012654096174  0.6033651887592413  1.0000
  H   H11       1.0  0.1007499533559084  0.7072860815618044  0.49669251947254617  1.0000
  H   H12       1.0  0.8992515585577151  0.29273256324695746  0.5033052192667498  1.0000
  H   H13       1.0  0.4308345541752416  0.6951343265614724  0.8696529069801853  1.0000
  H   H14       1.0  0.569167439335061  0.3048699615917769  0.13034400968255266  1.0000
  H   H15       1.0  0.4968695355309549  0.8311573375767907  0.06482169091610501  1.0000
  H   H16       1.0  0.5031408286465933  0.1688528941782508  0.9351673847992075  1.0000
  H   H17       1.0  0.828563197800328  0.0639863746666265  0.21815227701129197  1.0000
  H   H18       1.0  0.1714372796372033  0.9360114140501069  0.7818423952622168  1.0000
  H   H19       1.0  0.9968730673384486  0.08335103909876553  0.13271195043718353  1.0000
  H   H20       1.0  0.0031450490632993072  0.916652172303131  0.867292615662727  1.0000
  C   C1        1.0  0.2865552752380367  0.648798072325981  0.300573306762736  1.0000
  C   C2        1.0  0.7134332823853741  0.3511887716774993  0.6994215741493549  1.0000
  C   C3        1.0  0.13118603104742024  0.715395324009613  0.18656144094498467  1.0000
  C   C4        1.0  0.8688133005219782  0.2846066969491332  0.8134529003592804  1.0000
  C   C5        1.0  0.9403946079529677  0.632899274091756  0.2099851558281145  1.0000
  C   C6        1.0  0.05960231047009054  0.36710321813912133  0.790017736262655  1.0000
  C   C7        1.0  0.9705520990893818  0.7176728151464432  0.3857891686124617  1.0000
  C   C8        1.0  0.029434193770143162  0.28233363468469  0.614205014395523  1.0000
  C   C9        1.0  0.7912213886664502  0.6387702954688733  0.42106320670045955  1.0000
  C   C10       1.0  0.2087762508364222  0.3612307893889408  0.5789422124818201  1.0000
  C   C11       1.0  0.7105904705597655  0.8965436173908545  0.9762720797909239  1.0000
  C   C12       1.0  0.2894229924392562  0.10345837682501721  0.023727006622444025  1.0000
  N   N1        1.0  0.5218398294434649  0.8121609534690462  0.9607607562802227  1.0000
  N   N2        1.0  0.47817096739851195  0.18784116477716853  0.039233753988391185  1.0000
  N   N3        1.0  0.8518187291323686  0.030136664039915197  0.11703218058966772  1.0000
  N   N4        1.0  0.14819414295217112  0.9698640137548722  0.8829665720871133  1.0000
  O   O1        1.0  0.4139205295012687  0.7392476293098794  0.457468728540384  1.0000
  O   O2        1.0  0.5860829056124857  0.2607533379070048  0.5425168714083882  1.0000
  O   O3        1.0  0.2689065625672669  0.5006818610221089  0.2324083593373345  1.0000
  O   O4        1.0  0.7310757381399356  0.4993005542168447  0.7675918295295929  1.0000
  O   O5        1.0  0.7948491326943525  0.728266873836006  0.5470566339729217  1.0000
  O   O6        1.0  0.2051643308608391  0.27173562657008427  0.4529588233374469  1.0000
  O   O7        1.0  0.6524306108318499  0.48836279821875195  0.3262136864731531  1.0000
  O   O8        1.0  0.34756033909037853  0.5116419713833552  0.6737916061106617  1.0000
  O   O9        1.0  0.7516598826757177  0.8544258401718565  0.857710684537814  1.0000
  O   O10       1.0  0.24834838183451782  0.14557078089548273  0.1422870728302641  1.0000
