data_image0
_chemical_formula_structural       Zn8H84C60O32
_chemical_formula_sum              "Zn8 H84 C60 O32"
_cell_length_a       17.995475847286084
_cell_length_b       19.365320796694448
_cell_length_c       19.964304115443547
_cell_angle_alpha    63.092839276711715
_cell_angle_beta     62.15869163758182
_cell_angle_gamma    61.527957093610674

_space_group_name_H-M_alt    "P 1"
_space_group_IT_number       1

loop_
  _space_group_symop_operation_xyz
  'x, y, z'

loop_
  _atom_site_type_symbol
  _atom_site_label
  _atom_site_symmetry_multiplicity
  _atom_site_fract_x
  _atom_site_fract_y
  _atom_site_fract_z
  _atom_site_occupancy
  Zn  Zn1       1.0  0.942401929647595  0.9509997378707806  0.10575192648867932  1.0000
  Zn  Zn2       1.0  0.9455089565638773  0.10902597961879926  0.948024055978294  1.0000
  Zn  Zn3       1.0  0.9423541142141191  0.940774959214572  0.9503686701837778  1.0000
  Zn  Zn4       1.0  0.11336798081103446  0.9462456245452272  0.9533391293505743  1.0000
  Zn  Zn5       1.0  0.5282670446020107  0.5002449487878521  0.3956530574273885  1.0000
  Zn  Zn6       1.0  0.5092364165467488  0.35806776329177126  0.5639830101013671  1.0000
  Zn  Zn7       1.0  0.34287634723687443  0.5181400266395357  0.5366891095327231  1.0000
  Zn  Zn8       1.0  0.5042556192498895  0.5300753191421561  0.5509296692428336  1.0000
  H   H1        1.0  0.7261529262875683  0.19030525819619018  0.17406276508369692  1.0000
  H   H2        1.0  0.8038075729375367  0.24186205384685164  0.1259937766147841  1.0000
  H   H3        1.0  0.8562383977944351  0.0825861786456059  0.24937845399744413  1.0000
  H   H4        1.0  0.8572895967936843  0.17890638751569551  0.23500228738722495  1.0000
  H   H5        1.0  0.8078892384718374  0.0528423677508343  0.3931396460840871  1.0000
  H   H6        1.0  0.8101544443835424  0.14932048662671346  0.37840106738256174  1.0000
  H   H7        1.0  0.7128521456986763  0.12274656698942718  0.4428374345791467  1.0000
  H   H8        1.0  0.6667360744036657  0.2811801110052983  0.25037798738370043  1.0000
  H   H9        1.0  0.7230936451780823  0.2775042966098127  0.30473677878246963  1.0000
  H   H10       1.0  0.5868334996765157  0.2094358359437791  0.423858006291148  1.0000
  H   H11       1.0  0.5352385874575843  0.2887377141131893  0.3529387864609602  1.0000
  H   H12       1.0  0.6655814367645049  0.00021211718825499753  0.3453428212410329  1.0000
  H   H13       1.0  0.7757262427959406  0.992405867040695  0.32995935525930514  1.0000
  H   H14       1.0  0.68991757045287  0.004645104641490097  0.4203863475264527  1.0000
  H   H15       1.0  0.8495790314162833  0.7374814452424798  0.1689700430635597  1.0000
  H   H16       1.0  0.7616940414690421  0.800111969773063  0.12900168196262726  1.0000
  H   H17       1.0  0.7493039388931845  0.8508637360218927  0.2563880157599814  1.0000
  H   H18       1.0  0.664499177680973  0.8389269187088007  0.24584201704319497  1.0000
  H   H19       1.0  0.6841903128901663  0.7946560653735869  0.4021460909472268  1.0000
  H   H20       1.0  0.6039211578520067  0.7799875188831178  0.38683560819625756  1.0000
  H   H21       1.0  0.6707763717614835  0.6965444898108687  0.4443225077975087  1.0000
  H   H22       1.0  0.759504423020303  0.66207773177463  0.24177652149070641  1.0000
  H   H23       1.0  0.6483058026292313  0.6989059409544679  0.30077583849860895  1.0000
  H   H24       1.0  0.7508363393193137  0.5793786289730107  0.40857490501596766  1.0000
  H   H25       1.0  0.7841986393961876  0.5363423987290119  0.33304728787754806  1.0000
  H   H26       1.0  0.9344250785869479  0.6972802045329087  0.34297238182250567  1.0000
  H   H27       1.0  0.8400017010535028  0.7904089431152881  0.3356793023748848  1.0000
  H   H28       1.0  0.8292657987713526  0.7045952932417021  0.42084102142607055  1.0000
  H   H29       1.0  0.1972690003633275  0.8427485347013003  0.16856374317325162  1.0000
  H   H30       1.0  0.2490249251525968  0.7633704435053941  0.1242390972405332  1.0000
  H   H31       1.0  0.08103830882720336  0.7555571802514007  0.26477812646010085  1.0000
  H   H32       1.0  0.18054263476208376  0.6741517235334129  0.24068771301070774  1.0000
  H   H33       1.0  0.09215174533837005  0.6676301946459448  0.40142215297056777  1.0000
  H   H34       1.0  0.20455890502334037  0.6039829160484586  0.37045702461944785  1.0000
  H   H35       1.0  0.17350024301173053  0.6619954888466566  0.43264243469855773  1.0000
  H   H36       1.0  0.2968620423650067  0.7695761928078608  0.21844812550798315  1.0000
  H   H37       1.0  0.32160853731323163  0.6623638298425688  0.2600002988814226  1.0000
  H   H38       1.0  0.27264470718835543  0.7650767193254494  0.3636088584163631  1.0000
  H   H39       1.0  0.3782052095779918  0.7486271569435414  0.28872948376438506  1.0000
  H   H40       1.0  0.0008010354835619055  0.8974819642905912  0.3738633166938925  1.0000
  H   H41       1.0  0.9985542936234567  0.8054289985960137  0.37409247103389753  1.0000
  H   H42       1.0  0.03972774433797355  0.7999169637199371  0.44183946128335094  1.0000
  H   H43       1.0  0.8141924363751373  0.1240320216865811  0.7658541551262487  1.0000
  H   H44       1.0  0.9292072604169305  0.1044511020104011  0.7203829105061531  1.0000
  H   H45       1.0  0.9005369290477959  0.24590340668020616  0.7300414711569585  1.0000
  H   H46       1.0  0.8774785919560059  0.244439317471155  0.6541265293526023  1.0000
  H   H47       1.0  0.8054870004216497  0.39025477301320416  0.7176883832743924  1.0000
  H   H48       1.0  0.7906325403947816  0.3902794585826754  0.6358919501486611  1.0000
  H   H49       1.0  0.6963452995213899  0.4268607258550715  0.7127132492095996  1.0000
  H   H50       1.0  0.7081349330616791  0.21479752748992803  0.7349738365434887  1.0000
  H   H51       1.0  0.7287774831101431  0.2964457912029701  0.6488344170831795  1.0000
  H   H52       1.0  0.5889095606594593  0.37841090669473937  0.7626061587373201  1.0000
  H   H53       1.0  0.5635198213126031  0.28996834627307067  0.7877615566463945  1.0000
  H   H54       1.0  0.7269512095944324  0.2804289882220842  0.9353637163967009  1.0000
  H   H55       1.0  0.811816673723179  0.30941850621555744  0.8452223183422017  1.0000
  H   H56       1.0  0.6998672953000736  0.37685001063529455  0.8615006303669401  1.0000
  H   H57       1.0  0.2505215083416843  0.12730580025556287  0.816136110591138  1.0000
  H   H58       1.0  0.21945108669650182  0.13454188613049206  0.909842643321326  1.0000
  H   H59       1.0  0.08898736431356007  0.2722978716164803  0.8656608500603796  1.0000
  H   H60       1.0  0.19656066950345522  0.271823896064788  0.8423526606416658  1.0000
  H   H61       1.0  0.08330155780844717  0.40748365351247157  0.7641820069771229  1.0000
  H   H62       1.0  0.19870457493618693  0.3903602266084505  0.7330343329151601  1.0000
  H   H63       1.0  0.14842541321460356  0.41707558025014174  0.6627064869454244  1.0000
  H   H64       1.0  0.27394688621692626  0.18794795721852606  0.6963212300597306  1.0000
  H   H65       1.0  0.3142780723114527  0.24111131766454721  0.7172780277011341  1.0000
  H   H66       1.0  0.23774305269323298  0.32909251774442067  0.5799917491342228  1.0000
  H   H67       1.0  0.3457998797830442  0.25439065018375834  0.569504700515118  1.0000
  H   H68       1.0  0.970298320068359  0.3044963395466382  0.7351391061270007  1.0000
  H   H69       1.0  0.981966003406015  0.3383700185246567  0.7988748937533571  1.0000
  H   H70       1.0  0.0055989269433709184  0.3912756927717281  0.696162871173712  1.0000
  H   H71       1.0  0.2043148889170895  0.7474051711948914  0.8469771789168234  1.0000
  H   H72       1.0  0.25205706063122346  0.8219693216168623  0.7713473512109273  1.0000
  H   H73       1.0  0.08041186038446574  0.8439440904055501  0.7626166652987934  1.0000
  H   H74       1.0  0.18409139880744627  0.8395660123486053  0.6863430775442366  1.0000
  H   H75       1.0  0.06621411920785657  0.7728582219801509  0.6933731184076137  1.0000
  H   H76       1.0  0.17784998131524074  0.7560392428019398  0.6285484163121849  1.0000
  H   H77       1.0  0.1388093380511677  0.6715006407584668  0.6894474080380774  1.0000
  H   H78       1.0  0.2849745147641513  0.6629426173908045  0.7859507468294353  1.0000
  H   H79       1.0  0.30626288137570873  0.7012248642902957  0.6822984061002374  1.0000
  H   H80       1.0  0.23268405806952336  0.5594473571969444  0.7726826106458092  1.0000
  H   H81       1.0  0.34337116454975103  0.5392718422258155  0.7625253090909466  1.0000
  H   H82       1.0  0.9799948360343579  0.6877417542663977  0.9182300765317777  1.0000
  H   H83       1.0  0.9808906031246212  0.7756165779861846  0.8316642308717377  1.0000
  H   H84       1.0  0.9996517708078374  0.680373026607711  0.8246588152997771  1.0000
  C   C1        1.0  0.8515106920519743  0.12454431490186832  0.11003692269306935  1.0000
  C   C2        1.0  0.7960890838404141  0.18152896497460347  0.16193391620184613  1.0000
  C   C3        1.0  0.8161137235278844  0.14817490896383123  0.23989785808183925  1.0000
  C   C4        1.0  0.7334861208682639  0.1582634131200606  0.3155589690920095  1.0000
  C   C5        1.0  0.7676283257830648  0.11808428662152436  0.38682450466176727  1.0000
  C   C6        1.0  0.6800892330116356  0.2502468900468314  0.30711176707787036  1.0000
  C   C7        1.0  0.5906417121687612  0.26623966633736273  0.37517913724852986  1.0000
  C   C8        1.0  0.5757094823259196  0.32870843964462887  0.4097541779547882  1.0000
  C   C9        1.0  0.6768920230539949  0.11478953922533457  0.3217232251738621  1.0000
  C   C10       1.0  0.7038161277477288  0.022148760895880994  0.35610689319145905  1.0000
  C   C11       1.0  0.8463271847579676  0.8588768921818327  0.11157104229041458  1.0000
  C   C12       1.0  0.7963380827790804  0.7982214767139978  0.16300516670124668  1.0000
  C   C13       1.0  0.7343642476869404  0.809066023208885  0.24511232108861963  1.0000
  C   C14       1.0  0.7393802511812241  0.7283422948643261  0.3154738862215539  1.0000
  C   C15       1.0  0.6713168295729305  0.7508433412312951  0.3918365624685123  1.0000
  C   C16       1.0  0.7178351349748768  0.6693024889665933  0.3009783236383042  1.0000
  C   C17       1.0  0.7311678452537081  0.5826972936579721  0.36255677993727886  1.0000
  C   C18       1.0  0.6466996122717674  0.5616134571984543  0.40270930792407705  1.0000
  C   C19       1.0  0.8358860554304784  0.6904007607890106  0.3170376203813629  1.0000
  C   C20       1.0  0.8618614274307888  0.7228466750409979  0.35621824331524  1.0000
  C   C21       1.0  0.12098888733049766  0.8455702388762842  0.11552739043388277  1.0000
  C   C22       1.0  0.1856401019205337  0.7952599218097589  0.1621296710302219  1.0000
  C   C23       1.0  0.1542359890180265  0.7371355890582691  0.24421357321035947  1.0000
  C   C24       1.0  0.18393375840122422  0.7335392893856819  0.30813343697878537  1.0000
  C   C25       1.0  0.16173930715002885  0.6633091895957007  0.3828262813940952  1.0000
  C   C26       1.0  0.2844628967966544  0.7210388470349968  0.27442683996098777  1.0000
  C   C27       1.0  0.32326009285124974  0.7239703773468588  0.32736470392370615  1.0000
  C   C28       1.0  0.36142277411079243  0.6403423925744037  0.3804799292228653  1.0000
  C   C29       1.0  0.12945311791459344  0.8183808698332838  0.32239174642403173  1.0000
  C   C30       1.0  0.03597399443904688  0.8315538181423889  0.3811655849513399  1.0000
  C   C31       1.0  0.8838800035934753  0.10235292670628839  0.8382263994852434  1.0000
  C   C32       1.0  0.869099642901759  0.13995751024130948  0.7584122505166773  1.0000
  C   C33       1.0  0.8560676050502921  0.23144422608869764  0.7188275369228235  1.0000
  C   C34       1.0  0.7591604630061113  0.2921354363406579  0.7424223009824329  1.0000
  C   C35       1.0  0.7627915651013312  0.37996086198106827  0.7004121351422653  1.0000
  C   C36       1.0  0.7013163064270672  0.2798259869907511  0.714011137087084  1.0000
  C   C37       1.0  0.6007857784938437  0.33059376299139837  0.7401557263154712  1.0000
  C   C38       1.0  0.5656765990492121  0.37211776411687947  0.6710188826568382  1.0000
  C   C39       1.0  0.7237536766911391  0.2718354663754781  0.8334877202442357  1.0000
  C   C40       1.0  0.7421084378967037  0.31155108677656057  0.8715293375933583  1.0000
  C   C41       1.0  0.1277713312252899  0.110591211582836  0.8944700720484491  1.0000
  C   C42       1.0  0.19336083201395843  0.15499875515442338  0.8614095426392224  1.0000
  C   C43       1.0  0.1594995180637468  0.24873939461497935  0.8310347927350037  1.0000
  C   C44       1.0  0.17086639137187384  0.2889170048039915  0.7407857866152199  1.0000
  C   C45       1.0  0.1486724010226155  0.3813108027459862  0.7237915906292399  1.0000
  C   C46       1.0  0.2670349516993511  0.24910620154854254  0.6918963571912187  1.0000
  C   C47       1.0  0.2937086662797128  0.29770259485130157  0.6034537391328882  1.0000
  C   C48       1.0  0.3349440666787871  0.3584436488859524  0.5866597868774832  1.0000
  C   C49       1.0  0.10574771252606044  0.273675221858717  0.7233569181455691  1.0000
  C   C50       1.0  0.009635773792339798  0.330110604765018  0.7399132197725109  1.0000
  C   C51       1.0  0.12644541660925776  0.8653076631255273  0.8543921034768331  1.0000
  C   C52       1.0  0.18941416102349254  0.8086919368215248  0.8032658678924631  1.0000
  C   C53       1.0  0.15217352101053183  0.8084665231192928  0.748220730237307  1.0000
  C   C54       1.0  0.16668876305596567  0.7212567272807674  0.7515936613470089  1.0000
  C   C55       1.0  0.1351819927519314  0.7305934868290435  0.687541922663165  1.0000
  C   C56       1.0  0.26596619483191125  0.6689281131137007  0.7383651590677828  1.0000
  C   C57       1.0  0.28916820351869893  0.582177376824916  0.7368055928494  1.0000
  C   C58       1.0  0.32511465972950043  0.5746418105958639  0.6544291136313447  1.0000
  C   C59       1.0  0.11068477994775353  0.6840050390205049  0.835985870849065  1.0000
  C   C60       1.0  0.011531867219524337  0.7087096206700281  0.8540524703420118  1.0000
  O   O1        1.0  0.9824788255430407  0.9887894993902365  0.9900949227804428  1.0000
  O   O2        1.0  0.8647588606503049  0.15839601793761907  0.035621690190232834  1.0000
  O   O3        1.0  0.878153680932222  0.04758241288516979  0.14507252572255416  1.0000
  O   O4        1.0  0.5768541025358901  0.30216493268164146  0.48082436935932543  1.0000
  O   O5        1.0  0.5637352913434482  0.4030044910585247  0.3649783270605553  1.0000
  O   O6        1.0  0.6131748438562711  0.1540456035821194  0.29640055511816127  1.0000
  O   O7        1.0  0.8713455602142024  0.8726058670256903  0.03681228434241738  1.0000
  O   O8        1.0  0.8620630841322169  0.8888656910812712  0.14685119683490197  1.0000
  O   O9        1.0  0.5972642607214312  0.5756140613933738  0.4698108555624002  1.0000
  O   O10       1.0  0.6304273273495156  0.5336225051957797  0.3660702518659135  1.0000
  O   O11       1.0  0.8916382352211658  0.636634339159329  0.2848766564580598  1.0000
  O   O12       1.0  0.15579260241869972  0.8584103341528077  0.04075204561856796  1.0000
  O   O13       1.0  0.038361980633673916  0.8747874724210262  0.1532572997114699  1.0000
  O   O14       1.0  0.31322671865865476  0.6209124979400185  0.45296848191676276  1.0000
  O   O15       1.0  0.43895776707449846  0.5954422942251155  0.3480150478551068  1.0000
  O   O16       1.0  0.15959691316339802  0.8752465218000437  0.2849431179980185  1.0000
  O   O17       1.0  0.8803717006802004  0.029917461329880282  0.8755398035424377  1.0000
  O   O18       1.0  0.9013849639985171  0.14393213712112637  0.860231954426531  1.0000
  O   O19       1.0  0.5475640215885775  0.44981497367369616  0.6418329754940756  1.0000
  O   O20       1.0  0.5598793824850786  0.3253522998479283  0.6456750847675395  1.0000
  O   O21       1.0  0.682508101739032  0.22316384226272126  0.8739756142598407  1.0000
  O   O22       1.0  0.16210039353041591  0.032427719244580495  0.9170510858484774  1.0000
  O   O23       1.0  0.0461471822592827  0.15194148006055738  0.899211862282634  1.0000
  O   O24       1.0  0.30413005338537863  0.4331559975341576  0.5467317978475561  1.0000
  O   O25       1.0  0.3987894644115429  0.3298132145312279  0.6139474758700416  1.0000
  O   O26       1.0  0.13080415599420556  0.2173436646530575  0.6967447618190191  1.0000
  O   O27       1.0  0.1623737062116107  0.89885657907584  0.867659991608008  1.0000
  O   O28       1.0  0.04410898619296689  0.8723147312627972  0.8828412680648513  1.0000
  O   O29       1.0  0.2912664975807998  0.5397099809870909  0.6402803897287583  1.0000
  O   O30       1.0  0.3893161080025608  0.6020902179863086  0.6043197393292842  1.0000
  O   O31       1.0  0.14537828013663304  0.6373720682201308  0.8881951447611625  1.0000
  O   O32       1.0  0.4735394977979794  0.47585092983800337  0.5106815945968393  1.0000
