data_image0
_chemical_formula_structural       Zn2H46C52N2O16
_chemical_formula_sum              "Zn2 H46 C52 N2 O16"
_cell_length_a       11.008053689683814
_cell_length_b       16.57511554329214
_cell_length_c       17.804790213382912
_cell_angle_alpha    90.0014270422357
_cell_angle_beta     87.78313872325445
_cell_angle_gamma    89.99514424180371

_space_group_name_H-M_alt    "P 1"
_space_group_IT_number       1

loop_
  _space_group_symop_operation_xyz
  'x, y, z'

loop_
  _atom_site_type_symbol
  _atom_site_label
  _atom_site_symmetry_multiplicity
  _atom_site_fract_x
  _atom_site_fract_y
  _atom_site_fract_z
  _atom_site_occupancy
  Zn  Zn1       1.0  0.4999848791502687  0.5792682986388582  0.5000135269851356  1.0000
  Zn  Zn2       1.0  0.5000001428904427  0.4097877297317182  0.5000094744535488  1.0000
  H   H1        1.0  0.885923188122469  0.370750735332841  0.49876982604803294  1.0000
  H   H2        1.0  0.4931176417577988  0.6213352170200395  0.2712208032844928  1.0000
  H   H3        1.0  0.5240517932967705  0.37362700041850155  0.8844124495598396  1.0000
  H   H4        1.0  0.4762475625555922  0.3736497180647476  0.11560042687600712  1.0000
  H   H5        1.0  0.6201545349415201  0.8640337502707068  0.40088028654537317  1.0000
  H   H6        1.0  0.3798256040419831  0.8640439773950134  0.5991539649299966  1.0000
  H   H7        1.0  0.792798813853125  0.787011497035003  0.5227669503690606  1.0000
  H   H8        1.0  0.20710281444589643  0.7870190398646955  0.4773734898863112  1.0000
  H   H9        1.0  0.4961942965793895  0.6423919702916691  0.9277673991702926  1.0000
  H   H10       1.0  0.5042067146442194  0.642414036067784  0.0722782536280064  1.0000
  H   H11       1.0  0.6258653571305005  0.24285640382589696  0.7270426662451683  1.0000
  H   H12       1.0  0.11408612408131093  0.3707498532294196  0.5012443231047925  1.0000
  H   H13       1.0  0.6736845397188064  0.30404904398783117  0.8026880043388829  1.0000
  H   H14       1.0  0.7077105294284254  0.3494885218055757  0.6355002678805023  1.0000
  H   H15       1.0  0.7628166076077962  0.40411654573534866  0.7118638548392157  1.0000
  H   H16       1.0  0.8958990507400771  0.284705563389302  0.7455438880667418  1.0000
  H   H17       1.0  0.9288194183745234  0.3195726382387817  0.652709919087826  1.0000
  H   H18       1.0  0.8408104752835543  0.23087026690773624  0.6676000097114425  1.0000
  H   H19       1.0  0.3741005849224807  0.24290539257870591  0.2729441245133161  1.0000
  H   H20       1.0  0.3263361289416055  0.3041336194470148  0.19731069429230533  1.0000
  H   H21       1.0  0.2922729512598039  0.3495429807811164  0.3645061028280524  1.0000
  H   H22       1.0  0.2372708182919682  0.4042270163027267  0.288144426719903  1.0000
  H   H23       1.0  0.5383634508762399  0.13061008841429364  0.3798357788014927  1.0000
  H   H24       1.0  0.1040962109040464  0.2849072316639222  0.2543835907534486  1.0000
  H   H25       1.0  0.0711388370220334  0.3197687811206151  0.34722559962055755  1.0000
  H   H26       1.0  0.1590622971655051  0.23100692839033596  0.3323354569717624  1.0000
  H   H27       1.0  0.778812425118069  0.7673161943946666  0.3798092372753815  1.0000
  H   H28       1.0  0.676437604317627  0.77109540894795  0.3038327217409673  1.0000
  H   H29       1.0  0.7940478092628  0.6145108574337498  0.3546609390368047  1.0000
  H   H30       1.0  0.7239970030404095  0.6318271963129264  0.26848741027594514  1.0000
  H   H31       1.0  0.8961920831075221  0.7309252551197785  0.23153305284044728  1.0000
  H   H32       1.0  0.9498550789114619  0.6317517956503378  0.2476434040606534  1.0000
  H   H33       1.0  0.9655914702068815  0.7069428921597946  0.3174543417792607  1.0000
  H   H34       1.0  0.4615255256920536  0.13064889843717956  0.620196999857221  1.0000
  H   H35       1.0  0.22123836643197592  0.7673752495006738  0.6202618674891482  1.0000
  H   H36       1.0  0.3236506842285891  0.7710759222594419  0.6962147424239192  1.0000
  H   H37       1.0  0.20580709939712702  0.6145899532794414  0.6453458045580547  1.0000
  H   H38       1.0  0.27603274384537  0.6317886078458341  0.7314822141607706  1.0000
  H   H39       1.0  0.1040528739114777  0.730981781088957  0.768622058675902  1.0000
  H   H40       1.0  0.050176451543229916  0.6318869365538262  0.7524480709291339  1.0000
  H   H41       1.0  0.03448340652494861  0.7071671916466613  0.682724764383515  1.0000
  H   H42       1.0  0.5352072091071706  0.282900504229069  0.38491569562138755  1.0000
  H   H43       1.0  0.4647455126411942  0.2829367527609747  0.6150945241020197  1.0000
  H   H44       1.0  0.7750628478276269  0.650280389817823  0.5136140020101223  1.0000
  H   H45       1.0  0.22486403672505167  0.6502811611512627  0.48644993407859977  1.0000
  H   H46       1.0  0.50699196931226  0.6213244754010175  0.7288269419906186  1.0000
  C   C1        1.0  0.48868675359646846  0.4919752722507056  0.3561139882085911  1.0000
  C   C2        1.0  0.4890748634006102  0.5037133883061883  0.11362120698381521  1.0000
  C   C3        1.0  0.5041247644654093  0.5091151544879152  0.9655734765842041  1.0000
  C   C4        1.0  0.4963678003897059  0.5091249865939248  0.034455754980840005  1.0000
  C   C5        1.0  0.5682881028324119  0.8319777916048561  0.4445631709610467  1.0000
  C   C6        1.0  0.4316883797330605  0.8319785122216955  0.5554565264326286  1.0000
  C   C7        1.0  0.5639519990422316  0.7475620992542743  0.44617884957465753  1.0000
  C   C8        1.0  0.4360314591148439  0.7475615949381476  0.5538380746847268  1.0000
  C   C9        1.0  0.49997511666155253  0.8743739349351783  0.5000101882578107  1.0000
  C   C10       1.0  0.49997053556815274  0.959753732339685  0.5000149733603794  1.0000
  C   C11       1.0  0.49995920920132175  0.0332533997186673  0.5000214223012662  1.0000
  C   C12       1.0  0.5113252523477811  0.49196827308773544  0.6439140947771734  1.0000
  C   C13       1.0  0.7353550240436988  0.4921887157364396  0.49646881665631076  1.0000
  C   C14       1.0  0.26462518905970006  0.4921946453180012  0.5035542297746217  1.0000
  C   C15       1.0  0.5213542473507218  0.16215098201480063  0.43285268280003925  1.0000
  C   C16       1.0  0.47855883843716635  0.16216880231350217  0.5671740495326176  1.0000
  C   C17       1.0  0.5201898086768608  0.24584334585466652  0.4352228890379238  1.0000
  C   C18       1.0  0.4797512844490583  0.2458629042050332  0.5647902425799316  1.0000
  C   C19       1.0  0.4999547725626102  0.11857467550598949  0.5000172175171401  1.0000
  C   C20       1.0  0.8738569284067383  0.6501298931025872  0.5080844849412713  1.0000
  C   C21       1.0  0.1260728363988051  0.6501257775299579  0.49197209446116125  1.0000
  C   C22       1.0  0.9356840682463955  0.7223118179921499  0.5056666051056454  1.0000
  C   C23       1.0  0.5152544630561097  0.4921428940116284  0.7280553863638348  1.0000
  C   C24       1.0  0.06423279636999979  0.7223138878146994  0.4944066758612991  1.0000
  C   C25       1.0  0.06562568368504171  0.5744628018075344  0.49816913269186364  1.0000
  C   C26       1.0  0.9343261072575901  0.5744630028563193  0.5018716402984611  1.0000
  C   C27       1.0  0.8709886612848978  0.4988855510409208  0.5002969797199982  1.0000
  C   C28       1.0  0.1289914791272793  0.4988775056901318  0.499728997109365  1.0000
  C   C29       1.0  0.9364725212225268  0.4272483137918996  0.4996897593512132  1.0000
  C   C30       1.0  0.06353109601003841  0.42725359923000644  0.5003311293333041  1.0000
  C   C31       1.0  0.5069359523363773  0.5741587260893793  0.8415594532075801  1.0000
  C   C32       1.0  0.49332494272225363  0.5741788486862872  0.15847964420272123  1.0000
  C   C33       1.0  0.5094772281013746  0.567469054709065  0.7637864549885478  1.0000
  C   C34       1.0  0.48480294686365266  0.49215781342500964  0.2719718769769486  1.0000
  C   C35       1.0  0.49064740603154183  0.5674833939875157  0.2362504977688077  1.0000
  C   C36       1.0  0.6445155811189524  0.3053902772394892  0.7439401113760198  1.0000
  C   C37       1.0  0.7424921064518842  0.34272891428025076  0.692215928831871  1.0000
  C   C38       1.0  0.8583123109192459  0.2917083063159964  0.6895216199362724  1.0000
  C   C39       1.0  0.3555020269940102  0.3054523977791206  0.25605642003827  1.0000
  C   C40       1.0  0.2575334740920924  0.3428209325013754  0.3077738304497189  1.0000
  C   C41       1.0  0.14165808144274913  0.2918730190185456  0.31042047741605944  1.0000
  C   C42       1.0  0.716518690697086  0.7314760752347526  0.3460968469924737  1.0000
  C   C43       1.0  0.7819252334122951  0.6595993182326794  0.3103309645228549  1.0000
  C   C44       1.0  0.9049731447655561  0.6839333034303153  0.2746687956145096  1.0000
  C   C45       1.0  0.5225178902109634  0.4214877713265608  0.7722990756618489  1.0000
  C   C46       1.0  0.28352605385703816  0.731495204162215  0.6539467600125095  1.0000
  C   C47       1.0  0.21807133065497913  0.65963902547594  0.6897026703594804  1.0000
  C   C48       1.0  0.0951179949864169  0.6840540239227761  0.7254568025438888  1.0000
  C   C49       1.0  0.47758641387242323  0.4215029100658683  0.22771932271282225  1.0000
  C   C50       1.0  0.5204516591213064  0.4281285807717054  0.8503296962782799  1.0000
  C   C51       1.0  0.47978984550129417  0.4281494898085184  0.1496897054960229  1.0000
  C   C52       1.0  0.5112646989097841  0.5036960583350236  0.8864078914032874  1.0000
  N   N1        1.0  0.49999207704018295  0.7062665087290654  0.5000016239971075  1.0000
  N   N2        1.0  0.49998540366866007  0.2864630985741172  0.5000058204654466  1.0000
  O   O1        1.0  0.4555764021254305  0.5568204987370179  0.3892752869584371  1.0000
  O   O2        1.0  0.12057406747210561  0.7961608654395746  0.4879167001434014  1.0000
  O   O3        1.0  0.4988279826267856  0.6493955154736781  0.8731926824270178  1.0000
  O   O4        1.0  0.5014847501364272  0.6494128062374999  0.12685357326384417  1.0000
  O   O5        1.0  0.5282165125213539  0.34551854536649523  0.740497754964494  1.0000
  O   O6        1.0  0.4718034810420448  0.3455359390809036  0.25951069039214053  1.0000
  O   O7        1.0  0.6202664597064429  0.6996655759230352  0.395716139189247  1.0000
  O   O8        1.0  0.3797220823384181  0.6996723602070389  0.6042975819765246  1.0000
  O   O9        1.0  0.5443958978418096  0.5568072108362828  0.6107530007509612  1.0000
  O   O10       1.0  0.5269658604629798  0.4285314786215082  0.3877382400092771  1.0000
  O   O11       1.0  0.4730427737449007  0.42852003968166485  0.6122881974692618  1.0000
  O   O12       1.0  0.6777171691609497  0.5535921616897496  0.473193589087181  1.0000
  O   O13       1.0  0.3222535674925524  0.5535843104584686  0.5268166952639035  1.0000
  O   O14       1.0  0.6865344819493586  0.4250562561072471  0.514741217705776  1.0000
  O   O15       1.0  0.3134607800926759  0.4250468940163259  0.48527135764268087  1.0000
  O   O16       1.0  0.8793182479478294  0.7961573262737073  0.5121920586369271  1.0000
