data_image0
_chemical_formula_structural       Zn2H22C66N10O18
_chemical_formula_sum              "Zn2 H22 C66 N10 O18"
_cell_length_a       14.138824504328523
_cell_length_b       15.103394098780361
_cell_length_c       23.77281358604283
_cell_angle_alpha    91.89005322812189
_cell_angle_beta     89.84947071732688
_cell_angle_gamma    90.82978375200479

_space_group_name_H-M_alt    "P 1"
_space_group_IT_number       1

loop_
  _space_group_symop_operation_xyz
  'x, y, z'

loop_
  _atom_site_type_symbol
  _atom_site_label
  _atom_site_symmetry_multiplicity
  _atom_site_fract_x
  _atom_site_fract_y
  _atom_site_fract_z
  _atom_site_occupancy
  Zn  Zn1       1.0  0.6036893477888939  0.50340542941796  0.500161818877828  1.0000
  Zn  Zn2       1.0  0.39619718567361417  0.4965966092550219  0.4998071950488167  1.0000
  H   H1        1.0  0.5724429214839263  0.28281693815349496  0.03826697846620419  1.0000
  H   H2        1.0  0.4276622956487445  0.7172163613041532  0.9617117063879161  1.0000
  H   H3        1.0  0.5679383535461114  0.2940196369549426  0.9323114357376381  1.0000
  H   H4        1.0  0.43213568945844133  0.70599945542606  0.0676594100596404  1.0000
  H   H5        1.0  0.3429336235207002  0.5270997812051306  0.7857518369053051  1.0000
  H   H6        1.0  0.35222128920328544  0.47884126255532083  0.21321930814332993  1.0000
  H   H7        1.0  0.34388938392861235  0.5340249472369153  0.6822876231115841  1.0000
  H   H8        1.0  0.3495085250890284  0.47043830054763464  0.3166678916247391  1.0000
  H   H9        1.0  0.6504572914114989  0.5297275239690791  0.6832515234314158  1.0000
  H   H10       1.0  0.6560634686251136  0.46578756198216104  0.3177243849454355  1.0000
  H   H11       1.0  0.6478535051507421  0.5213348989315207  0.7866943136652649  1.0000
  H   H12       1.0  0.6571282566284183  0.4727382896272871  0.21426816334949447  1.0000
  H   H13       1.0  0.6221049801129723  0.7781525416460371  0.439762825189895  1.0000
  H   H14       1.0  0.37790035109932074  0.22185458256860363  0.5602503294447416  1.0000
  H   H15       1.0  0.6945585461839701  0.9195971941605026  0.4145568309833436  1.0000
  H   H16       1.0  0.3054822776734199  0.0804414031951097  0.5854645260543165  1.0000
  H   H17       1.0  0.6826525472787353  0.5474900707278394  0.5928781465237732  1.0000
  H   H18       1.0  0.3171990784567242  0.4526149843530973  0.4070825884572357  1.0000
  H   H19       1.0  0.6815299768838444  0.44996066785373756  0.40896486899604406  1.0000
  H   H20       1.0  0.31833170330876476  0.5498668611322587  0.5910425159347168  1.0000
  H   H21       1.0  0.32008539620007787  0.7906339100600877  0.5731771108462594  1.0000
  H   H22       1.0  0.6801301456993658  0.20944797967538878  0.4269917761837831  1.0000
  C   C1        1.0  0.4973572189366848  0.33381590485259954  0.5127029069476805  1.0000
  C   C2        1.0  0.5026050573770391  0.6662106813823883  0.48730482297803224  1.0000
  C   C3        1.0  0.40987387664949193  0.5274118841114444  0.7629584798072171  1.0000
  C   C4        1.0  0.4182809038372923  0.475527569407852  0.23648258891282833  1.0000
  C   C5        1.0  0.41090972302135503  0.5316396410610338  0.7046218858688531  1.0000
  C   C6        1.0  0.4172043437167759  0.47086159094405394  0.29474047509439316  1.0000
  C   C7        1.0  0.49735430870345  0.5319920015204005  0.6752794503706949  1.0000
  C   C8        1.0  0.5026022743667441  0.46801469565694737  0.3246849556603522  1.0000
  C   C9        1.0  0.5827873781637083  0.5292488173434577  0.7051991813859003  1.0000
  C   C10       1.0  0.5890739616483316  0.4682646043935108  0.2953743764114733  1.0000
  C   C11       1.0  0.5817652753057132  0.5245813800065946  0.7634565535105722  1.0000
  C   C12       1.0  0.5901692790215449  0.4725061851113779  0.2370405332019274  1.0000
  C   C13       1.0  0.4953379458219942  0.5230687058699033  0.7918925399535867  1.0000
  C   C14       1.0  0.5047460338373569  0.4769584321073453  0.20807888673940764  1.0000
  C   C15       1.0  0.4281724332619491  0.8091698201414133  0.5234627369678364  1.0000
  C   C16       1.0  0.5719524951486507  0.19087416037638863  0.4766330935194176  1.0000
  C   C17       1.0  0.4986351765752347  0.765213032641043  0.49103133157508677  1.0000
  C   C18       1.0  0.5014091058867579  0.23481299282467213  0.5090095238387561  1.0000
  C   C19       1.0  0.5677108046094191  0.8136848421360696  0.4635470053034964  1.0000
  C   C20       1.0  0.4323334658695688  0.1863365522415208  0.5364870209627667  1.0000
  C   C21       1.0  0.5691063656546689  0.9064923400440463  0.4662257976250856  1.0000
  C   C22       1.0  0.43097466446389643  0.0935313741930415  0.53383389565046  1.0000
  C   C23       1.0  0.49878496048181387  0.5311029736722404  0.6130129316679315  1.0000
  C   C24       1.0  0.5010966224099676  0.4688976971771553  0.38695059031189755  1.0000
  C   C25       1.0  0.49849847468208713  0.9526169419403631  0.4983834949169433  1.0000
  C   C26       1.0  0.5015939167194787  0.047417480400788706  0.5016780963624257  1.0000
  C   C27       1.0  0.42666611839150187  0.9035516270596349  0.526948636503441  1.0000
  C   C28       1.0  0.5734298357033724  0.09649209335410801  0.4731249271940284  1.0000
  C   C29       1.0  0.6405435983692059  0.9553655380923589  0.4385172368276642  1.0000
  C   C30       1.0  0.3595282747009065  0.04466604011432201  0.5615392694708772  1.0000
  C   C31       1.0  0.6439118423862098  0.04663658420904681  0.44158228457063586  1.0000
  C   C32       1.0  0.3561642865598316  0.9534003263470228  0.5584835848715812  1.0000
  C   C33       1.0  0.7996242632365168  0.5248630507239582  0.5477474019154656  1.0000
  C   C34       1.0  0.20024476699363455  0.4750274876051889  0.45225753276121583  1.0000
  C   C35       1.0  0.7987830314744855  0.47181201742034773  0.4536807520574228  1.0000
  C   C36       1.0  0.2010894288347487  0.5280547025467612  0.5463266151903879  1.0000
  C   C37       1.0  0.8990774548353359  0.4763136583309518  0.4501344911969553  1.0000
  C   C38       1.0  0.1008012341053757  0.5235233042556189  0.5498793852288699  1.0000
  C   C39       1.0  0.8999028226854193  0.5214815429659154  0.5506948255470262  1.0000
  C   C40       1.0  0.0999716215375983  0.478356038163277  0.4493220134688514  1.0000
  C   C41       1.0  0.9493966003645014  0.499406256040949  0.5002186721170432  1.0000
  C   C42       1.0  0.05048059961142572  0.5004147885232797  0.49979949361607356  1.0000
  C   C43       1.0  0.9496736489389548  0.46075405739865266  0.3981521613238143  1.0000
  C   C44       1.0  0.050210870555766014  0.539120729143704  0.6018553641906194  1.0000
  C   C45       1.0  0.9513848666624156  0.5381685514404992  0.602264748983984  1.0000
  C   C46       1.0  0.0485010729239974  0.4617088940174554  0.39774787940586254  1.0000
  C   C47       1.0  0.47890233365789925  0.5662836779864832  0.1263963593815163  1.0000
  C   C48       1.0  0.5212156226914147  0.4337497505383254  0.8735764245715174  1.0000
  C   C49       1.0  0.5307489968463984  0.4077680024287815  0.11540105765915598  1.0000
  C   C50       1.0  0.46939159713438283  0.5922649875088625  0.8845670639087615  1.0000
  C   C51       1.0  0.5283435465954724  0.4161592751426469  0.05346096741738648  1.0000
  C   C52       1.0  0.47179283501924374  0.5838822816970364  0.946511968837413  1.0000
  C   C53       1.0  0.5013284755638026  0.4968475747822937  0.029817546830002994  1.0000
  C   C54       1.0  0.498807200724933  0.5031939767939733  0.9701537075243107  1.0000
  C   C55       1.0  0.47679327830734747  0.5713715743557017  0.06424707551814629  1.0000
  C   C56       1.0  0.5233296491416725  0.42866587916247323  0.9357236853582831  1.0000
  C   C57       1.0  0.552048272771387  0.34397929117875486  0.018755542527045994  1.0000
  C   C58       1.0  0.4480611990227602  0.6560560385241772  0.9812214981706473  1.0000
  C   C59       1.0  0.549517641915955  0.3502022281007129  0.9599615059128153  1.0000
  C   C60       1.0  0.4505897004280542  0.6498304342301184  0.040012115135475285  1.0000
  C   C61       1.0  0.7208154494404013  0.08891210578841678  0.41390678007298476  1.0000
  C   C62       1.0  0.27922815296744125  0.9111198764817204  0.5861329412313694  1.0000
  C   C63       1.0  0.9022920557413414  0.45042542857165563  0.3453128324507588  1.0000
  C   C64       1.0  0.09759912901691342  0.5495169999238811  0.654690239162889  1.0000
  C   C65       1.0  0.9050563147168944  0.5486308514310425  0.655462721767705  1.0000
  C   C66       1.0  0.09483065128291204  0.451319478676247  0.34454809489071175  1.0000
  N   N1        1.0  0.5051312629334817  0.4839204363357796  0.14776121217864358  1.0000
  N   N2        1.0  0.4950171495475503  0.5161212419128348  0.8522066651194533  1.0000
  N   N3        1.0  0.7513754014912024  0.49885951288057856  0.5007006263245728  1.0000
  N   N4        1.0  0.24849647460432325  0.5010337068650871  0.4993001558041285  1.0000
  N   N5        1.0  0.7844474328016274  0.12432230535610958  0.3917207271496465  1.0000
  N   N6        1.0  0.21557720911261674  0.8757360099086287  0.6083002276838768  1.0000
  N   N7        1.0  0.8680755222232863  0.44474224861941997  0.30061463862793397  1.0000
  N   N8        1.0  0.13181453592190456  0.5552657568850848  0.6993860471959719  1.0000
  N   N9        1.0  0.8720104056721214  0.5553918668845127  0.7004812631945682  1.0000
  N   N10       1.0  0.1278783141082158  0.4446340115027141  0.29952064668704986  1.0000
  O   O1        1.0  0.5749258421744089  0.3768769953177724  0.516790600372687  1.0000
  O   O2        1.0  0.42497065514203314  0.6232037549371158  0.48341354113387774  1.0000
  O   O3        1.0  0.5850464713500259  0.6328659427635942  0.4878933085878785  1.0000
  O   O4        1.0  0.41488818653802184  0.36708904585447755  0.5118815689368077  1.0000
  O   O5        1.0  0.5778051785199309  0.5333645068860451  0.5868325119249959  1.0000
  O   O6        1.0  0.4220269790280683  0.46697225649901236  0.41309785317736913  1.0000
  O   O7        1.0  0.5792259452256943  0.4741830780450301  0.41416090965496716  1.0000
  O   O8        1.0  0.420618746914208  0.5254793267861473  0.5858480203872601  1.0000
  O   O9        1.0  0.45945449688274925  0.6289883290120244  0.1583410472756341  1.0000
  O   O10       1.0  0.5406103591046474  0.3710333217800255  0.8416323874936109  1.0000
  O   O11       1.0  0.5526245153447391  0.33934412209323034  0.13828683663992078  1.0000
  O   O12       1.0  0.4475005428832404  0.6606946793923003  0.8616814266589541  1.0000
  O   O13       1.0  0.7545646042989064  0.5550355944761662  0.5927780613496124  1.0000
  O   O14       1.0  0.24530747612491413  0.4449026826035195  0.40721568929396307  1.0000
  O   O15       1.0  0.752818001768297  0.4398459446614709  0.4092707898340819  1.0000
  O   O16       1.0  0.2470594660247301  0.5600327518515158  0.5907330413074589  1.0000
  O   O17       1.0  0.36756538190451243  0.7567953578262846  0.5515978397944393  1.0000
  O   O18       1.0  0.6326628054563413  0.24327206170976012  0.4485904946124818  1.0000
