data_image0
_chemical_formula_structural       Al2H24C42N6O24
_chemical_formula_sum              "Al2 H24 C42 N6 O24"
_cell_length_a       3.9701818562024958
_cell_length_b       27.89062029652275
_cell_length_c       27.890552091617405
_cell_angle_alpha    119.99962986850468
_cell_angle_beta     90.00107150841436
_cell_angle_gamma    89.9998228164204

_space_group_name_H-M_alt    "P 1"
_space_group_IT_number       1

loop_
  _space_group_symop_operation_xyz
  'x, y, z'

loop_
  _atom_site_type_symbol
  _atom_site_label
  _atom_site_symmetry_multiplicity
  _atom_site_fract_x
  _atom_site_fract_y
  _atom_site_fract_z
  _atom_site_occupancy
  Al  Al1       1.0  0.0054602039994975  0.5000006313479587  0.5000014522471119  1.0000
  Al  Al2       1.0  0.95044224762961  0.166664928972544  0.8333351638775851  1.0000
  H   H1        1.0  0.16005127792764992  0.18758015545978415  0.6981554988499425  1.0000
  H   H2        1.0  0.19291237439880862  0.24066185924578315  0.647172518507027  1.0000
  H   H3        1.0  0.7443634656901922  0.29301849753842657  0.5442558720364374  1.0000
  H   H4        1.0  0.1890942607639019  0.42162660382840755  0.6825121583807529  1.0000
  H   H5        1.0  0.16007826931355146  0.010570326544311148  0.8124197716044465  1.0000
  H   H6        1.0  0.1929225770591358  0.9065055272914645  0.7593354757823788  1.0000
  H   H7        1.0  0.7443943181650852  0.7512378278708737  0.7069823633371399  1.0000
  H   H8        1.0  0.1890964038262908  0.7608832625309885  0.5783704244037438  1.0000
  H   H9        1.0  0.16008162902463144  0.30184273404502443  0.9894257663149162  1.0000
  H   H10       1.0  0.1929204030862408  0.3528267898173993  0.0934917146451255  1.0000
  H   H11       1.0  0.7443802259100425  0.45574321408562213  0.24876483396528934  1.0000
  H   H12       1.0  0.18908158858857863  0.3174865801799171  0.2391148302449295  1.0000
  H   H13       1.0  0.8090706293885577  0.2884466191332605  0.8494983135258493  1.0000
  H   H14       1.0  0.7614086189275823  0.39261375648919006  0.7630138902742658  1.0000
  H   H15       1.0  0.8467595448806335  0.37831913468691863  0.4851874714409447  1.0000
  H   H16       1.0  0.1565919346095086  0.5029838299493575  0.6181501067949142  1.0000
  H   H17       1.0  0.809064089659408  0.061048123371570145  0.711555011780426  1.0000
  H   H18       1.0  0.7613706471544434  0.8703962359702543  0.6073812024336506  1.0000
  H   H19       1.0  0.8467810905391888  0.6068686626032616  0.62168429617941  1.0000
  H   H20       1.0  0.1565777888724611  0.6151653188562136  0.4970174070763563  1.0000
  H   H21       1.0  0.809098100624162  0.15050578969351847  0.9389562278039421  1.0000
  H   H22       1.0  0.7614017456314103  0.23698648738051986  0.12960828223796741  1.0000
  H   H23       1.0  0.8467772580764789  0.5148111386574427  0.3931347442657867  1.0000
  H   H24       1.0  0.15657551124187563  0.3818504107603643  0.3848337386203227  1.0000
  C   C1        1.0  0.5023994842440374  0.45944076594575717  0.4133724432144845  1.0000
  C   C2        1.0  0.5024053173234648  0.4539302565351591  0.5405602110827274  1.0000
  C   C3        1.0  0.5024092822573537  0.5866282746159612  0.5460719005232946  1.0000
  C   C4        1.0  0.44845718532434387  0.21398406550100177  0.7948606396842521  1.0000
  C   C5        1.0  0.44847567646044695  0.0808708277280914  0.786014531549057  1.0000
  C   C6        1.0  0.44848301426981163  0.20513908832877792  0.919129188373688  1.0000
  C   C7        1.0  0.4660158976995278  0.24611475196008561  0.7664959688325439  1.0000
  C   C8        1.0  0.2984587166183772  0.2263873269494212  0.7150165176598051  1.0000
  C   C9        1.0  0.3142039753285175  0.25533948859388295  0.6871269704928125  1.0000
  C   C10       1.0  0.4827086599215988  0.3068839183984266  0.7120440664747035  1.0000
  C   C11       1.0  0.6384074680869675  0.3285721519170366  0.7642460072191284  1.0000
  C   C12       1.0  0.6432556854580156  0.2968136126832872  0.7910725980482665  1.0000
  C   C13       1.0  0.6292033760640409  0.33387708870804994  0.5645462955545995  1.0000
  C   C14       1.0  0.4718081792834141  0.3546213163451171  0.6160601761346385  1.0000
  C   C15       1.0  0.3198793243821783  0.4070079048829526  0.6433397643676813  1.0000
  C   C16       1.0  0.3168069223274799  0.4388102787266418  0.6177170715892544  1.0000
  C   C17       1.0  0.4933297047767127  0.4204702622592079  0.5665762833348964  1.0000
  C   C18       1.0  0.6576586309826807  0.36762039485677883  0.5412988696368402  1.0000
  C   C19       1.0  0.4660099550473547  0.020376290880584076  0.7538834598872696  1.0000
  C   C20       1.0  0.2984769802894861  0.9886249765246758  0.7736093724866463  1.0000
  C   C21       1.0  0.3142079828494246  0.9317823615804882  0.7446565971185636  1.0000
  C   C22       1.0  0.4826959319263296  0.9051569799630172  0.6931115535574365  1.0000
  C   C23       1.0  0.6383898274218254  0.9356685708115862  0.6714239000585851  1.0000
  C   C24       1.0  0.6432525041550363  0.9942554791114516  0.7031837617868391  1.0000
  C   C25       1.0  0.6292283858238931  0.7306694899063967  0.6661235595903462  1.0000
  C   C26       1.0  0.4718182945594124  0.7614377811365856  0.6453774705308818  1.0000
  C   C27       1.0  0.3198876006253215  0.7363299802368884  0.5929910502317312  1.0000
  C   C28       1.0  0.31680820227693124  0.6789046724323098  0.5611896739867104  1.0000
  C   C29       1.0  0.49334070845408473  0.6461053245218834  0.5795316981958151  1.0000
  C   C30       1.0  0.6576788980741455  0.6736773633847335  0.6323810395730617  1.0000
  C   C31       1.0  0.4660274105253636  0.23350287415824042  0.9796236791243514  1.0000
  C   C32       1.0  0.2984776964139114  0.28498149688277147  0.011374186662912776  1.0000
  C   C33       1.0  0.31421589692180163  0.3128700342003298  0.06821422838382325  1.0000
  C   C34       1.0  0.482708924422127  0.28795539895801164  0.09484463140536549  1.0000
  C   C35       1.0  0.6384157311106833  0.23575337012945843  0.06433359441384572  1.0000
  C   C36       1.0  0.643273439192342  0.20892727197170297  0.005747771896707805  1.0000
  C   C37       1.0  0.6292157766091365  0.43545378909897176  0.26933161245808185  1.0000
  C   C38       1.0  0.4718008822267095  0.3839389323818239  0.23856223321005393  1.0000
  C   C39       1.0  0.31987778282967844  0.35666085147310156  0.2636680551841195  1.0000
  C   C40       1.0  0.3167957494919023  0.3822841235776409  0.3210953508166483  1.0000
  C   C41       1.0  0.493333330038169  0.43342550160664217  0.35389543815494307  1.0000
  C   C42       1.0  0.6576763763457407  0.45870068658583557  0.3263251065851947  1.0000
  N   N1        1.0  0.5124334096548254  0.34139325220368005  0.6894074162988344  1.0000
  N   N2        1.0  0.46230411375942293  0.31858322931468314  0.6376462754735216  1.0000
  N   N3        1.0  0.5124208966527847  0.8480121927192313  0.6586023941560556  1.0000
  N   N4        1.0  0.4623166793216314  0.8190604004656803  0.6814152462245175  1.0000
  N   N5        1.0  0.5124364851326318  0.3105915267933099  0.1519899662401727  1.0000
  N   N6        1.0  0.4623116466723403  0.36235412055201277  0.18093929099879352  1.0000
  O   O1        1.0  0.7375051659055317  0.5593446669438648  0.5547363239621461  1.0000
  O   O2        1.0  0.7374883431871241  0.49539008615509766  0.4406567965482608  1.0000
  O   O3        1.0  0.7374880162450026  0.44526677374453527  0.5046115006505474  1.0000
  O   O4        1.0  0.2755811893504117  0.5609448031521608  0.5079056902237582  1.0000
  O   O5        1.0  0.27557731870962954  0.4920965244514334  0.5530410027751316  1.0000
  O   O6        1.0  0.27557289297389087  0.4469602938286953  0.43905616520937946  1.0000
  O   O7        1.0  0.6768262918666466  0.16804036396647595  0.8911136498384664  1.0000
  O   O8        1.0  0.676811766302997  0.22306632938040125  0.8319605877985621  1.0000
  O   O9        1.0  0.6768043731875225  0.10888738031951575  0.7769329977275276  1.0000
  O   O10       1.0  0.2108423897945428  0.21702616906577513  0.8960026352458711  1.0000
  O   O11       1.0  0.21083368380393355  0.10399672395666916  0.8210285714405927  1.0000
  O   O12       1.0  0.21082031849669391  0.17897096485972938  0.7829731146235375  1.0000
  O   O13       1.0  0.8129737397386948  0.3177607942493026  0.8391207996271959  1.0000
  O   O14       1.0  0.7977714756199038  0.3777849398479917  0.788196859457024  1.0000
  O   O15       1.0  0.8316779863573205  0.3478085866785391  0.49354305899852585  1.0000
  O   O16       1.0  0.1540170469573496  0.48790079149775784  0.6435764555706528  1.0000
  O   O17       1.0  0.8129616723934066  0.021355285083764393  0.6822393226815039  1.0000
  O   O18       1.0  0.7977423121157372  0.9104081083764725  0.6222104863217126  1.0000
  O   O19       1.0  0.8317027465091513  0.6457356541638289  0.6521936759116684  1.0000
  O   O20       1.0  0.15400918320572293  0.6556745426216677  0.5120993215006919  1.0000
  O   O21       1.0  0.8129971234603559  0.1608818391393285  0.9786484853066924  1.0000
  O   O22       1.0  0.7977755761471884  0.2118038554685668  0.08959656667858701  1.0000
  O   O23       1.0  0.8317200881483231  0.5064527792632417  0.354266571992504  1.0000
  O   O24       1.0  0.1540014738564821  0.3564229936656814  0.34432382158613  1.0000
