data_image0
_chemical_formula_structural       Co4H40C48N16O16
_chemical_formula_sum              "Co4 H40 C48 N16 O16"
_cell_length_a       12.624394458950748
_cell_length_b       13.032339908254825
_cell_length_c       13.538016456492134
_cell_angle_alpha    76.94529159012217
_cell_angle_beta     62.19917246570243
_cell_angle_gamma    61.03192660795963

_space_group_name_H-M_alt    "P 1"
_space_group_IT_number       1

loop_
  _space_group_symop_operation_xyz
  'x, y, z'

loop_
  _atom_site_type_symbol
  _atom_site_label
  _atom_site_symmetry_multiplicity
  _atom_site_fract_x
  _atom_site_fract_y
  _atom_site_fract_z
  _atom_site_occupancy
  Co  Co1       1.0  0.4189095861066435  0.16232457641304168  0.7499077929578419  1.0000
  Co  Co2       1.0  0.8311068288804434  0.3377187172927875  0.7500809514855291  1.0000
  Co  Co3       1.0  0.5810899559286611  0.8376811318184211  0.25009206422061686  1.0000
  Co  Co4       1.0  0.1688912563712818  0.6622799745011961  0.24992291303451714  1.0000
  H   H1        1.0  0.10791553254572529  0.9575041264196994  0.9606131417973884  1.0000
  H   H2        1.0  0.9312120375488534  0.5428158770419316  0.960694129174776  1.0000
  H   H3        1.0  0.9346756642893728  0.9572731795849163  0.539194980100511  1.0000
  H   H4        1.0  0.5258332692359321  0.5425274750205132  0.5395505494119631  1.0000
  H   H5        1.0  0.8920931269916109  0.04248930313031  0.03938377853050669  1.0000
  H   H6        1.0  0.06879353236445952  0.45717579842873574  0.03931025598499357  1.0000
  H   H7        1.0  0.06532014500612598  0.0427325285296192  0.4608005625553631  1.0000
  H   H8        1.0  0.47416637206594464  0.45746858555055775  0.4604468594082719  1.0000
  H   H9        1.0  0.43857835304489623  0.8489068943370199  0.04413506335048826  1.0000
  H   H10       1.0  0.5170287407238662  0.6512800155483304  0.04418130609942481  1.0000
  H   H11       1.0  0.7125200801860673  0.8487254169356219  0.4557514192062725  1.0000
  H   H12       1.0  0.8314624273172843  0.6511659010319732  0.45579638153812857  1.0000
  H   H13       1.0  0.5614244500217752  0.15109179750476187  0.9558659258066842  1.0000
  H   H14       1.0  0.48297132320580255  0.34872218456205667  0.9558268729598182  1.0000
  H   H15       1.0  0.28747465187776566  0.15127152062824215  0.5442477329690548  1.0000
  H   H16       1.0  0.1685361277038169  0.3488362988779842  0.5441972948910916  1.0000
  H   H17       1.0  0.5086839061338324  0.9856726761132178  0.8972907459232148  1.0000
  H   H18       1.0  0.5939118285034227  0.5143881827309541  0.897390205936837  1.0000
  H   H19       1.0  0.5056926544888684  0.9855024450079456  0.6025683992658697  1.0000
  H   H20       1.0  0.8913974742731907  0.5146240108529127  0.6027538957369247  1.0000
  H   H21       1.0  0.4913147734029836  0.0143312779874165  0.10270904981738481  1.0000
  H   H22       1.0  0.4060860184335837  0.4856219107633136  0.10261004907621897  1.0000
  H   H23       1.0  0.4943033349915993  0.014505894328578997  0.3974309986816635  1.0000
  H   H24       1.0  0.10859712862539792  0.48537468084687413  0.39724718408631077  1.0000
  H   H25       1.0  0.2086692972208937  0.16171044638467438  0.7474428033822209  1.0000
  H   H26       1.0  0.043797092663915356  0.3384890386778707  0.7475344528486758  1.0000
  H   H27       1.0  0.6297511151204346  0.1615933094828677  0.7522717695561313  1.0000
  H   H28       1.0  0.6177120467978623  0.3384131633872087  0.752726017159418  1.0000
  H   H29       1.0  0.7913264742320935  0.8382908764999897  0.25255760368491315  1.0000
  H   H30       1.0  0.9562074466378687  0.6615096531629945  0.25246393590034444  1.0000
  H   H31       1.0  0.3702513083943234  0.8384071364721133  0.24772961742318236  1.0000
  H   H32       1.0  0.38228305028544457  0.661585528294033  0.2472727986399406  1.0000
  H   H33       1.0  0.08179959781056564  0.11831412212360701  0.8258677257157601  1.0000
  H   H34       1.0  0.0922064362215168  0.3817894014614538  0.8260407486618319  1.0000
  H   H35       1.0  0.7999634776459034  0.1183221964110288  0.6737984945386162  1.0000
  H   H36       1.0  0.5260117023016022  0.38160921210494775  0.6742250508536927  1.0000
  H   H37       1.0  0.9182060656145055  0.8816828156082367  0.17412953101302256  1.0000
  H   H38       1.0  0.9077938827443433  0.6182092903450639  0.17396091326389757  1.0000
  H   H39       1.0  0.2000339008769602  0.8816808806086412  0.3262012397682809  1.0000
  H   H40       1.0  0.4739847725859503  0.6183877255220196  0.32577682458889273  1.0000
  C   C1        1.0  0.24095560963826304  0.03958570265214689  0.8677682340595112  1.0000
  C   C2        1.0  0.8911222019866399  0.4606136011498805  0.8678646470047511  1.0000
  C   C3        1.0  0.7195424248125236  0.0394701890676572  0.6319953535591125  1.0000
  C   C4        1.0  0.6481098484043881  0.4605565420414024  0.6324022456305869  1.0000
  C   C5        1.0  0.759048063870729  0.9604112350258732  0.13222743141394497  1.0000
  C   C6        1.0  0.10887754929851222  0.5393877218424306  0.1321389425730359  1.0000
  C   C7        1.0  0.2804575113071339  0.9605302568200426  0.3680040443510391  1.0000
  C   C8        1.0  0.35188966043793374  0.5394412726335887  0.3675944289998512  1.0000
  C   C9        1.0  0.19576441160224767  0.963446717099842  0.9497999286350449  1.0000
  C   C10       1.0  0.8542255104823654  0.5368390103991345  0.9498277019523157  1.0000
  C   C11       1.0  0.8408478462704069  0.9632584671483355  0.5500320512283423  1.0000
  C   C12       1.0  0.6087543961222436  0.5366641684892529  0.550400706783506  1.0000
  C   C13       1.0  0.8042422023497477  0.0365458353650325  0.05019766445725086  1.0000
  C   C14       1.0  0.1457769308591352  0.4631579273572939  0.05017628541853715  1.0000
  C   C15       1.0  0.1591509001737991  0.0367428557210303  0.4499627572086594  1.0000
  C   C16       1.0  0.3912454810338558  0.4633354003351187  0.449598293308668  1.0000
  C   C17       1.0  0.2649670240343554  0.8947437889921018  0.013776091362245774  1.0000
  C   C18       1.0  0.7210152929582633  0.6055218567029428  0.013781791563857717  1.0000
  C   C19       1.0  0.8402962775956344  0.8945051513811606  0.48613113682638687  1.0000
  C   C20       1.0  0.6732596618875064  0.6053390061321196  0.48635679317435926  1.0000
  C   C21       1.0  0.7350377947189701  0.1052478864103605  0.9862237043202171  1.0000
  C   C22       1.0  0.2789855300752323  0.3944768351810595  0.9862255918511096  1.0000
  C   C23       1.0  0.15970334258519614  0.10549441735646069  0.5138610097646037  1.0000
  C   C24       1.0  0.32673653025420185  0.3946649479012335  0.5136410134970859  1.0000
  C   C25       1.0  0.2159417801172198  0.8138362702740735  0.09840555165094861  1.0000
  C   C26       1.0  0.6853860324946837  0.6864255450769221  0.0984267192712239  1.0000
  C   C27       1.0  0.9702880418810835  0.8134654126823547  0.4015870362502342  1.0000
  C   C28       1.0  0.6279606017019788  0.6862308459334444  0.40171339204396644  1.0000
  C   C29       1.0  0.7840640190617094  0.18615891338586724  0.9015951011053359  1.0000
  C   C30       1.0  0.3146220135755937  0.31356963872359966  0.9015823782415708  1.0000
  C   C31       1.0  0.029709653935832133  0.1865350331287914  0.5984092405788317  1.0000
  C   C32       1.0  0.3720324618679173  0.3137783703856698  0.5982840168385621  1.0000
  C   C33       1.0  0.3808531644644259  0.9013925426080432  0.9960290970790454  1.0000
  C   C34       1.0  0.6229016246956223  0.5987566679750101  0.9961305137906109  1.0000
  C   C35       1.0  0.7177423353796327  0.9012302567464943  0.5038394614486776  1.0000
  C   C36       1.0  0.7781140941985571  0.598687688825187  0.5039735597208904  1.0000
  C   C37       1.0  0.6191502652465103  0.09860439511127339  0.0039703622440542055  1.0000
  C   C38       1.0  0.37709775362622383  0.4012464091945205  0.0038787972847203157  1.0000
  C   C39       1.0  0.28225429198324287  0.098772820204978  0.49615568338090543  1.0000
  C   C40       1.0  0.22188471450350988  0.40131451113951744  0.4960243083718083  1.0000
  C   C41       1.0  0.4195814880042978  0.9773059556786375  0.9146936157615927  1.0000
  C   C42       1.0  0.66558322252412  0.5227725582354308  0.9148132889056626  1.0000
  C   C43       1.0  0.6031295372673214  0.9771824141545907  0.5851385248911783  1.0000
  C   C44       1.0  0.8113913676365244  0.5228518367496946  0.5853583931408154  1.0000
  C   C45       1.0  0.5804213150623668  0.022692736163151005  0.08530737339557959  1.0000
  C   C46       1.0  0.33441855981392615  0.47723315007259265  0.08518968935388932  1.0000
  C   C47       1.0  0.3968678379612313  0.022820662833069598  0.4148585475780068  1.0000
  C   C48       1.0  0.18860701708251074  0.4771477320343109  0.4146394135098674  1.0000
  N   N1        1.0  0.3522195486301314  0.04631799423540169  0.8520046934463823  1.0000
  N   N2        1.0  0.7956273082813254  0.4538119192601044  0.852147351850043  1.0000
  N   N3        1.0  0.6015368806859199  0.0462049980847681  0.647759048604776  1.0000
  N   N4        1.0  0.7503340301351071  0.45389638551170464  0.6481236072776468  1.0000
  N   N5        1.0  0.6477837486212581  0.9536806975878277  0.14799403168691333  1.0000
  N   N6        1.0  0.20437335787726596  0.5461920348623437  0.14785137330817116  1.0000
  N   N7        1.0  0.3984587583075197  0.9537980789038156  0.352240624272561  1.0000
  N   N8        1.0  0.24966091666190227  0.546107568472003  0.3518718739403681  1.0000
  N   N9        1.0  0.177572127801291  0.10379581745456075  0.801833947828392  1.0000
  N   N10       1.0  0.02047751263243917  0.39634877006107433  0.801984017517519  1.0000
  N   N11       1.0  0.7187568457694337  0.10373297045180861  0.6978500654612462  1.0000
  N   N12       1.0  0.5830401186470838  0.3963020874179434  0.6983591341672123  1.0000
  N   N13       1.0  0.8224296770130264  0.8962028743283027  0.19816358386341898  1.0000
  N   N14       1.0  0.9795214496502209  0.6036481676331747  0.19801984699422803  1.0000
  N   N15       1.0  0.28124383821590015  0.8962674754720865  0.30215126008851456  1.0000
  N   N16       1.0  0.41695920206643655  0.6036966043296559  0.30163907029314174  1.0000
  O   O1        1.0  0.29074093552154784  0.737821826578518  0.14677054378934426  1.0000
  O   O2        1.0  0.5621889999025032  0.7623754041178042  0.14686557391100744  1.0000
  O   O3        1.0  0.9715032210881702  0.7374993922181473  0.3531408609734186  1.0000
  O   O4        1.0  0.6754101479304848  0.7620264017041407  0.3531400698416719  1.0000
  O   O5        1.0  0.7092610818369282  0.2621724799972114  0.8532333821394928  1.0000
  O   O6        1.0  0.4378206499433335  0.23762153378571324  0.8531401890038381  1.0000
  O   O7        1.0  0.028492756320368004  0.26249754539536246  0.6468606166553386  1.0000
  O   O8        1.0  0.3245862800654462  0.23798106058251997  0.6468593281017122  1.0000
  O   O9        1.0  0.10475212281328086  0.8180120419070461  0.12229401080371363  1.0000
  O   O10       1.0  0.7727076863151082  0.6822701022636009  0.12226721612851314  1.0000
  O   O11       1.0  0.07731015101411039  0.8175629462057542  0.37784453067244067  1.0000
  O   O12       1.0  0.5445915107837536  0.6822279708249469  0.37805356882724783  1.0000
  O   O13       1.0  0.8952544387637646  0.1819796335585195  0.8777085081460073  1.0000
  O   O14       1.0  0.22730297302121721  0.317723327436255  0.8777392809678304  1.0000
  O   O15       1.0  0.9226886689260849  0.18243574549637032  0.6221506141363804  1.0000
  O   O16       1.0  0.455402982965353  0.31778036843919466  0.6219419738410823  1.0000
