data_image0
_chemical_formula_structural       Zn4H48C64S4N8O16
_chemical_formula_sum              "Zn4 H48 C64 S4 N8 O16"
_cell_length_a       8.576391459002583
_cell_length_b       13.415374602790898
_cell_length_c       15.10309759202178
_cell_angle_alpha    91.50646407515472
_cell_angle_beta     90.00003188863408
_cell_angle_gamma    90.00008213172893

_space_group_name_H-M_alt    "P 1"
_space_group_IT_number       1

loop_
  _space_group_symop_operation_xyz
  'x, y, z'

loop_
  _atom_site_type_symbol
  _atom_site_label
  _atom_site_symmetry_multiplicity
  _atom_site_fract_x
  _atom_site_fract_y
  _atom_site_fract_z
  _atom_site_occupancy
  Zn  Zn1       1.0  0.7731544888888918  0.24999949904542254  0.7499997637158984  1.0000
  Zn  Zn2       1.0  0.22684461994302296  0.749999978880048  0.24999991177750053  1.0000
  Zn  Zn3       1.0  0.7892107530725311  0.7500001859732134  0.7500001072147742  1.0000
  Zn  Zn4       1.0  0.2107895217517779  0.25000003762389866  0.24999958549534537  1.0000
  H   H1        1.0  0.6000863312272741  0.29764183527435506  0.5769328043081785  1.0000
  H   H2        1.0  0.6000875599962043  0.20235849402798317  0.9230673612238575  1.0000
  H   H3        1.0  0.39991277760665156  0.7023591342144255  0.4230675677392384  1.0000
  H   H4        1.0  0.3999127148284245  0.7976417297902499  0.07693299360722249  1.0000
  H   H5        1.0  0.9034665198812348  0.9736807728400123  0.7576475381153074  1.0000
  H   H6        1.0  0.9034660109019796  0.5263189592961837  0.7423526976876647  1.0000
  H   H7        1.0  0.0965337549422287  0.026318705085998293  0.24235213737829045  1.0000
  H   H8        1.0  0.09653309793110762  0.4736812645215025  0.2576476571432238  1.0000
  H   H9        1.0  0.17532198350359351  0.8161073234129218  0.5035315003900536  1.0000
  H   H10       1.0  0.17532440879227099  0.6838939713131678  0.9964692032522535  1.0000
  H   H11       1.0  0.8246771253303321  0.18389364607586597  0.49646887165736336  1.0000
  H   H12       1.0  0.8246758660323651  0.31610625250505814  0.003531151578833699  1.0000
  H   H13       1.0  0.3900619678833195  0.2181450531245588  0.4837193516597794  1.0000
  H   H14       1.0  0.3900641422633342  0.28185518866731474  0.0162812041226843  1.0000
  H   H15       1.0  0.6099383069398172  0.7818544245803453  0.5162796617128507  1.0000
  H   H16       1.0  0.6099361325607832  0.7181442897009305  0.9837197956128422  1.0000
  H   H17       1.0  0.40557758088741747  0.9690636937213243  0.6625669584745282  1.0000
  H   H18       1.0  0.4055795074122415  0.5309363227793467  0.837433126382784  1.0000
  H   H19       1.0  0.5944226939360463  0.030935784204693593  0.33743271701906963  1.0000
  H   H20       1.0  0.5944219334036163  0.46906390081830546  0.1625665663275342  1.0000
  H   H21       1.0  0.0651979983115396  0.08048455255830327  0.6620857932160291  1.0000
  H   H22       1.0  0.06519846450587609  0.4195145354838771  0.8379141744401792  1.0000
  H   H23       1.0  0.9348022765114054  0.9195141799177262  0.3379145271820079  1.0000
  H   H24       1.0  0.934801810318433  0.5804856881132352  0.16208551826994014  1.0000
  H   H25       1.0  0.8723281010623865  0.5058948565176917  0.573946696473655  1.0000
  H   H26       1.0  0.8723288208527364  0.9941048467684721  0.9260535288124814  1.0000
  H   H27       1.0  0.12767217376172368  0.49410462185055337  0.4260543032618714  1.0000
  H   H28       1.0  0.12767145397157256  0.005895376828640097  0.07394616389763801  1.0000
  H   H29       1.0  0.11771448699619211  0.34572121032880426  0.5228726730610731  1.0000
  H   H30       1.0  0.11771566094473228  0.1542779263716696  0.9771273123327548  1.0000
  H   H31       1.0  0.8822857878264331  0.6542775219261113  0.47712698521599617  1.0000
  H   H32       1.0  0.8822846138799038  0.8457222974465565  0.02287304249832541  1.0000
  H   H33       1.0  0.6456733680248803  0.5698062657242032  0.4951725211406384  1.0000
  H   H34       1.0  0.6456735317690416  0.930193334642311  0.0048280887787441945  1.0000
  H   H35       1.0  0.3543269067985833  0.4301932122018144  0.5048271543529523  1.0000
  H   H36       1.0  0.3543267430535835  0.0698053976126047  0.995171569498325  1.0000
  H   H37       1.0  0.41485253711291387  0.5245728821141284  0.6455963801904048  1.0000
  H   H38       1.0  0.4148531448183376  0.975426397750567  0.8544050148247209  1.0000
  H   H39       1.0  0.5851477377108766  0.4754265960330029  0.3544039574241538  1.0000
  H   H40       1.0  0.5851471300054528  0.0245730803965643  0.1455953227898448  1.0000
  H   H41       1.0  0.6116644420877221  0.05879061248044339  0.7452837241807091  1.0000
  H   H42       1.0  0.61166370940186  0.44120823620622207  0.7547164108284647  1.0000
  H   H43       1.0  0.3883358327372335  0.9412096115588966  0.254717292771339  1.0000
  H   H44       1.0  0.38833539942920936  0.5587904960481537  0.2452832474484126  1.0000
  H   H45       1.0  0.008511675638828802  0.7192371208623739  0.606260100887809  1.0000
  H   H46       1.0  0.008511885458965198  0.7807632731950349  0.8937392049552885  1.0000
  H   H47       1.0  0.991489765176709  0.28076310251416453  0.39373892970154156  1.0000
  H   H48       1.0  0.9914895553560542  0.21923620473151567  0.1062604705385084  1.0000
  C   C1        1.0  0.552799469626521  0.2246002110517153  0.5927030504061719  1.0000
  C   C2        1.0  0.5527996807072882  0.27540007421646345  0.9072964370335299  1.0000
  C   C3        1.0  0.4471996392077243  0.7754007586581861  0.40729798376219856  1.0000
  C   C4        1.0  0.44719942812546515  0.7246001493801087  0.09270325567639048  1.0000
  C   C5        1.0  0.9678886547156368  0.9404935217864075  0.701966072886961  1.0000
  C   C6        1.0  0.9678882747034477  0.5595062700387244  0.7980341846746839  1.0000
  C   C7        1.0  0.032110454115432695  0.05950521046796809  0.2980335853899163  1.0000
  C   C8        1.0  0.03210966813807659  0.44049395377842154  0.2019661701560125  1.0000
  C   C9        1.0  0.13650631655288953  0.9554986658393146  0.5762064651624428  1.0000
  C   C10       1.0  0.13650602613429189  0.5445040838216996  0.9237929355604848  1.0000
  C   C11       1.0  0.8634951242663503  0.04450454044273041  0.42379329641396885  1.0000
  C   C12       1.0  0.8634942486900172  0.45549613977541265  0.07620675714963451  1.0000
  C   C13       1.0  0.1195969842804487  0.8529978681738087  0.560157897358394  1.0000
  C   C14       1.0  0.11959344141515517  0.6470026294687938  0.9398434323661604  1.0000
  C   C15       1.0  0.8804079545110497  0.14700235608881224  0.4398437817154104  1.0000
  C   C16       1.0  0.8804033354351406  0.3529975945689259  0.0601575845852977  1.0000
  C   C17       1.0  0.6126328125044938  0.6260166600825344  0.6668592321460949  1.0000
  C   C18       1.0  0.6126331719402884  0.8739828025886567  0.8331409054275838  1.0000
  C   C19       1.0  0.38736746231981556  0.37398356351457795  0.3331404605640245  1.0000
  C   C20       1.0  0.38736710288350196  0.1260166755584677  0.1668594321869818  1.0000
  C   C21       1.0  0.4362084014332197  0.18033745326820136  0.5413211953777051  1.0000
  C   C22       1.0  0.4362099280904843  0.31966272419688113  0.9586789148044161  1.0000
  C   C23       1.0  0.5637930393814727  0.8196620244372425  0.4586778179951239  1.0000
  C   C24       1.0  0.5637891807411037  0.6803367535074755  0.041320098568022  1.0000
  C   C25       1.0  0.37793671566914366  0.08733603120406032  0.566553725729456  1.0000
  C   C26       1.0  0.3779384261064179  0.41266334659969317  0.9334463475548349  1.0000
  C   C27       1.0  0.6220647251455488  0.9126634465013762  0.4334452876433729  1.0000
  C   C28       1.0  0.6220630147094468  0.5873368769979591  0.0665533451554836  1.0000
  C   C29       1.0  0.4407428373496812  0.04269497348521159  0.6414544815303956  1.0000
  C   C30       1.0  0.4407445744756728  0.4573044625101517  0.8585456129667435  1.0000
  C   C31       1.0  0.5592586034650181  0.9573045042202323  0.35854453184243334  1.0000
  C   C32       1.0  0.5592568663385009  0.5426942697453043  0.1414540453105246  1.0000
  C   C33       1.0  0.05982734484040009  0.00020708543760150004  0.6490511450985751  1.0000
  C   C34       1.0  0.05982800378861699  0.4997934889708091  0.8509488551767603  1.0000
  C   C35       1.0  0.940172929984236  0.9997931383806316  0.3509492097325051  1.0000
  C   C36       1.0  0.9401722710356921  0.5002067346263032  0.149050837533359  1.0000
  C   C37       1.0  0.9687998544375345  0.4726397893490527  0.5362017133928276  1.0000
  C   C38       1.0  0.9687995647869697  0.027360135904672192  0.9637985594558601  1.0000
  C   C39       1.0  0.031200420386255704  0.5273596887980717  0.4637986242217309  1.0000
  C   C40       1.0  0.031199544045783498  0.9726400876919001  0.03620113325406041  1.0000
  C   C41       1.0  0.022536987162517605  0.38215684466467076  0.5592946889386211  1.0000
  C   C42       1.0  0.0225380437340092  0.11784294930117059  0.9407046194044285  1.0000
  C   C43       1.0  0.977462121670044  0.6178426337030345  0.4407063107967062  1.0000
  C   C44       1.0  0.9774622310899728  0.8821572740748281  0.05929441118472311  1.0000
  C   C45       1.0  0.5453549286449119  0.534683115829658  0.5263470527818157  1.0000
  C   C46       1.0  0.5453556305360009  0.9653162849491251  0.9736543863106631  1.0000
  C   C47       1.0  0.454645346179717  0.46531710798856807  0.47365330204926454  1.0000
  C   C48       1.0  0.45464464428694384  0.0346824475269116  0.026345934087373707  1.0000
  C   C49       1.0  0.5140539536700145  0.5581040113835485  0.6121153576314882  1.0000
  C   C50       1.0  0.514053353014475  0.9418946140589668  0.8878840673094146  1.0000
  C   C51       1.0  0.4859463211542945  0.4418962122135568  0.3878843350786312  1.0000
  C   C52       1.0  0.4859469218081429  0.0581041181959492  0.1121155909676617  1.0000
  C   C53       1.0  0.5573292452150441  0.09226380288490077  0.6881220901316353  1.0000
  C   C54       1.0  0.5573296594879906  0.4077357409092315  0.8118773816215139  1.0000
  C   C55       1.0  0.4426686976276528  0.9077371668244607  0.3118789440365433  1.0000
  C   C56       1.0  0.4426694493427519  0.5922629911240236  0.1881216145343956  1.0000
  C   C57       1.0  0.9493358370504553  0.32426057665054486  0.6299764320283787  1.0000
  C   C58       1.0  0.949338120154394  0.17573933034930886  0.8700231721257906  1.0000
  C   C59       1.0  0.050662105790550506  0.6757389017166204  0.3700245677067501  1.0000
  C   C60       1.0  0.050660988678359296  0.8242608932472562  0.1299765205841368  1.0000
  C   C61       1.0  0.026045951337955797  0.7991118581037994  0.6168336374211877  1.0000
  C   C62       1.0  0.026045971720456904  0.7008885521995082  0.8831656743440988  1.0000
  C   C63       1.0  0.9739554894775823  0.200888365272732  0.3831653931681629  1.0000
  C   C64       1.0  0.9739543031038519  0.29911167139760414  0.11683401836602059  1.0000
  S   S1        1.0  0.2393911668064774  0.027294735940799293  0.4987976009341537  1.0000
  S   S2        1.0  0.23939142230811683  0.4727053660284353  0.0012022418377810983  1.0000
  S   S3        1.0  0.7606091080169861  0.9727047419852183  0.5012020745594441  1.0000
  S   S4        1.0  0.7606088525161921  0.5272948575686768  0.9987974508723384  1.0000
  N   N1        1.0  0.9501712945200255  0.84170170792639  0.6860514747683624  1.0000
  N   N2        1.0  0.9501723175822222  0.65829806748377  0.8139487768094611  1.0000
  N   N3        1.0  0.049827814312728  0.1582985156701753  0.313948217941558  1.0000
  N   N4        1.0  0.04982795724208701  0.3417021561133424  0.1860509159006654  1.0000
  N   N5        1.0  0.6127255930036029  0.1818306558412459  0.6650230510306586  1.0000
  N   N6        1.0  0.6127258291055994  0.318168939500154  0.8349771015536122  1.0000
  N   N7        1.0  0.3872723498402665  0.818171059760324  0.3349786624750095  1.0000
  N   N8        1.0  0.3872732797254699  0.681829792754222  0.16502255672326532  1.0000
  O   O1        1.0  0.7251533652554514  0.6740283035370922  0.6302079676881931  1.0000
  O   O2        1.0  0.7251548189570868  0.8259720086168513  0.8697909008642171  1.0000
  O   O3        1.0  0.2748469095688577  0.3259719200600201  0.3697917250219263  1.0000
  O   O4        1.0  0.274846621858778  0.17402821498080098  0.1302087918461012  1.0000
  O   O5        1.0  0.8412379977748755  0.36722611345998496  0.6779131068582346  1.0000
  O   O6        1.0  0.8412389715869608  0.13277369360476848  0.8220871229065027  1.0000
  O   O7        1.0  0.1587622770489077  0.6327733646871391  0.32208723075633117  1.0000
  O   O8        1.0  0.1587613032365027  0.8672257843212491  0.1779125525870953  1.0000
  O   O9        1.0  0.586451688083926  0.6344575662051354  0.7494345721742663  1.0000
  O   O10       1.0  0.5864507816878515  0.8655411267579607  0.7505662014609342  1.0000
  O   O11       1.0  0.41354858673986433  0.3655419119419959  0.2505657654402995  1.0000
  O   O12       1.0  0.4135483271435376  0.13445760571752877  0.2494341189369038  1.0000
  O   O13       1.0  0.9881014624779636  0.2345297784557799  0.6398505712751259  1.0000
  O   O14       1.0  0.9881016050979741  0.26547091035271103  0.8601497253093058  1.0000
  O   O15       1.0  0.011898812347325802  0.7654704458046806  0.3601511077978898  1.0000
  O   O16       1.0  0.0118975037344526  0.7345293130227405  0.1398493052796468  1.0000
