data_image0
_chemical_formula_structural       Na8H36C24O34
_chemical_formula_sum              "Na8 H36 C24 O34"
_cell_length_a       8.717034256220094
_cell_length_b       10.622305070697784
_cell_length_c       10.9961
_cell_angle_alpha    68.4073518156721
_cell_angle_beta     79.67207446531357
_cell_angle_gamma    81.77458242968744

_space_group_name_H-M_alt    "P 1"
_space_group_IT_number       1

loop_
  _space_group_symop_operation_xyz
  'x, y, z'

loop_
  _atom_site_type_symbol
  _atom_site_label
  _atom_site_symmetry_multiplicity
  _atom_site_fract_x
  _atom_site_fract_y
  _atom_site_fract_z
  _atom_site_occupancy
  Na  Na1       1.0  0.0824201969181289  0.0798690522355301  0.6856003553393747  1.0000
  Na  Na2       1.0  0.9175782789461381  0.9201304992662855  0.31440011165665277  1.0000
  Na  Na3       1.0  0.3382690060062927  0.8634250471047125  0.8591416718412005  1.0000
  Na  Na4       1.0  0.6617304386866608  0.1365765365592395  0.14085793503695498  1.0000
  Na  Na5       1.0  0.6302073921899948  0.6785744990740595  0.08937510488264881  1.0000
  Na  Na6       1.0  0.36979215112467767  0.3214260685088206  0.9106248491912794  1.0000
  Na  Na7       1.0  0.7315376597933039  0.2004748265908631  0.797247238571323  1.0000
  Na  Na8       1.0  0.26846198214308  0.7995247249109525  0.20275306269837046  1.0000
  H   H1        1.0  0.3390242164440522  0.0608337895349322  0.9318884043220377  1.0000
  H   H2        1.0  0.66097532687062  0.9391667780479479  0.06811154975189035  1.0000
  H   H3        1.0  0.161209534710224  0.0502411444162334  0.9715285495903884  1.0000
  H   H4        1.0  0.8387900086044482  0.9497594231666469  0.0284714044835397  1.0000
  H   H5        1.0  0.6918059168133581  0.8913794694074113  0.8236968434240238  1.0000
  H   H6        1.0  0.3081960572672742  0.10862008209440428  0.1763022169796713  1.0000
  H   H7        1.0  0.617831769732554  0.7736288828490601  0.8041873578630286  1.0000
  H   H8        1.0  0.3821689396542355  0.2263716847338202  0.19581243048456534  1.0000
  H   H9        1.0  0.057634400667375  0.7980890023639304  0.7692716219867322  1.0000
  H   H10       1.0  0.9423664073411332  0.2019105491378923  0.2307276041432971  1.0000
  H   H11       1.0  0.011657011404743395  0.8018647596071986  0.9110222442177189  1.0000
  H   H12       1.0  0.9883437966037647  0.19813479189461697  0.0889769819123032  1.0000
  H   H13       1.0  0.5644327639174378  0.389257608349034  0.6149870182030668  1.0000
  H   H14       1.0  0.43556921016318734  0.6107419431527887  0.38501295161396576  1.0000
  H   H15       1.0  0.5755930093265532  0.0858629144470626  0.4635104027118117  1.0000
  H   H16       1.0  0.42440536791599476  0.9141376531358175  0.5364897170884503  1.0000
  H   H17       1.0  0.7117286916543577  0.2081249009408594  0.40545405046039923  1.0000
  H   H18       1.0  0.2882697842099091  0.7918746505609561  0.594547325948966  1.0000
  H   H19       1.0  0.3416102132912897  0.3900521837430659  0.5097398987846518  1.0000
  H   H20       1.0  0.6583904960954997  0.6099483838398143  0.49025988956294236  1.0000
  H   H21       1.0  0.33458687512369073  0.24565893553891976  0.4654958992214304  1.0000
  H   H22       1.0  0.6654139328848174  0.7543406159628958  0.5345042363219291  1.0000
  H   H23       1.0  0.9063156663493074  0.8719621602257988  0.583691441070023  1.0000
  H   H24       1.0  0.09368504303748183  0.1280384073570886  0.41630834727757093  1.0000
  H   H25       1.0  0.9157737935862897  0.3861219821776842  0.6144840985781312  1.0000
  H   H26       1.0  0.08422691580049961  0.6138785854052031  0.38551568976946265  1.0000
  H   H27       1.0  0.9189128352807288  0.5395868021439155  0.9070351382147448  1.0000
  H   H28       1.0  0.0810880713494981  0.4604117332768354  0.09296534452438719  1.0000
  H   H29       1.0  0.7859379767463182  0.6010322724809072  0.7917069307352306  1.0000
  H   H30       1.0  0.21406283126218995  0.3989672790209084  0.20829320480813604  1.0000
  H   H31       1.0  0.14957719233396458  0.48066832541941545  0.6102888086773675  1.0000
  H   H32       1.0  0.8504236156745435  0.5193312260824001  0.3897113268659922  1.0000
  H   H33       1.0  0.15760464599169677  0.5385727532395066  0.7420148334547249  1.0000
  H   H34       1.0  0.8423950945664131  0.4614257821812444  0.25798490559740367  1.0000
  H   H35       1.0  0.588536626822382  0.41018583007659964  0.12988144480827654  1.0000
  H   H36       1.0  0.4114629164922903  0.5898147375062877  0.8701185092656445  1.0000
  C   C1        1.0  0.7617595378555748  0.0444311928777452  0.5758390710239212  1.0000
  C   C2        1.0  0.23824010408081617  0.9555683586240705  0.42416213965911  1.0000
  C   C3        1.0  0.6438523811252709  0.1438913041572789  0.4959052720984047  1.0000
  C   C4        1.0  0.3561473594328319  0.8561072312634721  0.5040962857803991  1.0000
  C   C5        1.0  0.5362420852263696  0.2367031970184215  0.5596584463444502  1.0000
  C   C6        1.0  0.46375629201618557  0.7632973705644659  0.440341673455812  1.0000
  C   C7        1.0  0.4113959809648193  0.3176584399140836  0.46762680697737835  1.0000
  C   C8        1.0  0.5886047284219699  0.6823421276687966  0.5323729813702158  1.0000
  C   C9        1.0  0.48452361834178254  0.3950299648880602  0.32906727403099  1.0000
  C   C10       1.0  0.5154770910450068  0.6049706026948272  0.6709316049032594  1.0000
  C   C11       1.0  0.44329757948109727  0.1497632366408226  0.6926472339668521  1.0000
  C   C12       1.0  0.5566995330676151  0.8502383470231294  0.3073527043639714  1.0000
  C   C13       1.0  0.7218431499358645  0.4268851224052169  0.9524111868694048  1.0000
  C   C14       1.0  0.2781563933788078  0.5731154451776703  0.04758876720452321  1.0000
  C   C15       1.0  0.8466670386135535  0.5077326607078234  0.8533339141261322  1.0000
  C   C16       1.0  0.1533326033228377  0.49226689079399216  0.14666638714356137  1.0000
  C   C17       1.0  0.9480804106125903  0.438448124942461  0.7629326227310145  1.0000
  C   C18       1.0  0.051919132702082  0.5615524426404193  0.2370673313429137  1.0000
  C   C19       1.0  0.0810254469972804  0.5295357282336823  0.6771786337295324  1.0000
  C   C20       1.0  0.9189753610112279  0.4704638232681333  0.32282241122716465  1.0000
  C   C21       1.0  0.016220245509273905  0.6696726128500856  0.5959010755211978  1.0000
  C   C22       1.0  0.9837792978053981  0.3303279547327946  0.4040997879660606  1.0000
  C   C23       1.0  0.0253228803242536  0.2996920944954908  0.8509644054108205  1.0000
  C   C24       1.0  0.9746779276842547  0.7003074570063248  0.14903573013253885  1.0000
  O   O1        1.0  0.2612420287179447  0.9991186092171275  0.9953393534333727  1.0000
  O   O2        1.0  0.7387587792905635  0.0008809422846952  0.0046607821099868985  1.0000
  O   O3        1.0  0.6172830751019731  0.8215706358117103  0.8656500693797398  1.0000
  O   O4        1.0  0.38271636959097327  0.1784309478522346  0.1343486280850783  1.0000
  O   O5        1.0  0.0857144619246668  0.8392616232612724  0.8292219616281784  1.0000
  O   O6        1.0  0.9142850813900056  0.16073894432160776  0.17077708303241215  1.0000
  O   O7        1.0  0.8301886163742082  0.9562034092906586  0.5211071884988244  1.0000
  O   O8        1.0  0.169810926940464  0.0437971582922287  0.47889276557510385  1.0000
  O   O9        1.0  0.7928250382980127  0.0436965662666395  0.6826316959563953  1.0000
  O   O10       1.0  0.2071746036383715  0.9563029852351762  0.3173676958999606  1.0000
  O   O11       1.0  0.3591655017196303  0.0653898970373064  0.68621611895243  1.0000
  O   O12       1.0  0.6408290814414103  0.9346137187887747  0.3137834564395233  1.0000
  O   O13       1.0  0.4574952979328658  0.1690372783920537  0.7979507753925146  1.0000
  O   O14       1.0  0.5425055100756425  0.8309622731097618  0.2020493601508448  1.0000
  O   O15       1.0  0.5302667913779402  0.5107900486370482  0.30030059897738676  1.0000
  O   O16       1.0  0.4697339180088492  0.489210518945832  0.6996991893702071  1.0000
  O   O17       1.0  0.5014824120911499  0.3342337703525828  0.24307978098619992  1.0000
  O   O18       1.0  0.49851839591735836  0.6657657811492328  0.7569194451438291  1.0000
  O   O19       1.0  0.6315059084176583  0.3236431573960203  0.5777446179438356  1.0000
  O   O20       1.0  0.3684948995908499  0.6763563941058024  0.422255517599524  1.0000
  O   O21       1.0  0.6694745458760921  0.4741146025402188  0.04846150068367891  1.0000
  O   O22       1.0  0.33052616351069736  0.5258859650426686  0.9515373782505702  1.0000
  O   O23       1.0  0.6708000180412129  0.32581960304055  0.9463246693886943  1.0000
  O   O24       1.0  0.32919952527345236  0.6741809645423302  0.05367528468523368  1.0000
  O   O25       1.0  0.0989380225829706  0.3041628511882735  0.9391045108629255  1.0000
  O   O26       1.0  0.9010615207317015  0.6958377163946068  0.060895443211002466  1.0000
  O   O27       1.0  0.0067660564534933005  0.1917954621204672  0.8331858783392079  1.0000
  O   O28       1.0  0.9932359176271389  0.8082040893813556  0.16681318206448748  1.0000
  O   O29       1.0  0.9855686008312858  0.6961191708500394  0.48126099910860626  1.0000
  O   O30       1.0  0.0144322071772223  0.3038803806517762  0.5187382270214229  1.0000
  O   O31       1.0  0.9890671601816338  0.7602694489861718  0.6526931333291511  1.0000
  O   O32       1.0  0.0109336478268744  0.2397301025156509  0.34730700221421523  1.0000
  O   O33       1.0  0.8498831166081686  0.42054782479318925  0.6821591340358637  1.0000
  O   O34       1.0  0.1501165253282153  0.5794517267086263  0.31784116723382977  1.0000
