data_image0
_chemical_formula_structural       Cu3H34C36N2O14
_chemical_formula_sum              "Cu3 H34 C36 N2 O14"
_cell_length_a       9.575888530485546
_cell_length_b       10.199390589063182
_cell_length_c       10.549350551530965
_cell_angle_alpha    110.27500981088036
_cell_angle_beta     97.23230752774936
_cell_angle_gamma    110.19259619156158

_space_group_name_H-M_alt    "P 1"
_space_group_IT_number       1

loop_
  _space_group_symop_operation_xyz
  'x, y, z'

loop_
  _atom_site_type_symbol
  _atom_site_label
  _atom_site_symmetry_multiplicity
  _atom_site_fract_x
  _atom_site_fract_y
  _atom_site_fract_z
  _atom_site_occupancy
  Cu  Cu1       1.0  8.491762052516922e-06  0.9999963357237006  4.931983916289231e-06  1.0000
  Cu  Cu2       1.0  0.004777258928768881  0.632873908753311  0.5783606422408097  1.0000
  Cu  Cu3       1.0  0.9952264876021315  0.36713493397539304  0.42164601699240467  1.0000
  H   H1        1.0  0.2113196792293337  0.8885545491299638  0.9247130490015322  1.0000
  H   H2        1.0  0.7886684399031553  0.1114368545282858  0.07529339781100218  1.0000
  H   H3        1.0  0.6559205459252057  0.2816693931990102  0.12433570044007063  1.0000
  H   H4        1.0  0.34406742874760005  0.7183244722327516  0.8756659335312093  1.0000
  H   H5        1.0  0.09707455041280612  0.3399577449214064  0.11574293529078256  1.0000
  H   H6        1.0  0.9029221810681705  0.660043944971413  0.8842699512171845  1.0000
  H   H7        1.0  0.21097708682720653  0.6262426751159255  0.20761072547548307  1.0000
  H   H8        1.0  0.7890176341543126  0.3737610954966755  0.7923695294593427  1.0000
  H   H9        1.0  0.3339857573582351  0.9099265918540882  0.2984923360579187  1.0000
  H   H10       1.0  0.6660116548455763  0.0900780851011049  0.7014970384336365  1.0000
  H   H11       1.0  0.6211555034717408  0.047178421581691096  0.3389388151642692  1.0000
  H   H12       1.0  0.37884744451617536  0.9528234614987168  0.66106714530094  1.0000
  H   H13       1.0  0.7775062113752541  0.8971611345951233  0.2881961995485155  1.0000
  H   H14       1.0  0.22249062583350104  0.10283393602916387  0.7118038683292979  1.0000
  H   H15       1.0  0.6535233914716586  0.6123430323327527  0.20200093763686058  1.0000
  H   H16       1.0  0.3464660287846044  0.3876500731585182  0.7979863328146165  1.0000
  H   H17       1.0  0.925761095861475  0.49641747729045704  0.0614503173358898  1.0000
  H   H18       1.0  0.07421063563632663  0.5035752569398967  0.9385503108910099  1.0000
  H   H19       1.0  0.8149900530270315  0.5932744758366225  0.1370226291619615  1.0000
  H   H20       1.0  0.18502287680453838  0.4067606409858301  0.8630010541273234  1.0000
  H   H21       1.0  0.013580094610915661  0.7013570294889675  0.1694201304013561  1.0000
  H   H22       1.0  0.9864333939241736  0.29864050737439385  0.8305748266237813  1.0000
  H   H23       1.0  0.8874376733499291  0.8489580276518326  0.5007740212564612  1.0000
  H   H24       1.0  0.1125908381053051  0.15107322973545928  0.49922129476753696  1.0000
  H   H25       1.0  0.9112061291135164  0.044688026302530715  0.5874626262459158  1.0000
  H   H26       1.0  0.0887950238370863  0.9553260538715733  0.4125646502941861  1.0000
  H   H27       1.0  0.7407308980116128  0.8919357401413421  0.570810894869865  1.0000
  H   H28       1.0  0.25928735682260406  0.1080477272103835  0.4291879573006624  1.0000
  H   H29       1.0  0.5190056907223948  0.8058611965332503  0.6563536138304541  1.0000
  H   H30       1.0  0.4810037511809142  0.19414676850122697  0.3436428369384643  1.0000
  H   H31       1.0  0.4966018951544698  0.6933408870674429  0.4758406604368587  1.0000
  H   H32       1.0  0.5033918335882177  0.3066648728609636  0.5241516010281586  1.0000
  H   H33       1.0  0.5185131574348603  0.6181131637800021  0.6008993500040558  1.0000
  H   H34       1.0  0.48149259858883653  0.38189376585679474  0.39909258185541313  1.0000
  C   C1        1.0  0.3372601236936675  0.9378795671551003  0.9605543226497344  1.0000
  C   C2        1.0  0.6627295677222734  0.0621129043621167  0.03945550544635519  1.0000
  C   C3        1.0  0.42399918131836495  0.0980903100929353  0.030153613930671962  1.0000
  C   C4        1.0  0.5759903995328557  0.9019045439510265  0.9698542210297416  1.0000
  C   C5        1.0  0.5872673314066433  0.15827482468110787  0.06885160258080698  1.0000
  C   C6        1.0  0.4127222494445705  0.8417200293628612  0.9311562323795995  1.0000
  C   C7        1.0  0.3503965105811133  0.2030649034632148  0.06280699645905226  1.0000
  C   C8        1.0  0.6495961131521285  0.7969323240389485  0.9371991419517443  1.0000
  C   C9        1.0  0.20249616932815692  0.3253148300715838  0.1049347450585785  1.0000
  C   C10       1.0  0.7974958364226269  0.6746858010308258  0.8950744635797745  1.0000
  C   C11       1.0  0.35087620771899003  0.43427626440766437  0.1418203191201783  1.0000
  C   C12       1.0  0.6491187481087763  0.5657248331067352  0.8581722678707704  1.0000
  C   C13       1.0  0.4237136839407896  0.6001244888526927  0.19623984364308455  1.0000
  C   C14       1.0  0.5762770874694781  0.3998744495510494  0.8037468218205958  1.0000
  C   C15       1.0  0.33485042200354803  0.6858922676904555  0.22506266908617786  1.0000
  C   C16       1.0  0.6651450073470003  0.31410788799720996  0.7749220348359599  1.0000
  C   C17       1.0  0.4050280340348423  0.8455835601057659  0.2772231270393917  1.0000
  C   C18       1.0  0.5949690240907586  0.1544175313629381  0.7227696576755988  1.0000
  C   C19       1.0  0.5646143875582582  0.922348660460642  0.3001087759088176  1.0000
  C   C20       1.0  0.4353858918040104  0.07765226344599091  0.6998899448033808  1.0000
  C   C21       1.0  0.6533804125179188  0.8375904694779591  0.2712078439091456  1.0000
  C   C22       1.0  0.3466153283486336  0.1624047098315202  0.7287883654992129  1.0000
  C   C23       1.0  0.5842296821835476  0.6781926180998781  0.22109778650251846  1.0000
  C   C24       1.0  0.4157627922530552  0.32180283443400987  0.7788887273011935  1.0000
  C   C25       1.0  0.9281385190238538  0.5889087195898383  0.1545920709371344  1.0000
  C   C26       1.0  0.07186313650753821  0.41110010276899095  0.8454153304739049  1.0000
  C   C27       1.0  0.9585888989136679  0.5587580115908537  0.2836743713701111  1.0000
  C   C28       1.0  0.041414879093721914  0.44124863352020344  0.7163277016857633  1.0000
  C   C29       1.0  0.866073378711434  0.9297870748672424  0.5870576218760702  1.0000
  C   C30       1.0  0.1339388286654426  0.0702173748589487  0.4129397159967638  1.0000
  C   C31       1.0  0.9373492980609017  0.9370738080757166  0.7262901320223064  1.0000
  C   C32       1.0  0.062665900174494  0.0629051938625054  0.27370207091307447  1.0000
  C   C33       1.0  0.46842543299784717  0.6892799918651633  0.5725221251073335  1.0000
  C   C34       1.0  0.5315762515915523  0.310724514505111  0.42747328424345443  1.0000
  C   C35       1.0  0.2941192641853263  0.6173783460745312  0.5429309978207825  1.0000
  C   C36       1.0  0.70588370398076  0.3826213658038142  0.45706943656523435  1.0000
  N   N1        1.0  0.20407427117422833  0.18137596544161028  0.054920460998765484  1.0000
  N   N2        1.0  0.7959199272609397  0.8186244482904144  0.9450964645785047  1.0000
  O   O1        1.0  0.44418412171716437  0.3560590634220446  0.11494923988756504  1.0000
  O   O2        1.0  0.5558057091089097  0.6439374954777933  0.8850393198497739  1.0000
  O   O3        1.0  0.9747516387536806  0.6635246576331113  0.401135840970788  1.0000
  O   O4        1.0  0.02525102273335021  0.33648426736520787  0.5988678996948309  1.0000
  O   O5        1.0  0.9643004615046993  0.4300480256155765  0.26377226420328265  1.0000
  O   O6        1.0  0.03570172404107547  0.5699597228385825  0.7362319536482358  1.0000
  O   O7        1.0  0.006034418474307277  0.8536272852548025  0.7356994698678746  1.0000
  O   O8        1.0  0.9939546699315189  0.14632999185291598  0.26427953996637393  1.0000
  O   O9        1.0  0.9227123557237462  0.03394338624453751  0.8360530247416093  1.0000
  O   O10       1.0  0.07732123559624433  0.9660387535579318  0.1639515471525356  1.0000
  O   O11       1.0  0.2309771979051831  0.7062326477770924  0.5986797935943357  1.0000
  O   O12       1.0  0.7690246537405373  0.2937693439885152  0.4013223084014184  1.0000
  O   O13       1.0  0.22449751567547346  0.4737916899947976  0.46387740443608283  1.0000
  O   O14       1.0  0.7755048797014227  0.5262113198214422  0.5361298597849282  1.0000
