data_image0
_chemical_formula_structural       Al2H24C33O12
_chemical_formula_sum              "Al2 H24 C33 O12"
_cell_length_a       3.9844299175218
_cell_length_b       17.227131938922877
_cell_length_c       17.22768634499504
_cell_angle_alpha    119.99915524045475
_cell_angle_beta     89.997317883177
_cell_angle_gamma    90.00262079656632

_space_group_name_H-M_alt    "P 1"
_space_group_IT_number       1

loop_
  _space_group_symop_operation_xyz
  'x, y, z'

loop_
  _atom_site_type_symbol
  _atom_site_label
  _atom_site_symmetry_multiplicity
  _atom_site_fract_x
  _atom_site_fract_y
  _atom_site_fract_z
  _atom_site_occupancy
  Al  Al1       1.0  0.9815095010998717  0.5000046323203124  0.4999980557989902  1.0000
  Al  Al2       1.0  0.017226846418715507  0.166666282706835  0.8333430758263705  1.0000
  H   H1        1.0  0.5670884735850734  0.41654306924716183  0.8334308014898469  1.0000
  H   H2        1.0  0.2327855951684583  0.11532793086301041  0.5294148417073572  1.0000
  H   H3        1.0  0.6794138291904658  0.10807856154774238  0.5251557358665977  1.0000
  H   H4        1.0  0.6979622163001196  0.19499385922760845  0.4438217740637073  1.0000
  H   H5        1.0  0.2513290213767121  0.200473619269964  0.44574895623959077  1.0000
  H   H6        1.0  0.567005101587462  0.9169149155670909  0.5834750701755383  1.0000
  H   H7        1.0  0.23273186170420956  0.9140600905608027  0.8846630538497708  1.0000
  H   H8        1.0  0.6793574403963234  0.9170617363284352  0.8919248954827739  1.0000
  H   H9        1.0  0.697977357380779  0.7488137363222551  0.805015023877019  1.0000
  H   H10       1.0  0.251298847804776  0.7452529981347099  0.7995172409563196  1.0000
  H   H11       1.0  0.5669772414258248  0.16655510646553046  0.08310336879507224  1.0000
  H   H12       1.0  0.2328452967945083  0.4706031760624897  0.08591752131318492  1.0000
  H   H13       1.0  0.6795046235726545  0.47485259767480414  0.08292201177776097  1.0000
  H   H14       1.0  0.6980983740960625  0.5561852287320195  0.2511693840140696  1.0000
  H   H15       1.0  0.2514592941345696  0.554264425636582  0.25471658924391966  1.0000
  H   H16       1.0  0.2671941924211154  0.5578565636389075  0.7860377183372551  1.0000
  H   H17       1.0  0.645404197780138  0.5605281176329131  0.7340215074386978  1.0000
  H   H18       1.0  0.6565296457584822  0.5540349749594711  0.8341340819711223  1.0000
  H   H19       1.0  0.2671637464850606  0.7281972973975712  0.44215279501482757  1.0000
  H   H20       1.0  0.6454036078490829  0.673519907062719  0.4394809942188546  1.0000
  H   H21       1.0  0.6565264194490082  0.7801236646624475  0.44598365581648397  1.0000
  H   H22       1.0  0.2671011208508104  0.21394715268982623  0.27179854265333603  1.0000
  H   H23       1.0  0.6452953808910352  0.26595867367998255  0.3264852063167042  1.0000
  H   H24       1.0  0.656489797050497  0.16585619021657289  0.2198838870710276  1.0000
  C   C1        1.0  0.4846371764522814  0.4302664065812324  0.36226257968101555  1.0000
  C   C2        1.0  0.48461958857865983  0.4319979346464181  0.5697279135420744  1.0000
  C   C3        1.0  0.48464443922268424  0.6377382073189681  0.5680026557988996  1.0000
  C   C4        1.0  0.5171209301791748  0.236607709963444  0.7657382392665896  1.0000
  C   C5        1.0  0.517026036023445  0.029126351189980117  0.7634046721568455  1.0000
  C   C6        1.0  0.5170780826825236  0.23426813033395907  0.970877923220421  1.0000
  C   C7        1.0  0.5134537369926592  0.2864660122499744  0.7160410274520359  1.0000
  C   C8        1.0  0.4985542436852198  0.3844005305342152  0.621682547927641  1.0000
  C   C9        1.0  0.48515602172589206  0.24344957581703847  0.6232330709895635  1.0000
  C   C10       1.0  0.518988918204343  0.43007389985297817  0.7164088061832034  1.0000
  C   C11       1.0  0.49105546534627115  0.29123542376704853  0.5776908115086173  1.0000
  C   C12       1.0  0.5379587278403052  0.380472526743006  0.7606970780673025  1.0000
  C   C13       1.0  0.46512274262767767  0.15304894778389422  0.5378507942208587  1.0000
  C   C14       1.0  0.47503654376492216  0.20729994356418774  0.48597614317709786  1.0000
  C   C15       1.0  0.5134552092376623  0.9295735384897271  0.7135334254072135  1.0000
  C   C16       1.0  0.4984906816417691  0.7372847765051844  0.6156027842662866  1.0000
  C   C17       1.0  0.4851310299645775  0.8797728194448169  0.7565583237015333  1.0000
  C   C18       1.0  0.5189745286034579  0.7863449478692177  0.569937880818536  1.0000
  C   C19       1.0  0.4909820703266377  0.7864413979414879  0.708762649044374  1.0000
  C   C20       1.0  0.5379073379841443  0.8802323763502502  0.6195306985485021  1.0000
  C   C21       1.0  0.46510977971156114  0.8847813617414177  0.8469472821803169  1.0000
  C   C22       1.0  0.47501852482652396  0.7786539698344372  0.792694578526451  1.0000
  C   C23       1.0  0.51344126121009  0.2839634779547495  0.07043328418281194  1.0000
  C   C24       1.0  0.49855358606811245  0.3783222546430096  0.2627178842722415  1.0000
  C   C25       1.0  0.4851551488616081  0.3767688535917203  0.12021189199089129  1.0000
  C   C26       1.0  0.5189236323043502  0.2835963465622626  0.2136570069739463  1.0000
  C   C27       1.0  0.49106591335805655  0.42231914045729735  0.2135369821172973  1.0000
  C   C28       1.0  0.537907444047704  0.2393075427433402  0.11978213288949749  1.0000
  C   C29       1.0  0.4652236826655097  0.46215896733269807  0.11519094595686147  1.0000
  C   C30       1.0  0.47511931481474085  0.5140318066276849  0.22131720565457166  1.0000
  C   C31       1.0  0.5241935305349585  0.5309410563758804  0.7703619075980158  1.0000
  C   C32       1.0  0.5241650808054816  0.7394427839029308  0.4690756545738427  1.0000
  C   C33       1.0  0.5241040970269281  0.2296325287860982  0.2605591484380697  1.0000
  O   O1        1.0  0.7131281809284927  0.5974499056528162  0.5865111955281749  1.0000
  O   O2        1.0  0.7131307703119276  0.4890619259413357  0.40254913268392317  1.0000
  O   O3        1.0  0.7130979039576671  0.4134899158961787  0.5109276317265667  1.0000
  O   O4        1.0  0.24376847472876054  0.5990902565168597  0.5132233611676399  1.0000
  O   O5        1.0  0.24372554983035852  0.486768962363108  0.5858420056446505  1.0000
  O   O6        1.0  0.24375172852327148  0.41413408900043447  0.400915161120409  1.0000
  O   O7        1.0  0.7519909396421554  0.1776219561417708  0.9313430982153083  1.0000
  O   O8        1.0  0.7520088535869008  0.2537136680032009  0.8223857254926872  1.0000
  O   O9        1.0  0.7519584436098229  0.06865772560880869  0.7462913741258675  1.0000
  O   O10       1.0  0.2830677224947635  0.25238496227061824  0.9317641694640459  1.0000
  O   O11       1.0  0.2829932138408466  0.06823092615830019  0.8206274000924979  1.0000
  O   O12       1.0  0.28307622090549955  0.17938401130431467  0.7476247815131744  1.0000
