data_image0
_chemical_formula_structural       Zn8H32C80Br16N8O26
_chemical_formula_sum              "Zn8 H32 C80 Br16 N8 O26"
_cell_length_a       23.864737252320246
_cell_length_b       23.866204685757957
_cell_length_c       23.86505356675005
_cell_angle_alpha    66.93002798602824
_cell_angle_beta     72.30245972808837
_cell_angle_gamma    107.70413302657433

_space_group_name_H-M_alt    "P 1"
_space_group_IT_number       1

loop_
  _space_group_symop_operation_xyz
  'x, y, z'

loop_
  _atom_site_type_symbol
  _atom_site_label
  _atom_site_symmetry_multiplicity
  _atom_site_fract_x
  _atom_site_fract_y
  _atom_site_fract_z
  _atom_site_occupancy
  Zn  Zn1       1.0  0.05693088174729872  0.9571002256658121  0.48728059804602697  1.0000
  Zn  Zn2       1.0  0.056930382999070196  0.099830506089873  0.4557966586041077  1.0000
  Zn  Zn3       1.0  0.9430666018013837  0.9873030908869185  0.4570852404471069  1.0000
  Zn  Zn4       1.0  0.9430791631454977  0.955787519642996  0.5998219547515689  1.0000
  Zn  Zn5       1.0  0.9443880279298043  0.5442159485986979  0.012714787112748926  1.0000
  Zn  Zn6       1.0  0.05564398284320755  0.5127349270288803  0.044207617130325554  1.0000
  Zn  Zn7       1.0  0.944390944795444  0.40017963835855874  0.042903823884714  1.0000
  Zn  Zn8       1.0  0.05561144118960468  0.5428977787720727  0.9001733426486067  1.0000
  H   H1        1.0  0.9229446161459834  0.6509335047182108  0.11339790797953232  1.0000
  H   H2        1.0  0.07708698795629224  0.6134026117352605  0.15096448085812855  1.0000
  H   H3        1.0  0.9246296642680392  0.8896523413845474  0.3478202636365777  1.0000
  H   H4        1.0  0.07517214902787822  0.8476975775352004  0.3898234091029451  1.0000
  H   H5        1.0  0.07708373270010337  0.4636496452983608  0.7720156428248686  1.0000
  H   H6        1.0  0.9229469150290796  0.2719686324213627  0.9636858088145459  1.0000
  H   H7        1.0  0.07520115012864895  0.22749563185992375  0.5350164395566708  1.0000
  H   H8        1.0  0.9246472284594845  0.034991422246470616  0.7275128261973476  1.0000
  H   H9        1.0  0.7374990965619047  0.4649969839860617  0.1103025221754308  1.0000
  H   H10       1.0  0.737499826732609  0.27250687013177094  0.15217755040484354  1.0000
  H   H11       1.0  0.26434635207343854  0.22801675284989642  0.3490177882280249  1.0000
  H   H12       1.0  0.26434628765281326  0.03633496381318929  0.3865815639241603  1.0000
  H   H13       1.0  0.2625242831552158  0.6102283641215822  0.9649833143382053  1.0000
  H   H14       1.0  0.26249457220912126  0.6521727726929998  0.7724829511110938  1.0000
  H   H15       1.0  0.7356652610311016  0.849042916982427  0.7280033306300167  1.0000
  H   H16       1.0  0.7356504910555299  0.8865929857734188  0.5363181635947073  1.0000
  H   H17       1.0  0.9158649019063247  0.8413762929672405  0.7497575846247669  1.0000
  H   H18       1.0  0.9090041485929772  0.8027895420155746  0.8310799657592723  1.0000
  H   H19       1.0  0.09112006257478814  0.6655982675556303  0.7502386182564464  1.0000
  H   H20       1.0  0.13387743253693454  0.7400696182390976  0.6689289780415706  1.0000
  H   H21       1.0  0.9088843890865801  0.6586558688429847  0.9255024592515044  1.0000
  H   H22       1.0  0.8661454782438934  0.6972293114130678  0.8937702116651497  1.0000
  H   H23       1.0  0.08419100043096245  0.8344115347611378  0.574487951818277  1.0000
  H   H24       1.0  0.09102319313593914  0.7599376762504164  0.6062108798871149  1.0000
  H   H25       1.0  0.915841342300034  0.07451897118775035  0.3343712234256912  1.0000
  H   H26       1.0  0.9090077133026356  0.10624655354986609  0.2598962206152463  1.0000
  H   H27       1.0  0.09115248168284752  0.42552878875888217  0.158661813429326  1.0000
  H   H28       1.0  0.1338916739460742  0.3938019402159583  0.1972449893040604  1.0000
  H   H29       1.0  0.9089119537490263  0.2502762349628825  0.16557537570013625  1.0000
  H   H30       1.0  0.8661686272575649  0.1689616966581936  0.2400363664327117  1.0000
  H   H31       1.0  0.08417252358319866  0.2497636701833059  0.34137312981683715  1.0000
  H   H32       1.0  0.09102128870274842  0.33107809325873216  0.3028133776995148  1.0000
  C   C1        1.0  0.18181727694172878  0.09091597306114353  0.4090724677575537  1.0000
  C   C2        1.0  4.359962751685222e-06  0.1395126582574804  0.3604952886116877  1.0000
  C   C3        1.0  0.9999486302083586  0.9099013303623953  0.4099368851486459  1.0000
  C   C4        1.0  0.8181848178179153  0.9090812121143019  0.5908950154366648  1.0000
  C   C5        1.0  4.1419271909054054e-05  0.860530651966535  0.639489958825763  1.0000
  C   C6        1.0  0.9999703732761206  0.09008382188344685  0.5900867813016288  1.0000
  C   C7        1.0  2.8368360425132773e-05  0.590908025345179  0.09091320834263432  1.0000
  C   C8        1.0  4.164754736990013e-05  0.3605344384180142  0.13948911270942685  1.0000
  C   C9        1.0  0.8198356388563254  0.4099125569426364  0.09008237099278205  1.0000
  C   C10       1.0  3.5854322745564163e-06  0.4090736915067694  0.9091134655436619  1.0000
  C   C11       1.0  0.9999957446218841  0.6394960092436223  0.8604998329428498  1.0000
  C   C12       1.0  0.18017501385811124  0.5900729518370298  0.9099097421042898  1.0000
  C   C13       1.0  4.024531902746528e-05  0.8045857198612794  0.6954364938618482  1.0000
  C   C14       1.0  1.0410374812798937e-05  0.6954526758949982  0.8045539438614852  1.0000
  C   C15       1.0  0.9567966860708809  0.7773699484764907  0.7667779723218113  1.0000
  C   C16       1.0  0.04414962018799425  0.7235643108404233  0.733214230692255  1.0000
  C   C17       1.0  0.955884885668297  0.722669558215749  0.8205705109950401  1.0000
  C   C18       1.0  0.04326327123107631  0.7764670458321421  0.6794197845963693  1.0000
  C   C19       1.0  1.5920218657975254e-05  0.1954617335668445  0.3045481648655084  1.0000
  C   C20       1.0  3.479589646819347e-05  0.3045827868164893  0.19543498545215948  1.0000
  C   C21       1.0  0.9567882341660691  0.17945025942565712  0.2764254499903346  1.0000
  C   C22       1.0  0.04416166416243072  0.32059499163658967  0.22265956246677376  1.0000
  C   C23       1.0  0.955897319062018  0.23324553864270564  0.22353391571534337  1.0000
  C   C24       1.0  0.04325372643875624  0.26679920558073894  0.277350224984154  1.0000
  C   C25       1.0  1.3625372574223608e-05  0.6284697410736372  0.12848169026255363  1.0000
  C   C26       1.0  0.9565300401187998  0.6565939560751988  0.1354286093569711  1.0000
  C   C27       1.0  0.9568515119169448  0.6915054328634798  0.170197001388672  1.0000
  C   C28       1.0  5.944724677787436e-07  0.6997142367830805  0.19973605495264474  1.0000
  C   C29       1.0  0.04316405127678277  0.6701922554578134  0.1915334756026965  1.0000
  C   C30       1.0  0.043494309743756905  0.6354234896833192  0.15662031961314674  1.0000
  C   C31       1.0  0.9999833712167856  0.7350760419082365  0.2351198241222719  1.0000
  C   C32       1.0  0.9999521926931438  0.7657615084771482  0.2658485003862551  1.0000
  C   C33       1.0  0.9999222077685773  0.8011103841841848  0.30124681044126317  1.0000
  C   C34       1.0  0.9574601677354831  0.8315337140878895  0.3085488569263292  1.0000
  C   C35       1.0  0.9574158679400778  0.8666324537545975  0.3431197401618463  1.0000
  C   C36       1.0  0.9999149184653859  0.8723340015492342  0.3724577899413006  1.0000
  C   C37       1.0  0.042393172524292415  0.8429793138293251  0.3667914679624146  1.0000
  C   C38       1.0  0.0423605418029639  0.808400220663856  0.33170328432185403  1.0000
  C   C39       1.0  8.646688442648426e-06  0.37151270547530413  0.871548887861941  1.0000
  C   C40       1.0  0.043488116889697934  0.40803675076733736  0.7999414783330463  1.0000
  C   C41       1.0  0.04315929628359787  0.3729430084299708  0.7653526568864564  1.0000
  C   C42       1.0  0.9999960187496199  0.3002666603081748  0.8002868511344872  1.0000
  C   C43       1.0  0.956847522158455  0.265321659265048  0.8729699624631306  1.0000
  C   C44       1.0  0.9565285734580444  0.2999018692997596  0.90807166168387  1.0000
  C   C45       1.0  0.9999811351935933  0.26489845993288724  0.7649151946823523  1.0000
  C   C46       1.0  0.999953559287775  0.23418031387809887  0.734218447607823  1.0000
  C   C47       1.0  0.9999359911763435  0.19881045641835032  0.6988407147041469  1.0000
  C   C48       1.0  0.0423854263692363  0.23396136227724185  0.6259516664415231  1.0000
  C   C49       1.0  0.04242026493065513  0.19942571996311645  0.5908200628099962  1.0000
  C   C50       1.0  0.9999372967131775  0.1275974707305567  0.6276156309638451  1.0000
  C   C51       1.0  0.9574355626479162  0.09079491806826916  0.6994427885797094  1.0000
  C   C52       1.0  0.9574698646555078  0.12592433747303025  0.7339815426171655  1.0000
  C   C53       1.0  0.7447972317436322  0.3723996378754747  0.12759643019266792  1.0000
  C   C54       1.0  0.7097629528668818  0.40918945621494635  0.13331261650612433  1.0000
  C   C55       1.0  0.6400944550383513  0.37406085960095237  0.16840802299260818  1.0000
  C   C56       1.0  0.6023537775430371  0.3011770435433264  0.19881800330035307  1.0000
  C   C57       1.0  0.6400957066763909  0.26603866665339393  0.19147812324563773  1.0000
  C   C58       1.0  0.7097651476056369  0.300573206487897  0.15690834236077225  1.0000
  C   C59       1.0  0.5316113030517541  0.2658057491310116  0.23419198966541893  1.0000
  C   C60       1.0  0.4701938442998427  0.23509269656504736  0.26490050069138954  1.0000
  C   C61       1.0  0.39945225021878616  0.19972226095302403  0.30026424460490386  1.0000
  C   C62       1.0  0.36171319270892605  0.23467180297662793  0.3084544592609504  1.0000
  C   C63       1.0  0.29202948250068067  0.20008626729112688  0.34336793556478534  1.0000
  C   C64       1.0  0.2569462573404381  0.12846942045661086  0.37150620331945555  1.0000
  C   C65       1.0  0.29202861792185786  0.09194719437319784  0.3645580171994638  1.0000
  C   C66       1.0  0.3617101771724478  0.12704066159530214  0.3297963859139798  1.0000
  C   C67       1.0  0.2552164774765515  0.6275634065264982  0.8723801343606251  1.0000
  C   C68       1.0  0.2902550729456265  0.6332455166751957  0.9091791291930916  1.0000
  C   C69       1.0  0.35992147677440306  0.668332930094394  0.8740473532613108  1.0000
  C   C70       1.0  0.39765264660294963  0.6987688337901973  0.8011591466625274  1.0000
  C   C71       1.0  0.3598999548016124  0.6914512753548081  0.7660180537101978  1.0000
  C   C72       1.0  0.2902337238025367  0.656885543802538  0.8005543048917687  1.0000
  C   C73       1.0  0.46839875350164567  0.7341567574898422  0.7657817034304556  1.0000
  C   C74       1.0  0.5298109981137457  0.7648786539923621  0.7350796717775835  1.0000
  C   C75       1.0  0.6005525055414156  0.8002614740280409  0.6997098218953466  1.0000
  C   C76       1.0  0.6382937392884569  0.8084696555902084  0.7346588301515169  1.0000
  C   C77       1.0  0.7079767298049334  0.8433849460575548  0.700072079729395  1.0000
  C   C78       1.0  0.7430574426601312  0.8715174049140232  0.6284606812757187  1.0000
  C   C79       1.0  0.7079688742743289  0.8645661045573976  0.5919321620602885  1.0000
  C   C80       1.0  0.6382846580283541  0.829794228789659  0.6270280911281034  1.0000
  Br  Br1       1.0  0.10251747238736182  0.6779898235063442  0.22904742701073388  1.0000
  Br  Br2       1.0  0.8974901758026024  0.7290119795409358  0.1779818642233548  1.0000
  Br  Br3       1.0  0.10113113656166221  0.7701659747415308  0.3248343790397142  1.0000
  Br  Br4       1.0  0.8986700157988208  0.8246027560415643  0.2703323864358892  1.0000
  Br  Br5       1.0  0.8974904225505256  0.16845795808215072  0.9245307997347183  1.0000
  Br  Br6       1.0  0.1025470420724161  0.42451336469942197  0.6684940279457763  1.0000
  Br  Br7       1.0  0.8986597349850883  0.07406216695325439  0.830972308415504  1.0000
  Br  Br8       1.0  0.101168351373282  0.33096024787627704  0.5740783684650095  1.0000
  Br  Br9       1.0  0.5949658890794468  0.16904930585013758  0.2296399222783733  1.0000
  Br  Br10      1.0  0.5949613484907275  0.4259219992794032  0.17535357676918295  1.0000
  Br  Br11      1.0  0.4070122296215574  0.07547361722272689  0.32201090351573197  1.0000
  Br  Br12      1.0  0.4070116487275611  0.33154240797588846  0.27090635620924525  1.0000
  Br  Br13      1.0  0.40502101279348307  0.7296371987608693  0.6690217378422147  1.0000
  Br  Br14      1.0  0.4050535907756512  0.6752306032181182  0.9259262499535124  1.0000
  Br  Br15      1.0  0.592982027441103  0.8220062641172493  0.5754599944748617  1.0000
  Br  Br16      1.0  0.5930005491952812  0.7709571036190114  0.8315210191018566  1.0000
  N   N1        1.0  0.9119857457242733  0.799790872599843  0.7889599148235286  1.0000
  N   N2        1.0  0.08875046708759969  0.7009317300265181  0.7110322069248268  1.0000
  N   N3        1.0  0.9112659094286288  0.7002401946312136  0.8877995197526115  1.0000
  N   N4        1.0  0.08806969650645163  0.7990848969590517  0.612188822935856  1.0000
  N   N5        1.0  0.91197532767481  0.11222640098213808  0.29903875127173046  1.0000
  N   N6        1.0  0.08877120742888425  0.38782501653114576  0.20024793865518822  1.0000
  N   N7        1.0  0.9112898196951561  0.21107229817589968  0.20089959474480418  1.0000
  N   N8        1.0  0.08805717423215499  0.28897292784913736  0.29979171723465464  1.0000
  O   O1        1.0  2.9742599352001434e-06  2.992031646400134e-06  0.4999935426752415  1.0000
  O   O2        1.0  0.15292997232603514  0.02642536303552135  0.4303985067205787  1.0000
  O   O3        1.0  0.04446640570987628  0.15547011585690035  0.37968047709544805  1.0000
  O   O4        1.0  0.9631964478067447  0.9391561389733388  0.40945629047406096  1.0000
  O   O5        1.0  0.1529353735545271  0.12650180933464136  0.41663904176498073  1.0000
  O   O6        1.0  0.03675953919787397  0.9094601135253416  0.43915614295221406  1.0000
  O   O7        1.0  0.9555324114592099  0.07588143042045206  0.38898327788507453  1.0000
  O   O8        1.0  0.8470620488201915  0.9304316557621137  0.5264139220826746  1.0000
  O   O9        1.0  0.9555798437070353  0.8797051238661954  0.6554560481798287  1.0000
  O   O10       1.0  0.8470743497324094  0.916612854070522  0.6265040627581012  1.0000
  O   O11       1.0  0.044507655698787126  0.8890240625317178  0.575849717001496  1.0000
  O   O12       1.0  0.03678108782307282  0.12732139406204374  0.5240790510902542  1.0000
  O   O13       1.0  0.9631912450722949  0.024068392188290526  0.6273150997188351  1.0000
  O   O14       1.0  1.0793720903712836e-05  0.5000092860320748  1.3467654440589037e-06  1.0000
  O   O15       1.0  0.9568754591951104  0.5833582198216619  0.06956969754724428  1.0000
  O   O16       1.0  0.035197165348165506  0.42417005212491443  0.12031321277140707  1.0000
  O   O17       1.0  0.8486125956857934  0.37268650159285244  0.0905228410345558  1.0000
  O   O18       1.0  0.043177644983629325  0.5695824967310515  0.08336643378675747  1.0000
  O   O19       1.0  0.8486156486949806  0.47593281439316115  0.060863008899218765  1.0000
  O   O20       1.0  0.9648881058415172  0.3445650781610895  0.11099818149274653  1.0000
  O   O21       1.0  0.9568635139094965  0.37348538457325753  0.9735878796909673  1.0000
  O   O22       1.0  0.0351260488271804  0.6109896308457649  0.8445334803902895  1.0000
  O   O23       1.0  0.04315276722789463  0.47356448939196855  0.8735083337445885  1.0000
  O   O24       1.0  0.9648492260573462  0.6203203468706209  0.9241385185336313  1.0000
  O   O25       1.0  0.15141194908031963  0.5608678345826378  0.9759125253104273  1.0000
  O   O26       1.0  0.15138171181454393  0.5905380161812274  0.872672733639263  1.0000
