data_image0
_chemical_formula_structural       Zn2H36C46N4O12
_chemical_formula_sum              "Zn2 H36 C46 N4 O12"
_cell_length_a       8.111578299920412
_cell_length_b       8.69901122470157
_cell_length_c       15.776036511108837
_cell_angle_alpha    102.7207274420521
_cell_angle_beta     92.51619576037565
_cell_angle_gamma    108.95411338204087

_space_group_name_H-M_alt    "P 1"
_space_group_IT_number       1

loop_
  _space_group_symop_operation_xyz
  'x, y, z'

loop_
  _atom_site_type_symbol
  _atom_site_label
  _atom_site_symmetry_multiplicity
  _atom_site_fract_x
  _atom_site_fract_y
  _atom_site_fract_z
  _atom_site_occupancy
  Zn  Zn1       1.0  0.7173203305616553  0.4199034888814168  0.473520445180874  1.0000
  Zn  Zn2       1.0  0.2826765225257829  0.5800960050911781  0.526479035067055  1.0000
  H   H1        1.0  0.3050420159899898  0.9626020813886311  0.507491268029291  1.0000
  H   H2        1.0  0.6949557456183583  0.037399961127086094  0.49250729451654235  1.0000
  H   H3        1.0  0.24844654475029407  0.3871638205422057  0.6861379690868926  1.0000
  H   H4        1.0  0.7515512433445437  0.612838182298489  0.3138618566537871  1.0000
  H   H5        1.0  0.8471116311540497  0.8980771324775885  0.6416109910691075  1.0000
  H   H6        1.0  0.15288817140599056  0.10192354301207729  0.35838995531528167  1.0000
  H   H7        1.0  0.15492994842234958  0.3697219949276728  0.832172236252212  1.0000
  H   H8        1.0  0.8450661709140588  0.6302787304249333  0.1678286648393267  1.0000
  H   H9        1.0  0.9815017612025299  0.4898416283823366  0.9353259895027148  1.0000
  H   H10       1.0  0.018495734158498995  0.5101628999474457  0.06467416663308968  1.0000
  H   H11       1.0  0.9999834671361826  0.44047284250643765  0.34810433739086466  1.0000
  H   H12       1.0  1.6789684316527348e-05  0.5595291072547893  0.6518961501424697  1.0000
  H   H13       1.0  0.8524630238904506  0.827996159544547  0.05501019338659317  1.0000
  H   H14       1.0  0.147540448649977  0.1720044859196932  0.9449901666932231  1.0000
  H   H15       1.0  0.9574648093033318  0.9909471586109005  0.15088547544980455  1.0000
  H   H16       1.0  0.042538676480340584  0.009053467015824889  0.8491155162274351  1.0000
  H   H17       1.0  0.6888681903673726  0.10851984082572837  0.6460012966174841  1.0000
  H   H18       1.0  0.31113218441704044  0.8914758035232778  0.35399835737921836  1.0000
  H   H19       1.0  0.5154271830934147  0.23119315953479708  0.7487183078752577  1.0000
  H   H20       1.0  0.48457161824300937  0.768805106274314  0.2512791350292644  1.0000
  H   H21       1.0  0.007965802190042755  0.30176547967533196  0.19163626603663886  1.0000
  H   H22       1.0  0.992038605357784  0.6982376746570081  0.8083644395359212  1.0000
  H   H23       1.0  0.2222221046866935  0.09190669693412445  0.08016892806009676  1.0000
  H   H24       1.0  0.7777821280912391  0.908092677475082  0.9198312743709633  1.0000
  H   H25       1.0  0.167689891433838  0.8729233204396248  0.07498178980258526  1.0000
  H   H26       1.0  0.8323147823613084  0.12707734807865026  0.9250173221799964  1.0000
  H   H27       1.0  0.6158106039259507  0.9553069597601789  0.05796510357996706  1.0000
  H   H28       1.0  0.3841953373401381  0.04469363262458611  0.9420359182925038  1.0000
  H   H29       1.0  0.6722351511105202  0.15615651441814285  0.035886498272780884  1.0000
  H   H30       1.0  0.3277690684241746  0.8438428798285783  0.9641130725608559  1.0000
  H   H31       1.0  0.46409176000963004  0.19632882060530218  0.3295279951388962  1.0000
  H   H32       1.0  0.5359107510369011  0.8036693556658462  0.6704707562533228  1.0000
  H   H33       1.0  0.4491812645385238  0.04789594387189309  0.17309576005464314  1.0000
  H   H34       1.0  0.5508249429748842  0.9521021626988142  0.8269036682278494  1.0000
  H   H35       1.0  0.4099276639116524  0.4554547208345595  0.9363455839386884  1.0000
  H   H36       1.0  0.5900628744745687  0.5445349494451647  0.06364679976621088  1.0000
  C   C1        1.0  0.03707045986524088  0.1513417087894169  0.6739161236409072  1.0000
  C   C2        1.0  0.962927328229597  0.8486602940512781  0.3260837020997655  1.0000
  C   C3        1.0  0.9968174034709919  0.7308545504023909  0.5246082765917988  1.0000
  C   C4        1.0  0.003179183369127279  0.2691474293842687  0.47539279724610833  1.0000
  C   C5        1.0  0.23145257854007886  0.015354748486956303  0.5545682916612404  1.0000
  C   C6        1.0  0.7685464505392117  0.9846472178952508  0.44543218077448177  1.0000
  C   C7        1.0  0.2922819478948639  0.1875435184315748  0.5943268750729017  1.0000
  C   C8        1.0  0.7077186281459331  0.8124558661655498  0.40567454526015445  1.0000
  C   C9        1.0  0.07173848350813455  0.9120897314561132  0.5727437886047679  1.0000
  C   C10       1.0  0.9282568623475242  0.0879122847890272  0.4272566385380967  1.0000
  C   C11       1.0  0.19851597976331448  0.25288578787844057  0.6561614352845094  1.0000
  C   C12       1.0  0.8014850637811791  0.7471148511527376  0.343840157794915  1.0000
  C   C13       1.0  0.9329530879765002  0.22600733228986766  0.7335389943589374  1.0000
  C   C14       1.0  0.06704455183493246  0.7739908509526714  0.2664615914350889  1.0000
  C   C15       1.0  0.9737493059477058  0.9806422358362139  0.6309496409747479  1.0000
  C   C16       1.0  0.026248014643428498  0.0193585125704345  0.3690500120195565  1.0000
  C   C17       1.0  0.4427409546482295  0.30854084901384476  0.5642831517585447  1.0000
  C   C18       1.0  0.5572600756530194  0.691459809854841  0.43571780972346347  1.0000
  C   C19       1.0  0.014599194739723478  0.33843607260061487  0.8143363921877194  1.0000
  C   C20       1.0  0.9853998078530778  0.6615659334566144  0.18566281705315643  1.0000
  C   C21       1.0  0.9174093670614312  0.405287743269362  0.8723472406742654  1.0000
  C   C22       1.0  0.0825905572955321  0.5947167914934752  0.12765168246193065  1.0000
  C   C23       1.0  0.633940536937601  0.42706917518265897  0.9152544218280095  1.0000
  C   C24       1.0  0.36605643794675297  0.5729341780631073  0.08474303517172635  1.0000
  C   C25       1.0  0.7361915195005225  0.3643437877495613  0.8498300991944274  1.0000
  C   C26       1.0  0.2638089770808136  0.6356557158726162  0.15016753155408938  1.0000
  C   C27       1.0  0.8817832113889709  0.3510363974726616  0.3067605908876699  1.0000
  C   C28       1.0  0.11821828641598126  0.6489655158300708  0.6932405433407067  1.0000
  C   C29       1.0  0.7286845682928059  0.1634479525999168  0.16917389423790744  1.0000
  C   C30       1.0  0.2713209187128242  0.8365513655132941  0.8308275864856182  1.0000
  C   C31       1.0  0.9466379133101197  0.9582810067263237  0.07898937256017285  1.0000
  C   C32       1.0  0.05336433148909949  0.04171965535889651  0.9210109724220241  1.0000
  C   C33       1.0  0.7522118403574962  0.18919083770173017  0.7101968816238649  1.0000
  C   C34       1.0  0.24778439694283344  0.8108035822386555  0.28980318593104215  1.0000
  C   C35       1.0  0.6549314242802564  0.2590072746869864  0.7672866784830032  1.0000
  C   C36       1.0  0.3450665215082295  0.7409883632289577  0.23271420851331462  1.0000
  C   C37       1.0  0.8848355910558395  0.2741885428172708  0.21991982600051324  1.0000
  C   C38       1.0  0.1151700309899581  0.7258146147316041  0.7800802630722357  1.0000
  C   C39       1.0  0.12486234117837804  0.9644701862628791  0.05050116297922358  1.0000
  C   C40       1.0  0.8751386626363881  0.0355305122808289  0.9494985353079313  1.0000
  C   C41       1.0  0.7193115793280782  0.0820710649243281  0.07341392470503648  1.0000
  C   C42       1.0  0.28069285470623817  0.9179320497329894  0.9265880440623773  1.0000
  C   C43       1.0  0.5811201471866027  0.21496256259882773  0.2961385886003  1.0000
  C   C44       1.0  0.41888038912446035  0.7850368815108268  0.7038609369404791  1.0000
  C   C45       1.0  0.5744943094585439  0.13425293056121027  0.2092180324354017  1.0000
  C   C46       1.0  0.42550746783697235  0.8657464770899564  0.7907821398004199  1.0000
  N   N1        1.0  0.8852845653789245  0.07647022026723961  0.044969911545770486  1.0000
  N   N2        1.0  0.11471690593953796  0.9235317327105148  0.9550299594877597  1.0000
  N   N3        1.0  0.7324467821342183  0.3215199140087178  0.3445067899205795  1.0000
  N   N4        1.0  0.2675542216805482  0.6784807845349903  0.6554929083665753  1.0000
  O   O1        1.0  0.08623083912396372  0.6648506953470985  0.47432781684102554  1.0000
  O   O2        1.0  0.9137677356948686  0.33514999676354756  0.5256731144457374  1.0000
  O   O3        1.0  0.8395523628964554  0.6530302617881674  0.537523490177726  1.0000
  O   O4        1.0  0.1604445166774653  0.34696919250940533  0.46247725326505656  1.0000
  O   O5        1.0  0.5252556303268038  0.24374268614882758  0.5063977836323585  1.0000
  O   O6        1.0  0.47474491922750417  0.7562567381233123  0.4936023735058439  1.0000
  O   O7        1.0  0.4776447589444714  0.4639822392545624  0.5934844546780836  1.0000
  O   O8        1.0  0.5223558170963186  0.536017145342562  0.40651696565497264  1.0000
  O   O9        1.0  0.6963311750010419  0.486622977637829  0.9944812910469448  1.0000
  O   O10       1.0  0.30366666867449504  0.5133829836635897  0.005513353458418599  1.0000
  O   O11       1.0  0.47340779588388665  0.4128489743789813  0.8852800784693637  1.0000
  O   O12       1.0  0.526584329193568  0.5871380546031303  0.11471514792514624  1.0000
