data_image0
_chemical_formula_structural       Zn2H40C30N8O8
_chemical_formula_sum              "Zn2 H40 C30 N8 O8"
_cell_length_a       8.410977789844997
_cell_length_b       8.487851490859434
_cell_length_c       15.946348770849342
_cell_angle_alpha    96.54493027329093
_cell_angle_beta     106.52569348582246
_cell_angle_gamma    108.59295585958806

_space_group_name_H-M_alt    "P 1"
_space_group_IT_number       1

loop_
  _space_group_symop_operation_xyz
  'x, y, z'

loop_
  _atom_site_type_symbol
  _atom_site_label
  _atom_site_symmetry_multiplicity
  _atom_site_fract_x
  _atom_site_fract_y
  _atom_site_fract_z
  _atom_site_occupancy
  Zn  Zn1       1.0  0.05911513562689663  0.9961592391700264  0.24679345566236316  1.0000
  Zn  Zn2       1.0  0.9408861351324375  0.003839828156671405  0.7532064318030862  1.0000
  H   H1        1.0  0.9346385597468796  0.4037224432813034  0.27542349795720605  1.0000
  H   H2        1.0  0.0653608237573238  0.5962752517676009  0.7245741793792247  1.0000
  H   H3        1.0  0.8040551102179591  0.42417430907555337  0.17029501291985838  1.0000
  H   H4        1.0  0.19593302209020175  0.575813331067124  0.8297024966091013  1.0000
  H   H5        1.0  0.733125218713262  0.484468256199733  0.3480448164662633  1.0000
  H   H6        1.0  0.26688791929908007  0.5155258037554374  0.6519595418700277  1.0000
  H   H7        1.0  0.6068051113459276  0.5075827676787341  0.24435601639822113  1.0000
  H   H8        1.0  0.393194090178639  0.49241293246139145  0.755651572293054  1.0000
  H   H9        1.0  0.5442853621913598  0.19486281776787706  0.17854371580571637  1.0000
  H   H10       1.0  0.45572189972059357  0.805135146391379  0.8214606859946868  1.0000
  H   H11       1.0  0.6471641278677254  0.17507756256061663  0.286741043351995  1.0000
  H   H12       1.0  0.3528505922224738  0.8249176612691826  0.7132617071791358  1.0000
  H   H13       1.0  0.6678097244421294  0.9819736071513674  0.1334092173800414  1.0000
  H   H14       1.0  0.3321901143849857  0.018013508960450498  0.8665816825626962  1.0000
  H   H15       1.0  0.610360044974726  0.11751404330836832  0.9799594209172611  1.0000
  H   H16       1.0  0.38964088307091765  0.8824875124502255  0.020039297445983057  1.0000
  H   H17       1.0  0.15547249179608968  0.19067200125596875  0.0897840104372776  1.0000
  H   H18       1.0  0.8445412669329214  0.8093371137278922  0.9102162110960987  1.0000
  H   H19       1.0  0.8225213527261983  0.18041601223723086  0.8785762271907629  1.0000
  H   H20       1.0  0.17748001664701724  0.8196022631968631  0.12142532255658979  1.0000
  H   H21       1.0  0.053814790891145485  0.26148663253302823  0.9384143681855619  1.0000
  H   H22       1.0  0.94618373297763  0.7385250231376544  0.061582052797831466  1.0000
  H   H23       1.0  0.9418633378959524  0.489528244228687  0.8979026681495055  1.0000
  H   H24       1.0  0.05812838901202613  0.510486603311648  0.1021036762938792  1.0000
  H   H25       1.0  0.7953016862978046  0.43817055499600593  0.9594145880723912  1.0000
  H   H26       1.0  0.2046914490013236  0.5618316419816907  0.04059378394787671  1.0000
  H   H27       1.0  0.149446285088068  0.34457706989547887  0.39655659214138683  1.0000
  H   H28       1.0  0.8505490746250002  0.6554322580259537  0.6034430444523194  1.0000
  H   H29       1.0  0.9655832507896134  0.31309047296498693  0.5210325974273644  1.0000
  H   H30       1.0  0.03440199795635112  0.6869160424446006  0.4789598786389604  1.0000
  H   H31       1.0  0.7737887126039807  0.8425841356244206  0.3348475490725562  1.0000
  H   H32       1.0  0.22622474909316279  0.15742018341401828  0.6651580260166055  1.0000
  H   H33       1.0  0.7911659252958569  0.0178731708936724  0.5579500323029833  1.0000
  H   H34       1.0  0.20882777223300758  0.9821258357258386  0.4420469486326865  1.0000
  H   H35       1.0  0.668020526160731  0.8421318329448366  0.4633610675267191  1.0000
  H   H36       1.0  0.3319750612137966  0.1578722055080561  0.5366351803701476  1.0000
  H   H37       1.0  0.4701576296356578  0.997232120606526  0.3998638687762508  1.0000
  H   H38       1.0  0.5298316161009707  0.002764530778939906  0.6001355251869143  1.0000
  H   H39       1.0  0.6041670554954874  0.1781285484152448  0.49029993560386487  1.0000
  H   H40       1.0  0.39581971669387167  0.8218681174683482  0.5096991258384023  1.0000
  C   C1        1.0  0.9613100825804181  0.6610882251083935  0.26816683069433367  1.0000
  C   C2        1.0  0.0386890948817324  0.33890567144948136  0.7318312445204639  1.0000
  C   C3        1.0  0.8507489169510405  0.4713199250398076  0.24356416375551498  1.0000
  C   C4        1.0  0.14924814559451963  0.5286778887088062  0.7564350900271037  1.0000
  C   C5        1.0  0.6885753664288714  0.4367424782807063  0.2748723988993547  1.0000
  C   C6        1.0  0.31143163857814915  0.5632516526536617  0.7251317644570462  1.0000
  C   C7        1.0  0.574023657551713  0.24734623864190297  0.2501817414254504  1.0000
  C   C8        1.0  0.425983997936811  0.7526492718193224  0.749824465799527  1.0000
  C   C9        1.0  0.3958481355207437  0.20277841635299856  0.26560998804477254  1.0000
  C   C10       1.0  0.6041636454846682  0.7972055307034153  0.7343955325676532  1.0000
  C   C11       1.0  0.7594519861140724  0.043758351561848485  0.10070885981838269  1.0000
  C   C12       1.0  0.24055852835287794  0.9562392782454624  0.8992903138620959  1.0000
  C   C13       1.0  0.7293051324046189  0.109622637996118  0.025331500531450505  1.0000
  C   C14       1.0  0.27069829080771496  0.8903698153047725  0.9746645595342115  1.0000
  C   C15       1.0  0.015011272634730215  0.1506629589774349  0.0816444306045128  1.0000
  C   C16       1.0  0.9849726673766594  0.8493298187116735  0.9183527872281232  1.0000
  C   C17       1.0  0.9252539427493357  0.2603187871126024  0.9421455406565042  1.0000
  C   C18       1.0  0.07474151868949261  0.7396906102765541  0.05785536858193298  1.0000
  C   C19       1.0  0.9262002760416692  0.4410858728674967  0.9573511258084152  1.0000
  C   C20       1.0  0.07379197037857207  0.558921162038544  0.042652362717973284  1.0000
  C   C21       1.0  0.04243049686900948  0.23789448863953305  0.401769373054421  1.0000
  C   C22       1.0  0.9575608580818052  0.7621137246392704  0.5982321751459095  1.0000
  C   C23       1.0  0.9534432378470612  0.2250039868281632  0.46250417030622504  1.0000
  C   C24       1.0  0.046546026397102536  0.7750027152373988  0.5374926224756322  1.0000
  C   C25       1.0  0.8501501052790629  0.9761438027545707  0.3666663507677653  1.0000
  C   C26       1.0  0.14985636947975678  0.023859068800753398  0.633334440183482  1.0000
  C   C27       1.0  0.7125704176538007  0.9810370476464525  0.4862101254438258  1.0000
  C   C28       1.0  0.28742511626731465  0.018963296516986396  0.5137884292984936  1.0000
  C   C29       1.0  0.5545257315676649  0.03779497624081779  0.47120526224657056  1.0000
  C   C30       1.0  0.4454693553234748  0.9622041273312049  0.5287937939166341  1.0000
  N   N1        1.0  0.9381088645039951  0.07025426823104647  0.13504365654406308  1.0000
  N   N2        1.0  0.061895351042529925  0.9297405967849526  0.8649501280351116  1.0000
  N   N3        1.0  0.8924689594338275  0.1759468167526066  0.013999394184096983  1.0000
  N   N4        1.0  0.10754287191311113  0.8240599632329334  0.9860042092200345  1.0000
  N   N5        1.0  0.9767996041773869  0.08130963780119771  0.3425141952993157  1.0000
  N   N6        1.0  0.02320302099835201  0.9186958828686682  0.6574874730578273  1.0000
  N   N7        1.0  0.8329069871682574  0.05835500513991579  0.43911608664397045  1.0000
  N   N8        1.0  0.1670858322176513  0.9416479114212775  0.5608822391199695  1.0000
  O   O1        1.0  0.913237121774351  0.7461703779855711  0.20890096128550786  1.0000
  O   O2        1.0  0.08676551169431693  0.2538233231557925  0.791094431098827  1.0000
  O   O3        1.0  0.08388657773877374  0.7275981948135948  0.34236071856807365  1.0000
  O   O4        1.0  0.9161019666534855  0.27239704231114803  0.6576359952041528  1.0000
  O   O5        1.0  0.2996133123910454  0.039057174147863784  0.24150406396769597  1.0000
  O   O6        1.0  0.7003950686517867  0.9609343221700897  0.7584988894619115  1.0000
  O   O7        1.0  0.3464688276809297  0.31321336025524704  0.29639564742282687  1.0000
  O   O8        1.0  0.6535387260818337  0.6867820807382471  0.7036092871574268  1.0000
