data_image0
_chemical_formula_structural       Er4H24C36N8O28
_chemical_formula_sum              "Er4 H24 C36 N8 O28"
_cell_length_a       6.5848697550512885
_cell_length_b       12.892132785932843
_cell_length_c       12.895335047135081
_cell_angle_alpha    94.91540427005754
_cell_angle_beta     89.99992402771271
_cell_angle_gamma    90.00045200976902

_space_group_name_H-M_alt    "P 1"
_space_group_IT_number       1

loop_
  _space_group_symop_operation_xyz
  'x, y, z'

loop_
  _atom_site_type_symbol
  _atom_site_label
  _atom_site_symmetry_multiplicity
  _atom_site_fract_x
  _atom_site_fract_y
  _atom_site_fract_z
  _atom_site_occupancy
  Er  Er1       1.0  0.8194405453158851  0.8233865843200475  0.3386761247697195  1.0000
  Er  Er2       1.0  0.31944126813128554  0.6766111084039039  0.6613231946985253  1.0000
  Er  Er3       1.0  0.18056296817587747  0.17661139080005478  0.6613252326835168  1.0000
  Er  Er4       1.0  0.6805622453714621  0.3233884278661208  0.33867906376090684  1.0000
  H   H1        1.0  0.3180601006900404  0.7037583384121789  0.19382254088795753  1.0000
  H   H2        1.0  0.818051726356963  0.7962455646134146  0.8061749524053996  1.0000
  H   H3        1.0  0.6819418941857409  0.29624197637402  0.8061797801670354  1.0000
  H   H4        1.0  0.18193660083164084  0.20375631951858256  0.19382982128954754  1.0000
  H   H5        1.0  0.8181882218536247  0.06965460464734718  0.08335649240635952  1.0000
  H   H6        1.0  0.31819072755882166  0.4303496384210062  0.9166449631017316  1.0000
  H   H7        1.0  0.18178947500113915  0.9303605348475017  0.9166532244884922  1.0000
  H   H8        1.0  0.6818173418281435  0.569646742665874  0.0833492868194838  1.0000
  H   H9        1.0  0.37041307542398283  0.8265242685305976  0.03974255145413961  1.0000
  H   H10       1.0  0.8704297524744651  0.6734774910951984  0.9602516315190075  1.0000
  H   H11       1.0  0.6295722145482829  0.1734838355258148  0.9602611713723948  1.0000
  H   H12       1.0  0.1295843914372981  0.32651811559613003  0.039743331621423295  1.0000
  H   H13       1.0  0.4248564752688255  0.5174511882467455  0.22760534850969802  1.0000
  H   H14       1.0  0.924855628235051  0.9825546972678225  0.772392230669013  1.0000
  H   H15       1.0  0.5751500755025489  0.4825483356947018  0.772394582502301  1.0000
  H   H16       1.0  0.07514788526545153  0.017444044036835697  0.2276068619326352  1.0000
  H   H17       1.0  0.8542103017763554  0.7449150144062883  0.5446906900088564  1.0000
  H   H18       1.0  0.3542173063175937  0.7550773507589381  0.4553050752325731  1.0000
  H   H19       1.0  0.14580080484837774  0.2550790763560471  0.45531190609781197  1.0000
  H   H20       1.0  0.6457968376018359  0.2449206367169622  0.5446986096655806  1.0000
  H   H21       1.0  0.9770760685522364  0.8452049443924282  0.5504169477683549  1.0000
  H   H22       1.0  0.4770663464541159  0.6547957118274608  0.44958250147370654  1.0000
  H   H23       1.0  0.022941112619811604  0.1547906869742164  0.4495826702652722  1.0000
  H   H24       1.0  0.5229341298028986  0.3452069549594797  0.5504231106299146  1.0000
  C   C1        1.0  0.9831685565995518  0.5772504000786256  0.3152373218927878  1.0000
  C   C2        1.0  0.4831654435411395  0.9227525501974226  0.6847498998417266  1.0000
  C   C3        1.0  0.01683040104015991  0.4227538072975038  0.6847653121391845  1.0000
  C   C4        1.0  0.5168289580918072  0.07723603744720009  0.3152421724979107  1.0000
  C   C5        1.0  0.7835699977614184  0.5753940263214331  0.36663074595164613  1.0000
  C   C6        1.0  0.28357615237403183  0.9246089484839998  0.6333643699901402  1.0000
  C   C7        1.0  0.21641984802290892  0.4246039981099726  0.6333799212915923  1.0000
  C   C8        1.0  0.7164258425486171  0.0753959880788386  0.3666290168490747  1.0000
  C   C9        1.0  0.22489909360750465  0.6492639921591276  0.23272941423231697  1.0000
  C   C10       1.0  0.724890141533891  0.8507371877440164  0.767264822298472  1.0000
  C   C11       1.0  0.7751029012591464  0.350734753254052  0.7672704541852369  1.0000
  C   C12       1.0  0.27510274152555075  0.14926079557799446  0.23273808678796834  1.0000
  C   C13       1.0  0.7128650952413411  0.8816862649419334  0.14625161829055602  1.0000
  C   C14       1.0  0.21286747579630128  0.6183163829679187  0.8537349897012946  1.0000
  C   C15       1.0  0.28712930649471974  0.11831554930590468  0.853739966537667  1.0000
  C   C16       1.0  0.7871390749810276  0.38168391949272257  0.1462650039059881  1.0000
  C   C17       1.0  0.17447539900484807  0.40380068144125386  0.3474966710771526  1.0000
  C   C18       1.0  0.6744794903462437  0.0962045502837086  0.6525057383268873  1.0000
  C   C19       1.0  0.825515965500422  0.5962082217041739  0.6525109934216645  1.0000
  C   C20       1.0  0.32551794861397115  0.9037918143358254  0.34748540833378894  1.0000
  C   C21       1.0  0.6066236125212332  0.9412217646814794  0.06822444030496651  1.0000
  C   C22       1.0  0.10662791451134983  0.5587789564187773  0.9317721671986945  1.0000
  C   C23       1.0  0.39335712155597263  0.05878632291968699  0.9317761792599131  1.0000
  C   C24       1.0  0.8933786362132995  0.4412143352575697  0.06822648723540681  1.0000
  C   C25       1.0  0.6797464169560571  0.0391265772440974  0.04601524920535381  1.0000
  C   C26       1.0  0.17975537804176878  0.46087706499980646  0.9539769474642414  1.0000
  C   C27       1.0  0.3202403916936021  0.960886964115076  0.9539865843410242  1.0000
  C   C28       1.0  0.8202542099818191  0.5391192996439287  0.04601419919419671  1.0000
  C   C29       1.0  0.13994707849995797  0.5047327399318958  0.3038211553770865  1.0000
  C   C30       1.0  0.6399542102479999  0.9952696627371367  0.6961740134214767  1.0000
  C   C31       1.0  0.8600518791626545  0.4952745856325508  0.6961825048516489  1.0000
  C   C32       1.0  0.3600477845395035  0.0047173596611358  0.30381638209495077  1.0000
  C   C33       1.0  0.42628722866854946  0.9024667451681766  0.021796091621759217  1.0000
  C   C34       1.0  0.9263102773348141  0.5975329426092698  0.9782056411574588  1.0000
  C   C35       1.0  0.5736904681789385  0.09754681673057061  0.9782096210044103  1.0000
  C   C36       1.0  0.07370386658701022  0.40246422934354353  0.02179099880478931  1.0000
  N   N1        1.0  0.2895981602780609  0.5527446647116038  0.2507739880815123  1.0000
  N   N2        1.0  0.7895968234376983  0.9472552323506421  0.7492232027088619  1.0000
  N   N3        1.0  0.7103932042002159  0.4472603335032233  0.7492310359940151  1.0000
  N   N4        1.0  0.2103990968432612  0.0527357031892279  0.2507713848632207  1.0000
  N   N5        1.0  0.03946499225026662  0.6671512848449477  0.2718345296936705  1.0000
  N   N6        1.0  0.539458896926469  0.8328522293272441  0.7281522673060509  1.0000
  N   N7        1.0  0.9605445958332768  0.3328536681791903  0.7281619604066449  1.0000
  N   N8        1.0  0.46054006065143954  0.16714339789155727  0.2718465749153012  1.0000
  O   O1        1.0  0.636574364563238  0.7976026644246232  0.17497649029957077  1.0000
  O   O2        1.0  0.13656900761379384  0.7023903578843401  0.8250132737053805  1.0000
  O   O3        1.0  0.3634245930239432  0.20239292167873663  0.8250145937655449  1.0000
  O   O4        1.0  0.8634299499901844  0.2976091783766108  0.17498898475489005  1.0000
  O   O5        1.0  0.875791863540279  0.9190371216170516  0.19013127552988612  1.0000
  O   O6        1.0  0.3758028854103801  0.5809591974555133  0.8098601398509049  1.0000
  O   O7        1.0  0.12420405676225954  0.08095613303422769  0.8098603965655543  1.0000
  O   O8        1.0  0.6242067026575387  0.41904421497640937  0.1901393283213295  1.0000
  O   O9        1.0  0.3561188395835374  0.37349794968475436  0.35430861242777933  1.0000
  O   O10       1.0  0.8561203802025477  0.1265064568172676  0.6456951565679179  1.0000
  O   O11       1.0  0.6438801180954814  0.6265125228488201  0.6457015047070842  1.0000
  O   O12       1.0  0.14388768916600722  0.8734883960120354  0.3543043988720953  1.0000
  O   O13       1.0  0.7104836018061322  0.4945542304210448  0.40011346626953087  1.0000
  O   O14       1.0  0.21047878624525407  0.0054565655825272  0.5998839373418221  1.0000
  O   O15       1.0  0.2895244677172927  0.5054608639073166  0.5998877166478779  1.0000
  O   O16       1.0  0.7895292830393786  0.9945281952780647  0.40012023506886163  1.0000
  O   O17       1.0  0.8563263207243923  0.8126853667215316  0.5139182740087591  1.0000
  O   O18       1.0  0.3563367546417028  0.6873132185873131  0.48607488795306625  1.0000
  O   O19       1.0  0.14367719277571214  0.1873125713946635  0.48607610110386207  1.0000
  O   O20       1.0  0.6436743520306866  0.3126871003285813  0.5139282089158714  1.0000
  O   O21       1.0  0.6886272549882408  0.6628383644819351  0.37375074716003814  1.0000
  O   O22       1.0  0.18863510906406594  0.8371649859615288  0.6262398114243625  1.0000
  O   O23       1.0  0.3113610722718364  0.337172861880397  0.6262547776783195  1.0000
  O   O24       1.0  0.811363848464865  0.16282361402680579  0.37375458836130804  1.0000
  O   O25       1.0  0.024554002514221913  0.352580556798351  0.37886233974499833  1.0000
  O   O26       1.0  0.5245498535988207  0.14742953965014752  0.6211428904493844  1.0000
  O   O27       1.0  0.9754555856026673  0.6474298828640528  0.6211415708629175  1.0000
  O   O28       1.0  0.4754445479959984  0.8525551924024056  0.37885585125444277  1.0000
