data_image0
_chemical_formula_structural       Cu8Si8H168C112S8I8O12
_chemical_formula_sum              "Cu8 Si8 H168 C112 S8 I8 O12"
_cell_length_a       16.5426326532748
_cell_length_b       16.54734746991813
_cell_length_c       18.739557844443738
_cell_angle_alpha    116.19883868685127
_cell_angle_beta     116.18509758031335
_cell_angle_gamma    89.98913196836969

_space_group_name_H-M_alt    "P 1"
_space_group_IT_number       1

loop_
  _space_group_symop_operation_xyz
  'x, y, z'

loop_
  _atom_site_type_symbol
  _atom_site_label
  _atom_site_symmetry_multiplicity
  _atom_site_fract_x
  _atom_site_fract_y
  _atom_site_fract_z
  _atom_site_occupancy
  Cu  Cu1       1.0  0.28438076203244134  0.860075951089712  0.5599542860156747  1.0000
  Cu  Cu2       1.0  0.27552176894884167  0.7000972270492626  0.5599759853146722  1.0000
  Cu  Cu3       1.0  0.7001297141251684  0.28436102665169466  0.5600292786387583  1.0000
  Cu  Cu4       1.0  0.8600695303057152  0.2755405698583502  0.5600047954332369  1.0000
  Cu  Cu5       1.0  0.7156134536089952  0.13992779852659962  0.4400458148605396  1.0000
  Cu  Cu6       1.0  0.7244774299179754  0.2999074903603756  0.44002766832607415  1.0000
  Cu  Cu7       1.0  0.29986929689500397  0.7156389717560288  0.43997142523380006  1.0000
  Cu  Cu8       1.0  0.139928682221921  0.7244547084450519  0.4399951174927282  1.0000
  Si  Si1       1.0  0.4025484936468545  0.3192891706194345  0.893186202564401  1.0000
  Si  Si2       1.0  0.49072871877255875  0.5740840319570354  0.8933290879856416  1.0000
  Si  Si3       1.0  0.5739578823153977  0.4025681967276782  0.893209170605509  1.0000
  Si  Si4       1.0  0.31932539496006035  0.4907897529622219  0.8933107428301242  1.0000
  Si  Si5       1.0  0.5974513938439332  0.6807128525418448  0.10681260582491346  1.0000
  Si  Si6       1.0  0.5092693852392928  0.42591513993895097  0.10666726334428488  1.0000
  Si  Si7       1.0  0.4260397829519319  0.5974306382161033  0.106788128000268  1.0000
  Si  Si8       1.0  0.680674138209241  0.5092137915956554  0.10668840566486881  1.0000
  H   H1        1.0  0.29911071484266943  0.004928411607558285  0.7503067612302914  1.0000
  H   H2        1.0  0.45101746449147134  0.7455190918175134  0.7503003486671318  1.0000
  H   H3        1.0  0.745646654159721  0.29926954403014616  0.750428765909831  1.0000
  H   H4        1.0  0.004900133146833252  0.4510663218749045  0.7504498380549762  1.0000
  H   H5        1.0  0.7008876644941678  0.9950732850917346  0.24969193549225818  1.0000
  H   H6        1.0  0.5489800203926336  0.2544782269747756  0.24969608036165175  1.0000
  H   H7        1.0  0.2543491486321656  0.7007304858482472  0.24956876113485285  1.0000
  H   H8        1.0  0.9950979729018885  0.5489301483228035  0.24954651513802154  1.0000
  H   H9        1.0  0.4111166306441305  0.9867683427790015  0.772574697832809  1.0000
  H   H10       1.0  0.36123063838479647  0.7858880316606545  0.7725366471581694  1.0000
  H   H11       1.0  0.7860402967311302  0.4112033107230746  0.7726192992536838  1.0000
  H   H12       1.0  0.9868269764238139  0.361336329527333  0.7726843150706345  1.0000
  H   H13       1.0  0.5888817486926997  0.013233353920291837  0.22742399888973355  1.0000
  H   H14       1.0  0.6387705758582812  0.21411415266025818  0.2274614023893876  1.0000
  H   H15       1.0  0.2139570152331487  0.5887956947681657  0.22737834038930055  1.0000
  H   H16       1.0  0.013174508736142251  0.6386611241990393  0.22731400247295844  1.0000
  H   H17       1.0  0.47197866404724925  0.15874180312490435  0.8395776030314579  1.0000
  H   H18       1.0  0.3674875551486069  0.6809507452031198  0.8396371529572165  1.0000
  H   H19       1.0  0.6810896912432938  0.47217843628646966  0.8397151994977534  1.0000
  H   H20       1.0  0.15888559737410904  0.3675605053855264  0.8397190067442395  1.0000
  H   H21       1.0  0.5280220355101122  0.8412600378962837  0.1604240820848659  1.0000
  H   H22       1.0  0.632515979314995  0.3190515834396947  0.16036388498412182  1.0000
  H   H23       1.0  0.31891074147092263  0.5278227319327014  0.16028622134868437  1.0000
  H   H24       1.0  0.841115359526107  0.6324415072855273  0.16028086058769714  1.0000
  H   H25       1.0  0.42594292847166343  0.13721157295921674  0.8999607143937356  1.0000
  H   H26       1.0  0.4738241392337699  0.7629237876847909  0.8999439171466862  1.0000
  H   H27       1.0  0.7629415333393725  0.42607206205730813  0.9000502820329787  1.0000
  H   H28       1.0  0.13721307921240122  0.47388351352986285  0.9000550099564962  1.0000
  H   H29       1.0  0.5740547452775075  0.8627891139858549  0.10003866533477178  1.0000
  H   H30       1.0  0.5261773428708807  0.23707771858899207  0.10005439760229247  1.0000
  H   H31       1.0  0.23706049398871434  0.5739285892743808  0.09995064517312356  1.0000
  H   H32       1.0  0.8627876878043069  0.526116481837555  0.09994190574418846  1.0000
  H   H33       1.0  0.28114748174581916  0.18129116762517578  0.8260300300930937  1.0000
  H   H34       1.0  0.5447856602153109  0.6449762634019436  0.8260335803410044  1.0000
  H   H35       1.0  0.6449057636905169  0.28132518426787095  0.8259617348278779  1.0000
  H   H36       1.0  0.18109427842234296  0.5447651735645563  0.8260223367652914  1.0000
  H   H37       1.0  0.7188526831068245  0.8187106786411252  0.17397112555192248  1.0000
  H   H38       1.0  0.45521777828809457  0.3550264074381886  0.1739659808531613  1.0000
  H   H39       1.0  0.35509770433217375  0.7186776391795819  0.17404407346064227  1.0000
  H   H40       1.0  0.8189055931231976  0.45523179474499653  0.17397231031009142  1.0000
  H   H41       1.0  0.31040809636185424  0.18222929901821067  0.7469276394283354  1.0000
  H   H42       1.0  0.4365114554065244  0.5648518243839079  0.7470760154476821  1.0000
  H   H43       1.0  0.5648988434976658  0.310704469721756  0.7469737136766953  1.0000
  H   H44       1.0  0.1822736468383611  0.4364736924241441  0.7470579487637111  1.0000
  H   H45       1.0  0.6895894824455695  0.8177703792750467  0.25307026448454206  1.0000
  H   H46       1.0  0.5634888728656621  0.4351478340312979  0.25292184752885294  1.0000
  H   H47       1.0  0.4351025562208193  0.6892924765049456  0.25302521010553386  1.0000
  H   H48       1.0  0.8177283635260366  0.5635232549049646  0.2529388161969166  1.0000
  H   H49       1.0  0.5224338907115823  0.018838901562134008  0.7613741554697881  1.0000
  H   H50       1.0  0.238770982416881  0.742586096053742  0.7611964167684916  1.0000
  H   H51       1.0  0.74268245987583  0.5224909428621558  0.761484033419201  1.0000
  H   H52       1.0  0.01880219195769692  0.23891040775846054  0.7613497605541967  1.0000
  H   H53       1.0  0.4775661907364607  0.9811597355062246  0.23862760827693547  1.0000
  H   H54       1.0  0.7612288070768402  0.2574189710031263  0.23880091301058573  1.0000
  H   H55       1.0  0.2573122925071942  0.4775100998107717  0.23851659879139933  1.0000
  H   H56       1.0  0.9811964582960188  0.7610865583462925  0.238649204164382  1.0000
  H   H57       1.0  0.6675936593447248  0.11057772084674866  0.6582281771091444  1.0000
  H   H58       1.0  0.9906113622376297  0.54767926786176  0.658191795108543  1.0000
  H   H59       1.0  0.547699127638886  0.667468403115187  0.6581091124212222  1.0000
  H   H60       1.0  0.11047861845195693  0.9905771353087047  0.6581435933374706  1.0000
  H   H61       1.0  0.3324068449025859  0.8894161983220955  0.3417684780477899  1.0000
  H   H62       1.0  0.009388799559708628  0.4523266309519586  0.3418093577418659  1.0000
  H   H63       1.0  0.4523038341188795  0.3325319261641298  0.34188306783172356  1.0000
  H   H64       1.0  0.8895224574827554  0.009420134072776459  0.34186191857632753  1.0000
  H   H65       1.0  0.522245301614511  0.12573752794178716  0.5532324940752744  1.0000
  H   H66       1.0  0.030977420754005884  0.4275724171891114  0.5531511253975836  1.0000
  H   H67       1.0  0.42764268655971455  0.5220814449739493  0.5530775897222001  1.0000
  H   H68       1.0  0.12561185047240997  0.030903537400085678  0.5531178169867346  1.0000
  H   H69       1.0  0.4777548513666261  0.8742538600762444  0.4467645039819459  1.0000
  H   H70       1.0  0.9690180392535482  0.5724269335397524  0.44684882567011636  1.0000
  H   H71       1.0  0.5723617738517249  0.47791870961519567  0.44691262014324445  1.0000
  H   H72       1.0  0.8743807871844923  0.9690917743118919  0.44688486610483136  1.0000
  H   H73       1.0  0.3640220240893513  0.12298436806456438  0.49489226603878933  1.0000
  H   H74       1.0  0.1309559941292165  0.3720124113271055  0.4948287156799723  1.0000
  H   H75       1.0  0.3721392408797186  0.36394942256318064  0.494879205480224  1.0000
  H   H76       1.0  0.12298178127768018  0.13065450462535466  0.49480304043488843  1.0000
  H   H77       1.0  0.6359784950847783  0.8770159568051384  0.5051085495005412  1.0000
  H   H78       1.0  0.8690487572791455  0.6279866669923636  0.5051852719486548  1.0000
  H   H79       1.0  0.6278592323804306  0.6360546336370732  0.5051209661264126  1.0000
  H   H80       1.0  0.877017235853117  0.8693373886875334  0.5051976690268845  1.0000
  H   H81       1.0  0.3182656649612597  0.14171023913940667  0.5697185866064346  1.0000
  H   H82       1.0  0.25151490646950947  0.4282001282968436  0.5696634508959093  1.0000
  H   H83       1.0  0.42833444292759304  0.31828746385519924  0.5697806004471319  1.0000
  H   H84       1.0  0.14165089204360734  0.25124673217759147  0.5695333530299251  1.0000
  H   H85       1.0  0.6817349332093698  0.8582860395303983  0.4302795434345937  1.0000
  H   H86       1.0  0.7484891308693449  0.5717960882671065  0.43034913861594504  1.0000
  H   H87       1.0  0.5716596597899652  0.6817129239558498  0.43021386143644236  1.0000
  H   H88       1.0  0.8583474944222831  0.7487455085777343  0.43046535021336746  1.0000
  H   H89       1.0  0.2975082123629704  0.028220661888070705  0.48204436444967774  1.0000
  H   H90       1.0  0.1845479844312621  0.45395954160183993  0.4819570637609445  1.0000
  H   H91       1.0  0.4540913434356499  0.2974428170934543  0.4820418896234955  1.0000
  H   H92       1.0  0.028177082761388347  0.1843221628739116  0.4818884820403326  1.0000
  H   H93       1.0  0.7024950603496763  0.9717742397070313  0.5179564138794533  1.0000
  H   H94       1.0  0.8154563892469538  0.5460328004120781  0.5180510224682208  1.0000
  H   H95       1.0  0.5459024069972926  0.7025563904159212  0.5179529142288358  1.0000
  H   H96       1.0  0.9718200549302766  0.8156672213710151  0.5181082936148799  1.0000
  H   H97       1.0  0.6647039518212666  0.08271218651921695  0.8934931311569018  1.0000
  H   H98       1.0  0.2286844629333587  0.810833595628509  0.8934929188370192  1.0000
  H   H99       1.0  0.810764209738899  0.664777350845597  0.893579490058606  1.0000
  H   H100      1.0  0.08266610385977922  0.22865270877608873  0.893507457190445  1.0000
  H   H101      1.0  0.335293364216753  0.9172814155754667  0.1065045122122328  1.0000
  H   H102      1.0  0.7713219949332669  0.18916567558817135  0.10650686848529756  1.0000
  H   H103      1.0  0.1892361290520057  0.3352214578726205  0.10642045590373068  1.0000
  H   H104      1.0  0.9173362842347643  0.7713509748585706  0.10649520916963695  1.0000
  H   H105      1.0  0.7549655410934337  0.024033996622883087  0.8966795416249554  1.0000
  H   H106      1.0  0.1415857423311095  0.8726653370433721  0.8966725775704846  1.0000
  H   H107      1.0  0.8725832251711197  0.7550356785598566  0.8967577135753262  1.0000
  H   H108      1.0  0.02393152739044509  0.14158769499440638  0.8966224791263429  1.0000
  H   H109      1.0  0.24503398766777448  0.9759622925371403  0.10331752947345049  1.0000
  H   H110      1.0  0.8584252559426275  0.12733996841097905  0.10333170606608633  1.0000
  H   H111      1.0  0.1274180891058876  0.2449607601671815  0.1032418164455393  1.0000
  H   H112      1.0  0.9760696278751197  0.8584181869815738  0.10338242095959055  1.0000
  H   H113      1.0  0.638104800915876  0.962285543620723  0.8139505388614339  1.0000
  H   H114      1.0  0.1758156412342445  0.8517949050781298  0.8140001501755237  1.0000
  H   H115      1.0  0.8517959987160567  0.6381753525911832  0.8141282777697542  1.0000
  H   H116      1.0  0.9621946666122911  0.17589383718296867  0.8139955761455085  1.0000
  H   H117      1.0  0.36189499570689787  0.03771006749217777  0.18604679743839364  1.0000
  H   H118      1.0  0.8241943941089644  0.14820921897213415  0.18600663425139152  1.0000
  H   H119      1.0  0.1482049602210367  0.36182395838159215  0.1858715914252542  1.0000
  H   H120      1.0  0.03780737767947778  0.8241105181513008  0.18600951330606105  1.0000
  H   H121      1.0  0.7859369785979666  0.1666913642549446  0.7991873383020051  1.0000
  H   H122      1.0  0.013287281269740098  0.6325508687783953  0.7992186042971525  1.0000
  H   H123      1.0  0.632383261959383  0.7858043430710423  0.7992113847647956  1.0000
  H   H124      1.0  0.16648883782001195  0.013045141150989434  0.7990703555979337  1.0000
  H   H125      1.0  0.21406043034493652  0.8333059481898317  0.20081177901968766  1.0000
  H   H126      1.0  0.9867127665852847  0.3674530190791999  0.20077690862908065  1.0000
  H   H127      1.0  0.36761948249351667  0.21419511746874062  0.2007909433526791  1.0000
  H   H128      1.0  0.8335100097806246  0.9869570451078216  0.2009336409430985  1.0000
  H   H129      1.0  0.8398912872223293  0.13807819741985128  0.8875335196676702  1.0000
  H   H130      1.0  0.0476539263836955  0.7495243769644376  0.8875858059500317  1.0000
  H   H131      1.0  0.7493514194347811  0.8397862976561542  0.8875742846902669  1.0000
  H   H132      1.0  0.13778579728802504  0.04747604039270928  0.8873821323034933  1.0000
  H   H133      1.0  0.1601059393004718  0.8619203005717183  0.11246472621395755  1.0000
  H   H134      1.0  0.9523504940507975  0.2504804775840768  0.11241541856232834  1.0000
  H   H135      1.0  0.25064954900258846  0.1602135144687722  0.1124276665590145  1.0000
  H   H136      1.0  0.862213755900278  0.9525271556203235  0.11262118123158146  1.0000
  H   H137      1.0  0.7537371381818829  0.20272102060344108  0.8856097464029702  1.0000
  H   H138      1.0  0.13188559175226544  0.6829988163177773  0.8856133262969338  1.0000
  H   H139      1.0  0.6828358693618599  0.7536158939008076  0.8856112340260368  1.0000
  H   H140      1.0  0.20258453221700992  0.1316030609467447  0.8855496365223345  1.0000
  H   H141      1.0  0.24625893450845388  0.7972756295295511  0.11438804770620693  1.0000
  H   H142      1.0  0.8681168627831896  0.31700437251224406  0.11438456971596624  1.0000
  H   H143      1.0  0.31716482375053096  0.24638139342081186  0.11438837183062123  1.0000
  H   H144      1.0  0.7974135043354948  0.8683979566030191  0.11445148422323109  1.0000
  H   H145      1.0  0.6766502619331405  0.9105512549875883  0.6849294291109089  1.0000
  H   H146      1.0  0.008240951164218224  0.774446063957143  0.6848887581491709  1.0000
  H   H147      1.0  0.7745712450901223  0.6764975488254806  0.6850162988853867  1.0000
  H   H148      1.0  0.9103659073176689  0.008491930231677726  0.6848301045021686  1.0000
  H   H149      1.0  0.3233500683759161  0.08944570172933908  0.31506843572869764  1.0000
  H   H150      1.0  0.9917651632339926  0.2255665377535508  0.3151155259350772  1.0000
  H   H151      1.0  0.22543389246919085  0.32350611493112785  0.31498632653835307  1.0000
  H   H152      1.0  0.08963196785216343  0.9915085734709022  0.31517431077494956  1.0000
  H   H153      1.0  0.7948392244514223  0.9660267649422705  0.7709405127804769  1.0000
  H   H154      1.0  0.9760398463341105  0.8049845892173124  0.7709167936556723  1.0000
  H   H155      1.0  0.8050371814296186  0.7947061020413744  0.7709925970434384  1.0000
  H   H156      1.0  0.9657092109485177  0.9761951700740497  0.7707754664680097  1.0000
  H   H157      1.0  0.2051615530839968  0.0339723807281587  0.229058485906009  1.0000
  H   H158      1.0  0.023969924537190886  0.19502881912706732  0.2290918020348727  1.0000
  H   H159      1.0  0.1949659237897379  0.2052963908013794  0.22901147022802348  1.0000
  H   H160      1.0  0.0342900089557219  0.0238078479416117  0.2292323531443543  1.0000
  H   H161      1.0  0.7414282145307923  0.9927417861974351  0.6810084617886646  1.0000
  H   H162      1.0  0.9396085774683274  0.6883436400745141  0.6809950222847122  1.0000
  H   H163      1.0  0.6884452247525772  0.7412765602984381  0.6810035524993269  1.0000
  H   H164      1.0  0.992468269845361  0.9396902629386761  0.680848817459925  1.0000
  H   H165      1.0  0.25857140713529253  0.0072582133126886  0.31899008326229966  1.0000
  H   H166      1.0  0.06039647600229612  0.3116708241276953  0.3190102839796509  1.0000
  H   H167      1.0  0.3115580503312927  0.2587282983927892  0.31899930136332705  1.0000
  H   H168      1.0  0.007530502832509007  0.06031056612348349  0.3191578683055596  1.0000
  C   C1        1.0  0.3654241693350145  0.03264460193097554  0.7594283057931435  1.0000
  C   C2        1.0  0.39383647586607395  0.7268901337914285  0.7594103264379228  1.0000
  C   C3        1.0  0.7270104942122942  0.36554884942314914  0.7595045254345437  1.0000
  C   C4        1.0  0.03268495031166914  0.39388210905948273  0.7595235302599264  1.0000
  C   C5        1.0  0.634575813097527  0.9673584298821186  0.2405719784118006  1.0000
  C   C6        1.0  0.6061618875255094  0.273106508056145  0.24058420897068794  1.0000
  C   C7        1.0  0.27298744638001443  0.6344525103239392  0.24049511856385666  1.0000
  C   C8        1.0  0.9673164494068162  0.6061148371672261  0.2404753935223027  1.0000
  C   C9        1.0  0.40676268635656504  0.1336950388354907  0.8341910618775331  1.0000
  C   C10       1.0  0.42728991954651724  0.7006416206733946  0.8342269710359532  1.0000
  C   C11       1.0  0.7007118038186705  0.40696931556075094  0.8343019176095369  1.0000
  C   C12       1.0  0.13377145526785478  0.42732996557941766  0.834302127860127  1.0000
  C   C13       1.0  0.5932349863741708  0.8663069989587131  0.16580831691944553  1.0000
  C   C14       1.0  0.5727122786645111  0.29936004565762175  0.1657727436928694  1.0000
  C   C15       1.0  0.29928871433701687  0.5930323601580908  0.16569889699825774  1.0000
  C   C16       1.0  0.8662269176240044  0.5726671774203068  0.16569448960274977  1.0000
  C   C17       1.0  0.3403727193146437  0.1962292854655985  0.8179112293504218  1.0000
  C   C18       1.0  0.4774899317735902  0.6218896624675523  0.8180122573392127  1.0000
  C   C19       1.0  0.6218529823453308  0.3405914236765425  0.8179440393026027  1.0000
  C   C20       1.0  0.19621094775638429  0.47751616406986125  0.8180198551092347  1.0000
  C   C21       1.0  0.6596239799668523  0.8037724206215132  0.18208856725109968  1.0000
  C   C22       1.0  0.5225118097107925  0.37810931375781837  0.18198424148845765  1.0000
  C   C23       1.0  0.3781488730813649  0.6594095635049442  0.1820580994492361  1.0000
  C   C24       1.0  0.8037876814599088  0.5224825014288683  0.18197494363772648  1.0000
  C   C25       1.0  0.4400747740584949  0.05115525301042109  0.6557549839094606  1.0000
  C   C26       1.0  0.215555212369317  0.6046679664638646  0.6556040855741543  1.0000
  C   C27       1.0  0.604807319052732  0.4400704732384569  0.6557333346250901  1.0000
  C   C28       1.0  0.05115152132120214  0.21565130235219243  0.6557323578850784  1.0000
  C   C29       1.0  0.5599229017275462  0.9488427322363718  0.3442443976821182  1.0000
  C   C30       1.0  0.7844463762142411  0.3953323479156196  0.34439778890780554  1.0000
  C   C31       1.0  0.3951917763904831  0.5599313835180694  0.3442667620772967  1.0000
  C   C32       1.0  0.9488434029631989  0.7843494044709232  0.3442670627797782  1.0000
  C   C33       1.0  0.523447625456086  0.043564635475632905  0.7168024978368592  1.0000
  C   C34       1.0  0.1932218462044377  0.6732905361507167  0.7166397446595171  1.0000
  C   C35       1.0  0.6733981255067221  0.5234378841789751  0.7168227927289337  1.0000
  C   C36       1.0  0.04351402486008747  0.1933175818548207  0.7167533533097697  1.0000
  C   C37       1.0  0.4765508423775275  0.9564335161759134  0.2831955954416472  1.0000
  C   C38       1.0  0.8067806303868892  0.32670960243619623  0.2833623182565361  1.0000
  C   C39       1.0  0.3265995662245729  0.47656515591953763  0.2831807501765836  1.0000
  C   C40       1.0  0.9564845389337221  0.8066802275994008  0.2832462167159094  1.0000
  C   C41       1.0  0.607274793724571  0.06528133261592474  0.7203725571983243  1.0000
  C   C42       1.0  0.11300624585510384  0.6551422387272154  0.7202814831012958  1.0000
  C   C43       1.0  0.6551532072980707  0.6072152132875387  0.7203454553299125  1.0000
  C   C44       1.0  0.06520613371223757  0.11305950913694568  0.7203184060593415  1.0000
  C   C45       1.0  0.3927200386733887  0.9347143130079517  0.27962539044550994  1.0000
  C   C46       1.0  0.8869948734462201  0.34485893694187564  0.2797150906306315  1.0000
  C   C47       1.0  0.34484649980948495  0.39278529372225535  0.27965248348240834  1.0000
  C   C48       1.0  0.9347910189062462  0.8869362808088326  0.2796825299782738  1.0000
  C   C49       1.0  0.6045237527376486  0.09415268364062974  0.6594640857867944  1.0000
  C   C50       1.0  0.054875824584442436  0.5653784102433048  0.6593827868589911  1.0000
  C   C51       1.0  0.5653976471989495  0.6044323597920922  0.6593607736220974  1.0000
  C   C52       1.0  0.09406098908431905  0.054885279342109086  0.6593932666787126  1.0000
  C   C53       1.0  0.395481034573919  0.905847098116027  0.340538883468767  1.0000
  C   C54       1.0  0.9451257504250917  0.4346268063805781  0.3406170018425456  1.0000
  C   C55       1.0  0.43460426414994663  0.39556898228175197  0.34063451179675747  1.0000
  C   C56       1.0  0.9059347398032501  0.9451120424904932  0.34060695052195206  1.0000
  C   C57       1.0  0.5218170293334339  0.10266264818618251  0.5993857438996812  1.0000
  C   C58       1.0  0.07752209943344485  0.49680371933538237  0.5992670174681792  1.0000
  C   C59       1.0  0.49686955869666605  0.5217123512456255  0.5992730435466953  1.0000
  C   C60       1.0  0.10257662658082717  0.0775236173920035  0.5993053956552927  1.0000
  C   C61       1.0  0.4781856222145819  0.8973331020035076  0.4006151102652352  1.0000
  C   C62       1.0  0.9224777975576258  0.5031988049780481  0.40073387297540103  1.0000
  C   C63       1.0  0.50312817199314  0.4782873397426572  0.4007194837803638  1.0000
  C   C64       1.0  0.8974151895092248  0.9224713753079142  0.4006923286549976  1.0000
  C   C65       1.0  0.4376900764360059  0.08264353541244422  0.5963680132351854  1.0000
  C   C66       1.0  0.1585985254319198  0.513803928512857  0.5962309728800435  1.0000
  C   C67       1.0  0.5139273021669767  0.43764675645048373  0.5962950818490712  1.0000
  C   C68       1.0  0.08260430653692197  0.15861391836715202  0.5962875174948223  1.0000
  C   C69       1.0  0.5623103498332399  0.9173530791071657  0.403631328351587  1.0000
  C   C70       1.0  0.8414020147796392  0.4861946969628762  0.40377400863089724  1.0000
  C   C71       1.0  0.48607150539567107  0.5623561268980098  0.4037005846118121  1.0000
  C   C72       1.0  0.9173917681902921  0.8413800300675547  0.4037102784774332  1.0000
  C   C73       1.0  0.3499186949199569  0.09462896216348336  0.532372575380748  1.0000
  C   C74       1.0  0.1824858611503402  0.4378671056330107  0.5322941095678075  1.0000
  C   C75       1.0  0.43799565565176835  0.34989455490146076  0.5323614183949418  1.0000
  C   C76       1.0  0.09459197504552469  0.18226080059093158  0.5322329797218758  1.0000
  C   C77       1.0  0.6500828957004715  0.9053686505177226  0.46762930096428346  1.0000
  C   C78       1.0  0.8175194090174785  0.5621269125896264  0.4677162462181955  1.0000
  C   C79       1.0  0.5619994164412816  0.6501115680132443  0.46763262195795346  1.0000
  C   C80       1.0  0.9054042726015015  0.8177314611448382  0.46776360563616504  1.0000
  C   C81       1.0  0.6984641011218644  0.054540507848784586  0.7850947532102808  1.0000
  C   C82       1.0  0.08656934769552287  0.7306299014165489  0.7850589521658478  1.0000
  C   C83       1.0  0.730588257137704  0.6984167386952007  0.7851106001264369  1.0000
  C   C84       1.0  0.05438546502615801  0.08659816360434998  0.7850115891911145  1.0000
  C   C85       1.0  0.3015358769025838  0.9454552685664626  0.21490345359807622  1.0000
  C   C86       1.0  0.9134364944330144  0.2693761229434203  0.21494298932038458  1.0000
  C   C87       1.0  0.26941146150701195  0.30158156776845857  0.21488942260322821  1.0000
  C   C88       1.0  0.945610892489441  0.9134015124841  0.214990632364959  1.0000
  C   C89       1.0  0.6877487399913208  0.02942191024894921  0.8507344636890012  1.0000
  C   C90       1.0  0.1629084219800491  0.8213574722580503  0.8507427364908083  1.0000
  C   C91       1.0  0.8213197355786122  0.6877935289884078  0.8508302875073497  1.0000
  C   C92       1.0  0.02933338641486232  0.1629277755579892  0.8507209775532446  1.0000
  C   C93       1.0  0.3122458940412898  0.9705698660700078  0.14925845120082928  1.0000
  C   C94       1.0  0.8371001736869985  0.17864312882731784  0.1492591677852316  1.0000
  C   C95       1.0  0.1786808710738654  0.31220460168268727  0.14916992365640877  1.0000
  C   C96       1.0  0.9706664346350139  0.8370747424079213  0.14928260118325196  1.0000
  C   C97       1.0  0.7736991362910433  0.14595680358296895  0.8424705580205726  1.0000
  C   C98       1.0  0.06874412194441253  0.6965654146837963  0.8424592077711921  1.0000
  C   C99       1.0  0.6964301500811914  0.7736048762502676  0.84246694362038  1.0000
  C   C100      1.0  0.14574767840951364  0.0685784900206059  0.842343672407914  1.0000
  C   C101      1.0  0.2262992471195417  0.8540394897197672  0.15752814242811303  1.0000
  C   C102      1.0  0.9312569173419689  0.3034411580343389  0.15754005052750847  1.0000
  C   C103      1.0  0.30357374820417254  0.22639643214809974  0.15753583626954537  1.0000
  C   C104      1.0  0.8542518662969342  0.931422853991144  0.15765756000442363  1.0000
  C   C105      1.0  0.7297040889469529  0.9763421862879302  0.7269361052713351  1.0000
  C   C106      1.0  0.9972058011415967  0.7507003570865294  0.7269290819250926  1.0000
  C   C107      1.0  0.7507566433174233  0.7295905998182378  0.7269954037890756  1.0000
  C   C108      1.0  0.9761017866909256  0.9973427103970849  0.726811912012856  1.0000
  C   C109      1.0  0.27029828320233673  0.023656442495010307  0.27306239977481545  1.0000
  C   C110      1.0  0.002798902081288286  0.24931022511572115  0.27307656817109205  1.0000
  C   C111      1.0  0.24924815043911513  0.2704137356379804  0.2730096447261516  1.0000
  C   C112      1.0  0.023896089497341715  0.002656442456355989  0.2731925041957979  1.0000
  S   S1        1.0  0.33262810922780517  0.01701833853258711  0.6470667046663436  1.0000
  S   S2        1.0  0.3143929825276572  0.6301575315901502  0.6470062739859799  1.0000
  S   S3        1.0  0.6302861437983724  0.3326772267424118  0.6471350059836851  1.0000
  S   S4        1.0  0.017046315280204435  0.3144219533284911  0.6471205494510813  1.0000
  S   S5        1.0  0.6673699178244163  0.9829821778650255  0.35293233402495616  1.0000
  S   S6        1.0  0.6856070873832325  0.369843306024329  0.3529934058433994  1.0000
  S   S7        1.0  0.3697107368847909  0.6673246446470458  0.35286566112635853  1.0000
  S   S8        1.0  0.9829526892949971  0.6855734913796567  0.35287807516181147  1.0000
  I   I1        1.0  0.20106067767378027  0.8278756087430709  0.3872239697177236  1.0000
  I   I2        1.0  0.18592550356878956  0.5594605492572384  0.38721702972681277  1.0000
  I   I3        1.0  0.5594154818522128  0.20107153636337932  0.38728583170854586  1.0000
  I   I4        1.0  0.8278472681062328  0.18587622294684533  0.38723832537272074  1.0000
  I   I5        1.0  0.7989367282138177  0.17212575624912313  0.6127751448093619  1.0000
  I   I6        1.0  0.8140759066684141  0.4405355472724751  0.6127839770412252  1.0000
  I   I7        1.0  0.4405778288177729  0.798928685042924  0.6127099184881004  1.0000
  I   I8        1.0  0.17214925079203897  0.8141239669887811  0.6127606016518002  1.0000
  O   O1        1.0  0.44641566742672034  0.3444545795650383  0.9999108168591065  1.0000
  O   O2        1.0  0.553584746286937  0.6555455863498311  8.643987878546068e-05  1.0000
  O   O3        1.0  0.6554716614846329  0.44645345329256964  0.999939042940291  1.0000
  O   O4        1.0  0.34452680431211036  0.5535474000572549  5.904847515128352e-05  1.0000
  O   O5        1.0  0.4867835420998716  0.33388981915781096  0.8731643505448473  1.0000
  O   O6        1.0  0.3865133583166766  0.5394251673025963  0.873326602952524  1.0000
  O   O7        1.0  0.5391567369924246  0.48676035588199074  0.873237564044004  1.0000
  O   O8        1.0  0.3340691802902356  0.3865850098767254  0.8731969202108587  1.0000
  O   O9        1.0  0.5132149162334727  0.666107831341577  0.126831660679393  1.0000
  O   O10       1.0  0.6134862687759437  0.46058073675623507  0.12667402042657025  1.0000
  O   O11       1.0  0.4608371094007068  0.5132385094300603  0.12675871655549284  1.0000
  O   O12       1.0  0.6659323102962631  0.613418348398355  0.12680347566085706  1.0000
