data_image0
_chemical_formula_structural       Zn4H57C96N20F3
_chemical_formula_sum              "Zn4 H57 C96 N20 F3"
_cell_length_a       20.14590559017201
_cell_length_b       20.117157383402386
_cell_length_c       19.786936652851555
_cell_angle_alpha    105.70326180780359
_cell_angle_beta     107.62391150946512
_cell_angle_gamma    111.61100765994038

_space_group_name_H-M_alt    "P 1"
_space_group_IT_number       1

loop_
  _space_group_symop_operation_xyz
  'x, y, z'

loop_
  _atom_site_type_symbol
  _atom_site_label
  _atom_site_symmetry_multiplicity
  _atom_site_fract_x
  _atom_site_fract_y
  _atom_site_fract_z
  _atom_site_occupancy
  Zn  Zn1       1.0  0.8832840635352711  0.8925637541137732  0.5132578805571698  1.0000
  Zn  Zn2       1.0  0.0959786530570526  0.0703960262338655  0.4743720269878794  1.0000
  Zn  Zn3       1.0  0.08087348446533577  0.9777758290175953  0.6161756056633224  1.0000
  Zn  Zn4       1.0  0.8951822334113542  0.9950868607007166  0.39500937085098536  1.0000
  H   H1        1.0  0.8373710833650633  0.9019205886273697  0.6723384192962172  1.0000
  H   H2        1.0  0.5694621504433074  0.21009734654778367  0.6391589505795141  1.0000
  H   H3        1.0  0.5422512971261568  0.0196410833934523  0.6787362209726882  1.0000
  H   H4        1.0  0.1484220389973388  0.2476708523848573  0.4702565673187566  1.0000
  H   H5        1.0  0.5800167721425497  0.9630064984603807  0.5550996426312409  1.0000
  H   H6        1.0  0.4758174371000836  0.0003301254462187721  0.4589820766378099  1.0000
  H   H7        1.0  0.6071398221966291  0.15382749684680871  0.5156575409834049  1.0000
  H   H8        1.0  0.06694626729593275  0.5816252256616253  0.5357566059189197  1.0000
  H   H9        1.0  0.8679927354877819  0.4450042278706193  0.3299823699653004  1.0000
  H   H10       1.0  0.08283757118421434  0.5384565547178328  0.3325832597280752  1.0000
  H   H11       1.0  0.14989126927736154  0.5186157196001133  0.4690691169468197  1.0000
  H   H12       1.0  0.2573656283249123  0.08447684841306123  0.4687247415355743  1.0000
  H   H13       1.0  0.3754243314518463  0.19488201950331074  0.8326200623067451  1.0000
  H   H14       1.0  0.26079730009643504  0.10101365974051651  0.7514489084833402  1.0000
  H   H15       1.0  0.6002267521452254  0.47330727846921417  0.13787711010916587  1.0000
  H   H16       1.0  0.6789345464930393  0.6001691661044716  0.25937935751714036  1.0000
  H   H17       1.0  0.6991669588992622  0.5936784779415376  0.013360995818970907  1.0000
  H   H18       1.0  0.5180282877129871  0.4298077501232457  0.7954731360397106  1.0000
  H   H19       1.0  0.8956444296599598  0.007915805388527998  0.10265210843909504  1.0000
  H   H20       1.0  0.9096251476848707  0.09521429780218676  0.03438499737944058  1.0000
  H   H21       1.0  0.8726552759565465  0.14628848372024816  0.8991904365742444  1.0000
  H   H22       1.0  0.8477713019220444  0.044431427602383174  0.7764218008537683  1.0000
  H   H23       1.0  0.10354129530729494  0.8140786335812606  0.5844457817563722  1.0000
  H   H24       1.0  0.1310781225184385  0.17821407248207072  0.2915327691080947  1.0000
  H   H25       1.0  0.1431941771582856  0.2679263248322883  0.22501554930895656  1.0000
  H   H26       1.0  0.08123402389752268  0.07341897573200402  0.895808148761056  1.0000
  H   H27       1.0  0.22631710631658572  0.23268735608554192  0.6159037517534431  1.0000
  H   H28       1.0  0.8739117413070401  0.028705404787750556  0.6357561664222261  1.0000
  H   H29       1.0  0.9032706304774509  0.16453243953429814  0.43363686525047035  1.0000
  H   H30       1.0  0.08375857088166337  0.0831804205564525  0.7686396445968173  1.0000
  H   H31       1.0  0.7273880064428582  0.7147820528095608  0.3608283830265364  1.0000
  H   H32       1.0  0.6290002061319128  0.3182586993581113  0.9364571549723737  1.0000
  H   H33       1.0  0.6883346984605366  0.2785635898494903  0.036956611513659345  1.0000
  H   H34       1.0  0.8727122256488113  0.01973377178197218  0.23078686984793978  1.0000
  H   H35       1.0  0.6129238143006787  0.22456466549513723  0.10616953390052698  1.0000
  H   H36       1.0  0.4771294298557863  0.2104523026129144  0.07334830785508471  1.0000
  H   H37       1.0  0.4183401457500934  0.25075113920090797  0.9732105030190823  1.0000
  H   H38       1.0  0.3758574034153456  0.4277974551047026  0.7116283327673758  1.0000
  H   H39       1.0  0.3220134329896496  0.4295807657848698  0.5816142032650902  1.0000
  H   H40       1.0  0.295382920959156  0.32240121231347973  0.46109913594592206  1.0000
  H   H41       1.0  0.32497782316559665  0.21475897142579473  0.47189489746036634  1.0000
  H   H42       1.0  0.37680627494743396  0.21212414729139087  0.6018407127236787  1.0000
  H   H43       1.0  0.7833546079499883  0.1779429033386038  0.49959587820278284  1.0000
  H   H44       1.0  0.7180362488160056  0.21477467322650773  0.39937595182369284  1.0000
  H   H45       1.0  0.10884663572307575  0.04348345262199874  0.3179629475131876  1.0000
  H   H46       1.0  0.6589317206371064  0.1271219120614333  0.25673639212448063  1.0000
  H   H47       1.0  0.6652689908930682  0.0019056627374922216  0.2153196214159792  1.0000
  H   H48       1.0  0.7286814965637447  0.9639843727892128  0.315498203550206  1.0000
  H   H49       1.0  0.15872466275047972  0.30203919066214274  0.05630657873507519  1.0000
  H   H50       1.0  0.2938457378714078  0.36054680827182756  0.16468188148448357  1.0000
  H   H51       1.0  0.34132601376564503  0.27335455520832136  0.2064036670252989  1.0000
  H   H52       1.0  0.2519974592846097  0.12663840102197813  0.13815348462431845  1.0000
  H   H53       1.0  0.1164890393338354  0.06839359619278439  0.029734780299591507  1.0000
  H   H54       1.0  0.8828736181006748  0.7445760545079808  0.3892305993299633  1.0000
  H   H55       1.0  0.8552151828612011  0.8416589967867695  0.2552769924184375  1.0000
  H   H56       1.0  0.21072286611323698  0.9227091301310751  0.5763208702050024  1.0000
  H   H57       1.0  0.6731715719116947  0.17302748366206103  0.7350478413430255  1.0000
  C   C1        1.0  0.8984271313405687  0.9397248993951238  0.6846680554356795  1.0000
  C   C2        1.0  0.9366728861218974  0.7738028317069664  0.4442218608034595  1.0000
  C   C3        1.0  0.8301385375796003  0.8218218936225768  0.2919786292970486  1.0000
  C   C4        1.0  0.08815331958628297  0.21603854367526065  0.46323688324095985  1.0000
  C   C5        1.0  0.20811011406004096  0.9605225868978522  0.5466059174274847  1.0000
  C   C6        1.0  0.7735307585109793  0.7454266636157598  0.2760953669483969  1.0000
  C   C7        1.0  0.2689011804826152  0.009049999328453986  0.5324933058042378  1.0000
  C   C8        1.0  0.9929475636636197  0.7488170502115068  0.46843134282576676  1.0000
  C   C9        1.0  0.9972368955289498  0.044715978407651825  0.2499957352440348  1.0000
  C   C10       1.0  0.5724712625002584  0.15532286604740622  0.6203974953350483  1.0000
  C   C11       1.0  0.628984260369002  0.1343056911932694  0.6736344402705614  1.0000
  C   C12       1.0  0.02589720343016923  0.23447744313635618  0.4447673241916733  1.0000
  C   C13       1.0  0.7693912460336207  0.0950370380469749  0.5845564247064132  1.0000
  C   C14       1.0  0.34883010233697587  0.026482161962356192  0.5560309089400165  1.0000
  C   C15       1.0  0.5917336249019486  0.12366478153072796  0.5515333277321234  1.0000
  C   C16       1.0  0.23994538716893743  0.12433940808448801  0.7111302707232243  1.0000
  C   C17       1.0  0.6495918954318542  0.10247549955075655  0.6046273951968006  1.0000
  C   C18       1.0  0.5207501161992314  0.03869890509805184  0.5201650817551668  1.0000
  C   C19       1.0  0.49927944851617684  0.06967044508989798  0.5887400554969563  1.0000
  C   C20       1.0  0.5760774546505515  0.017255592026565136  0.5734787459469362  1.0000
  C   C21       1.0  0.557418173009431  0.04937696616234891  0.6425049811630502  1.0000
  C   C22       1.0  0.7216084505013856  0.10908595215827444  0.6029076571950187  1.0000
  C   C23       1.0  0.28168811611163846  0.19368600850409476  0.7043447279556646  1.0000
  C   C24       1.0  0.4198354267754709  0.04905746804770689  0.5756895114055071  1.0000
  C   C25       1.0  0.04197053288278594  0.5369503517562962  0.4759671998685776  1.0000
  C   C26       1.0  0.9690165378036684  0.45237773950636045  0.4369155404342281  1.0000
  C   C27       1.0  0.02493643415832039  0.2975414912339788  0.42739594069058756  1.0000
  C   C28       1.0  0.8023352390736774  0.04849987870436218  0.4734993699700923  1.0000
  C   C29       1.0  0.9928435738940776  0.6782595935381011  0.43167957868038803  1.0000
  C   C30       1.0  0.08747234668333452  0.5033311583844053  0.4387193786140601  1.0000
  C   C31       1.0  0.015377930315438037  0.41582152070586903  0.4017172218127457  1.0000
  C   C32       1.0  0.05058041974458399  0.5139313862018042  0.3631043576793331  1.0000
  C   C33       1.0  0.003892769539582795  0.5485713296744663  0.4001174597140393  1.0000
  C   C34       1.0  0.8111551912929612  0.06575151394806503  0.551277490549289  1.0000
  C   C35       1.0  0.9778771361663133  0.428799945659442  0.326302869412146  1.0000
  C   C36       1.0  0.93060085617865  0.46141490060149704  0.3613570495238039  1.0000
  C   C37       1.0  0.02095916970922936  0.3503263162746181  0.4102319063822365  1.0000
  C   C38       1.0  0.9981445690421112  0.6184000852018913  0.4094442211682933  1.0000
  C   C39       1.0  0.7328506124407711  0.6707671488048987  0.20626542185035393  1.0000
  C   C40       1.0  0.2218549696025819  0.19054642964244567  0.6411499464615604  1.0000
  C   C41       1.0  0.7378082071707013  0.6643286719180921  0.13527278013810937  1.0000
  C   C42       1.0  0.6949293296127551  0.5946847337048808  0.0671669488799793  1.0000
  C   C43       1.0  0.6433619972430974  0.5254118507893112  0.06810061113667842  1.0000
  C   C44       1.0  0.6398671286941138  0.528137800593413  0.13864408598554692  1.0000
  C   C45       1.0  0.7644423769479333  0.7571338477060935  0.3456678522090186  1.0000
  C   C46       1.0  0.6836007544271611  0.5991583353016807  0.20570785431491603  1.0000
  C   C47       1.0  0.4816566035785642  0.30472590945967687  0.8830738982927004  1.0000
  C   C48       1.0  0.4055025804817447  0.24726660503604603  0.8243428463170945  1.0000
  C   C49       1.0  0.5192363182090176  0.37521355471186274  0.8745704075397711  1.0000
  C   C50       1.0  0.36573937486266334  0.2529237000268766  0.7557394055803786  1.0000
  C   C51       1.0  0.41029157877829203  0.3167392505230852  0.7421112858732146  1.0000
  C   C52       1.0  0.8552220249925993  0.030435640806508946  0.5791176616251975  1.0000
  C   C53       1.0  0.4852957632716085  0.3773015235440199  0.8024765843581465  1.0000
  C   C54       1.0  0.9635755068892777  0.052019247921720094  0.827169074322299  1.0000
  C   C55       1.0  0.03413338332576653  0.08763200568854775  0.8968489607776037  1.0000
  C   C56       1.0  0.23272994943420855  0.04316120535558814  0.49157341510739644  1.0000
  C   C57       1.0  0.04908798648866544  0.1440964133334436  0.9672421327716026  1.0000
  C   C58       1.0  0.9894330593036289  0.1655761029406335  0.9668932028165218  1.0000
  C   C59       1.0  0.9171633156474569  0.1280049768994546  0.8981125654001831  1.0000
  C   C60       1.0  0.9033645060713624  0.07080906138138233  0.8296423027962448  1.0000
  C   C61       1.0  0.9585772627157851  0.11277123853738402  0.09005319311392415  1.0000
  C   C62       1.0  0.9508368466598895  0.06405095309728649  0.12859353579420957  1.0000
  C   C63       1.0  0.027596973458578606  0.18725434862383145  0.12574630181973132  1.0000
  C   C64       1.0  0.9627243171970576  0.17311918651765992  0.44512901341244787  1.0000
  C   C65       1.0  0.012073427356405386  0.0870235195206277  0.20206435929534192  1.0000
  C   C66       1.0  0.08336258734632201  0.15922833114348836  0.23422626682982892  1.0000
  C   C67       1.0  0.04947203854992921  0.8089002053994392  0.5442565822844471  1.0000
  C   C68       1.0  0.09026581620396709  0.2097539961549231  0.19785841242702423  1.0000
  C   C69       1.0  0.024346644241312335  0.03178950299786733  0.7338121865904272  1.0000
  C   C70       1.0  0.9605235786874149  0.007348652085255824  0.7531947016166147  1.0000
  C   C71       1.0  0.5195426279261426  0.28731767790108625  0.9478534922620697  1.0000
  C   C72       1.0  0.5959258704013666  0.2949974946138741  0.9668559511971113  1.0000
  C   C73       1.0  0.6291793936862788  0.27261311740580396  0.02334315591935616  1.0000
  C   C74       1.0  0.5868045054282689  0.24210118700705147  0.06204357276074294  1.0000
  C   C75       1.0  0.5107927836304498  0.2340542108874927  0.04350531891468273  1.0000
  C   C76       1.0  0.47732454550461517  0.2561669400812933  0.9866905952209424  1.0000
  C   C77       1.0  0.3797214407775371  0.3198640162363874  0.6653607929705319  1.0000
  C   C78       1.0  0.9274003342674816  0.018932520909402232  0.2599342185229717  1.0000
  C   C79       1.0  0.3648144195666705  0.38125717953681015  0.6589449135859697  1.0000
  C   C80       1.0  0.3342466203363585  0.3819683559655403  0.5857813733535197  1.0000
  C   C81       1.0  0.3190483601534311  0.3217412744339612  0.5181860100457527  1.0000
  C   C82       1.0  0.33511789156356286  0.2610475796857869  0.5242725621079671  1.0000
  C   C83       1.0  0.3650024166354057  0.259902780428682  0.5971554996515352  1.0000
  C   C84       1.0  0.7617981450785719  0.06914176427113727  0.4145592216699826  1.0000
  C   C85       1.0  0.7571444092274718  0.1392597981062025  0.43730142053598803  1.0000
  C   C86       1.0  0.7203710136639501  0.15977730556034686  0.3807823221315019  1.0000
  C   C87       1.0  0.6875832764106419  0.11086673258126474  0.300807156143904  1.0000
  C   C88       1.0  0.6915275217672062  0.04087638793131985  0.2775890946034139  1.0000
  C   C89       1.0  0.048588576728683136  0.03292435003010049  0.30588865332616433  1.0000
  C   C90       1.0  0.7280052623615489  0.019936552560139372  0.33385659428887493  1.0000
  C   C91       1.0  0.12832612384438138  0.1810939001866032  0.0354047141214053  1.0000
  C   C92       1.0  0.17901583788329126  0.2635885662652128  0.07436384707482799  1.0000
  C   C93       1.0  0.2550678140703937  0.2963813644230768  0.1354318559893386  1.0000
  C   C94       1.0  0.28176485493114  0.24749702761302222  0.1587354208313201  1.0000
  C   C95       1.0  0.23183954610153987  0.16538255966384702  0.12038978609302123  1.0000
  C   C96       1.0  0.1558359312942557  0.13249603510327998  0.05918112324939531  1.0000
  N   N1        1.0  0.9240681153626227  0.9248392040616339  0.6294461954576391  1.0000
  N   N2        1.0  0.5837212668975695  0.4478976444868509  0.9360928387846459  1.0000
  N   N3        1.0  0.00547294623887499  0.2342581280276619  0.028749483422941997  1.0000
  N   N4        1.0  0.06245256301266985  0.1489273919924728  0.47264903594435753  1.0000
  N   N5        1.0  0.03040823737563872  0.24684630391409002  0.0995933154612558  1.0000
  N   N6        1.0  0.16347132109777368  0.08447149559355446  0.6562112183908015  1.0000
  N   N7        1.0  0.8375834828063233  0.004607504549376408  0.45811601607646685  1.0000
  N   N8        1.0  0.1512766675194612  0.12443247684417005  0.6118250373720998  1.0000
  N   N9        1.0  0.8703404566778018  0.9933840661907071  0.5227299668803767  1.0000
  N   N10       1.0  0.9851321364617363  0.12167788498491218  0.4613259320276344  1.0000
  N   N11       1.0  0.0019479374945419897  0.9826727777251705  0.6600056049668626  1.0000
  N   N12       1.0  0.1577937915052275  0.017159555069348326  0.48404410675498627  1.0000
  N   N13       1.0  0.8114262469880059  0.8336591021047682  0.3977355717874147  1.0000
  N   N14       1.0  0.027265955558121516  0.8635826660286983  0.5634469213282289  1.0000
  N   N15       1.0  0.9377808315897694  0.9952640201225194  0.3177793776571321  1.0000
  N   N16       1.0  0.012655498784596418  0.0033351171978708294  0.3468583017250638  1.0000
  N   N17       1.0  0.957366442152946  0.842420576252721  0.5016940063405217  1.0000
  N   N18       1.0  0.8524508539164727  0.8738189490236294  0.3645751107373059  1.0000
  N   N19       1.0  0.14183799451347306  0.9662639978968528  0.5181333127874767  1.0000
  N   N20       1.0  0.5882412161696494  0.45248101449994477  0.0029150595261597215  1.0000
  F   F1        1.0  0.9272565845059332  0.42037395907731684  0.47377581942922836  1.0000
  F   F2        1.0  0.9449288213345213  0.3741813983682717  0.25024445508320525  1.0000
  F   F3        1.0  0.7864695361946374  0.7314614248144765  0.13276143221096245  1.0000
