data_image0
_chemical_formula_structural       Zn2H56C60S4N20
_chemical_formula_sum              "Zn2 H56 C60 S4 N20"
_cell_length_a       9.524670862122408
_cell_length_b       9.603075846732189
_cell_length_c       16.616178736183127
_cell_angle_alpha    90.0005298223512
_cell_angle_beta     90.0000163316783
_cell_angle_gamma    97.87447902177907

_space_group_name_H-M_alt    "P 1"
_space_group_IT_number       1

loop_
  _space_group_symop_operation_xyz
  'x, y, z'

loop_
  _atom_site_type_symbol
  _atom_site_label
  _atom_site_symmetry_multiplicity
  _atom_site_fract_x
  _atom_site_fract_y
  _atom_site_fract_z
  _atom_site_occupancy
  Zn  Zn1       1.0  0.5000032241922767  0.9999917509590118  3.313074550700001e-06  1.0000
  Zn  Zn2       1.0  0.9999982630539391  0.5000035772509932  0.4999996526671993  1.0000
  H   H1        1.0  0.4170624464049766  0.016204933019991995  0.8205810451775123  1.0000
  H   H2        1.0  0.08293891614153641  0.48379097950383004  0.3205780133272499  1.0000
  H   H3        1.0  0.5829372075635816  0.9837963788951999  0.17942058149358087  1.0000
  H   H4        1.0  0.9170598403498218  0.516211389960013  0.6794218078773258  1.0000
  H   H5        1.0  0.26176188311046644  0.8815694310507497  0.7165666456237292  1.0000
  H   H6        1.0  0.2382455740904348  0.6184246436842998  0.21656590341747525  1.0000
  H   H7        1.0  0.7382416638296759  0.1184297530686607  0.2834355828651098  1.0000
  H   H8        1.0  0.7617548258152879  0.38157455943100876  0.7834345196018833  1.0000
  H   H9        1.0  0.1282937413752236  0.6469708091005018  0.7541293980426149  1.0000
  H   H10       1.0  0.37171276959335126  0.8530238878328119  0.2541311343851406  1.0000
  H   H11       1.0  0.8717081621497228  0.35303154136250475  0.24587162680835215  1.0000
  H   H12       1.0  0.6282897283328452  0.1469753026037637  0.7458686868112709  1.0000
  H   H13       1.0  0.3287926893151862  0.6972933442984229  0.9866132066750666  1.0000
  H   H14       1.0  0.17120307016342204  0.8027062851104888  0.4866116309009458  1.0000
  H   H15       1.0  0.6712078621272825  0.3027069100483785  0.013387818170201604  1.0000
  H   H16       1.0  0.8287916418187962  0.1972971609127114  0.5133863848368918  1.0000
  H   H17       1.0  0.1099238703852166  0.36106947647380144  0.9939154138928291  1.0000
  H   H18       1.0  0.39007857256690665  0.138933482796709  0.49391540903114645  1.0000
  H   H19       1.0  0.8900771356674754  0.6389339315674647  0.006087416430155201  1.0000
  H   H20       1.0  0.6099251259075018  0.8610667525393867  0.5060856158143423  1.0000
  H   H21       1.0  0.1511520268120776  0.5372998605059395  0.030267129771502303  1.0000
  H   H22       1.0  0.3488483470040862  0.9627038252697845  0.5302671162573206  1.0000
  H   H23       1.0  0.84884823330097  0.462705656320395  0.9697350987339495  1.0000
  H   H24       1.0  0.6511534049849458  0.03729747396666739  0.46973390859083264  1.0000
  H   H25       1.0  0.28642034152856166  0.45137019617779833  0.9878884117829475  1.0000
  H   H26       1.0  0.21358118745937557  0.048633721849178406  0.4878890983342219  1.0000
  H   H27       1.0  0.7135799185820205  0.5486353206337357  0.012112011253243803  1.0000
  H   H28       1.0  0.7864238630975181  0.9513686096031221  0.5121119265169725  1.0000
  H   H29       1.0  0.34472612552234944  0.24187192026614923  0.06233931595235022  1.0000
  H   H30       1.0  0.155271103830394  0.25813240479034494  0.5623363719781979  1.0000
  H   H31       1.0  0.6552712788848822  0.7581283530716266  0.9376593016003413  1.0000
  H   H32       1.0  0.8447267551829468  0.741871022217218  0.4376610419367709  1.0000
  H   H33       1.0  0.12127539990428461  0.2790277861257522  0.13469116937141482  1.0000
  H   H34       1.0  0.3787179829082419  0.22097880174621307  0.634692278285229  1.0000
  H   H35       1.0  0.8787230535127717  0.7209724808701807  0.8653068463582659  1.0000
  H   H36       1.0  0.6212777780862666  0.7790246379499592  0.36530694109885803  1.0000
  H   H37       1.0  0.9534444216947404  0.06976039453772391  0.17730457172456235  1.0000
  H   H38       1.0  0.5465513347024141  0.4302463892045695  0.6773055366771247  1.0000
  H   H39       1.0  0.0465570272191656  0.9302388022258943  0.8226940458256069  1.0000
  H   H40       1.0  0.45344652431256804  0.5697570378128634  0.3226930808840224  1.0000
  H   H41       1.0  0.2489316358393978  0.8097394060660719  0.0827197563728959  1.0000
  H   H42       1.0  0.25106768094227766  0.6902640947634285  0.5827176703260906  1.0000
  H   H43       1.0  0.7510710136210719  0.19026083558718915  0.9172788611801581  1.0000
  H   H44       1.0  0.7489340710401677  0.30973720443355296  0.4172785399373567  1.0000
  H   H45       1.0  0.16357274100221994  0.2990353616115726  0.7617565803194852  1.0000
  H   H46       1.0  0.3364250105004061  0.20095750309531013  0.2617599063763337  1.0000
  H   H47       1.0  0.8364288594451353  0.700964886363792  0.23824023176423748  1.0000
  H   H48       1.0  0.6635734311808221  0.7990353990074511  0.7382417202722211  1.0000
  H   H49       1.0  0.1222359285817873  0.11178277328772171  0.7521232967715578  1.0000
  H   H50       1.0  0.3777635915125259  0.38820781835301693  0.252126425574609  1.0000
  H   H51       1.0  0.877769867909798  0.8882174493499022  0.24787471895863433  1.0000
  H   H52       1.0  0.6222294535778943  0.6117840641978277  0.7478739974245843  1.0000
  H   H53       1.0  0.2303488221902512  0.18761895665745953  0.8325108237689706  1.0000
  H   H54       1.0  0.26965362201731574  0.31237714517498466  0.33251473294279793  1.0000
  H   H55       1.0  0.769654130339589  0.8123833874341103  0.16748598832045763  1.0000
  H   H56       1.0  0.7303449711990027  0.6876168081493929  0.6674862918854816  1.0000
  C   C1        1.0  0.3592503615573293  0.9127635306158339  0.8334829085703532  1.0000
  C   C2        1.0  0.14075217048224434  0.5872324926385346  0.3334813813187837  1.0000
  C   C3        1.0  0.6407492924104048  0.08723778129441942  0.16651811627765065  1.0000
  C   C4        1.0  0.8592453854625504  0.41276883193565783  0.6665184398829  1.0000
  C   C5        1.0  0.2722278227302084  0.8377176020022005  0.7762920546033955  1.0000
  C   C6        1.0  0.2277766508521211  0.6622774709381574  0.27629094279750194  1.0000
  C   C7        1.0  0.7277728802489988  0.16228370357609384  0.22370957206777586  1.0000
  C   C8        1.0  0.7722230031139715  0.33772384096222663  0.723708878404324  1.0000
  C   C9        1.0  0.19819837495121825  0.707843512902173  0.7970552000617988  1.0000
  C   C10       1.0  0.3018051064328374  0.792151906802353  0.2970559977140113  1.0000
  C   C11       1.0  0.8018005330768856  0.29215990779316314  0.20294522296867976  1.0000
  C   C12       1.0  0.6981945475340793  0.20784940510296923  0.7029444253109107  1.0000
  C   C13       1.0  0.2148976554135871  0.6540493101368127  0.8744826073624737  1.0000
  C   C14       1.0  0.2851058862830058  0.8459463277652476  0.3744836892234532  1.0000
  C   C15       1.0  0.7851021500892443  0.345953052995064  0.125517815665269  1.0000
  C   C16       1.0  0.7148960172402993  0.1540560226878966  0.6255161319813427  1.0000
  C   C17       1.0  0.3072196005732977  0.7359010581826341  0.9270057400732343  1.0000
  C   C18       1.0  0.1927789913107105  0.7640965237283339  0.427004563790817  1.0000
  C   C19       1.0  0.6927791559188847  0.2641013112861401  0.07299468295443033  1.0000
  C   C20       1.0  0.8072199167149207  0.2359068969521941  0.5729940537704012  1.0000
  C   C21       1.0  0.14240603559058942  0.516532690952488  0.9012880363653866  1.0000
  C   C22       1.0  0.3575950385590687  0.9834676103375416  0.401288660924351  1.0000
  C   C23       1.0  0.8575928724383388  0.48347072974777927  0.09871298848818102  1.0000
  C   C24       1.0  0.6424056644193143  0.0165336952358075  0.5987123639237242  1.0000
  C   C25       1.0  0.17347925550827636  0.4630841234804636  0.9830491738813197  1.0000
  C   C26       1.0  0.32652210870229226  0.03691866397540619  0.4830492155062489  1.0000
  C   C27       1.0  0.8265198040565666  0.5369203484463513  0.0169518509750688  1.0000
  C   C28       1.0  0.6734805407606501  0.9630815776926624  0.5169512075160727  1.0000
  C   C29       1.0  0.7304459993796257  0.8464780002402109  0.91666494537472  1.0000
  C   C30       1.0  0.7695554273481237  0.6535231142798212  0.4166655994846452  1.0000
  C   C31       1.0  0.2695548551322062  0.1535243565448994  0.08333427400691563  1.0000
  C   C32       1.0  0.23044243166521744  0.3464803127277492  0.5833318144303237  1.0000
  C   C33       1.0  0.8549933638069406  0.8269445717223007  0.877135959881983  1.0000
  C   C34       1.0  0.6450083976323598  0.6730516834729416  0.3771360949908172  1.0000
  C   C35       1.0  0.14500613861994083  0.17305568893180387  0.12286145402467243  1.0000
  C   C36       1.0  0.35498841237033224  0.32695174987152603  0.6228613189240805  1.0000
  C   C37       1.0  0.9483126974865143  0.9441574182735691  0.8530880318822515  1.0000
  C   C38       1.0  0.5516877976064904  0.5558373977512973  0.35308632178238514  1.0000
  C   C39       1.0  0.0516856043954448  0.055841797500747206  0.14691058566769047  1.0000
  C   C40       1.0  0.44830975833583847  0.44416392680809474  0.6469116939500383  1.0000
  C   C41       1.0  0.9140810794499712  0.07911434823490993  0.8681595836320002  1.0000
  C   C42       1.0  0.5859208753214277  0.4208839567175461  0.36815982751637233  1.0000
  C   C43       1.0  0.08591962352429769  0.9208869573137837  0.1318384321006434  1.0000
  C   C44       1.0  0.4140787786421924  0.5791173551680443  0.6318381882161932  1.0000
  C   C45       1.0  0.21575612126994775  0.9121449711813201  0.09338914647742061  1.0000
  C   C46       1.0  0.2842414297563778  0.5878608197100307  0.5933883251099064  1.0000
  C   C47       1.0  0.7842454791815214  0.0878552768187149  0.9066106747217406  1.0000
  C   C48       1.0  0.715757478267612  0.41214260096062827  0.40660908880513363  1.0000
  C   C49       1.0  0.009489616551057605  0.207333106969223  0.8456961994296608  1.0000
  C   C50       1.0  0.4905125606576134  0.2926611085639692  0.345697634060855  1.0000
  C   C51       1.0  0.9905116808252856  0.7926650385579705  0.15430121447150927  1.0000
  C   C52       1.0  0.5094858927627329  0.7073391584517027  0.654302788961175  1.0000
  C   C53       1.0  0.13781454461811654  0.19977328728293034  0.7946970999739167  1.0000
  C   C54       1.0  0.3621864440436369  0.3002200984673281  0.29469975653617553  1.0000
  C   C55       1.0  0.8621881048407045  0.8002269543604683  0.20530031393296613  1.0000
  C   C56       1.0  0.6378112516979542  0.6997749124205087  0.7053012682948536  1.0000
  C   C57       1.0  0.4903341305656213  0.29466373732319784  0.9045072277743957  1.0000
  C   C58       1.0  0.00966024658631431  0.20531991688691426  0.40450149362572324  1.0000
  C   C59       1.0  0.5096614436805353  0.705316556437289  0.09549921342497213  1.0000
  C   C60       1.0  0.9903418084729053  0.7946834847927847  0.5954983275818935  1.0000
  S   S1        1.0  0.5111084203966314  0.4528642748125123  0.8691487397891822  1.0000
  S   S2        1.0  0.9888906578911828  0.047114073007243504  0.3691434473886162  1.0000
  S   S3        1.0  0.4888914896897276  0.5471096799189467  0.13085950686291173  1.0000
  S   S4        1.0  0.011118145838025853  0.9528924443208312  0.6308551701817111  1.0000
  N   N1        1.0  0.3757311301921007  0.8630981768802003  0.9080023177073715  1.0000
  N   N2        1.0  0.124271454203452  0.6368980168949107  0.40800105266796294  1.0000
  N   N3        1.0  0.6242694212487194  0.13690207745673183  0.09199750349171863  1.0000
  N   N4        1.0  0.8757264048123545  0.36310541012745295  0.5919981667162733  1.0000
  N   N5        1.0  0.05537071257363381  0.44690437502373476  0.8509850620969318  1.0000
  N   N6        1.0  0.44463163064079947  0.0530909784412614  0.35098581217071273  1.0000
  N   N7        1.0  0.9446317853533868  0.5530948154177794  0.14901536092257575  1.0000
  N   N8        1.0  0.5553710188237844  0.9469092632366697  0.6490158144977869  1.0000
  N   N9        1.0  0.9785674041553775  0.3255142088831563  0.8738432620647816  1.0000
  N   N10       1.0  0.5214351605689629  0.1744810292306624  0.3738427817411748  1.0000
  N   N11       1.0  0.021434942233263123  0.6744839303170025  0.1261553554826378  1.0000
  N   N12       1.0  0.4785655424069475  0.8255202763278929  0.6261564376376401  1.0000
  N   N13       1.0  0.6957416334130713  0.9756856267947  0.9311072358034311  1.0000
  N   N14       1.0  0.8042604272319948  0.5243125644844042  0.4311072063404212  1.0000
  N   N15       1.0  0.3042610160515196  0.024314614883230903  0.06889439086506853  1.0000
  N   N16       1.0  0.19573817772098323  0.4756887537380835  0.568890809392073  1.0000
  N   N17       1.0  0.47405619430478646  0.1780850027456822  0.9307590402358701  1.0000
  N   N18       1.0  0.025934349962064094  0.32189384473588223  0.43075272736050624  1.0000
  N   N19       1.0  0.5259396595333145  0.8218826636322306  0.06924860457600353  1.0000
  N   N20       1.0  0.9740606650952869  0.6781117037601591  0.5692476956753225  1.0000
