data_image0
_chemical_formula_structural       Cu4H40C32N8Cl4O4
_chemical_formula_sum              "Cu4 H40 C32 N8 Cl4 O4"
_cell_length_a       4.780156010000552
_cell_length_b       13.725610596001736
_cell_length_c       13.94342844500026
_cell_angle_alpha    90.00001972477963
_cell_angle_beta     89.99999047727076
_cell_angle_gamma    89.99994572262288

_space_group_name_H-M_alt    "P 1"
_space_group_IT_number       1

loop_
  _space_group_symop_operation_xyz
  'x, y, z'

loop_
  _atom_site_type_symbol
  _atom_site_label
  _atom_site_symmetry_multiplicity
  _atom_site_fract_x
  _atom_site_fract_y
  _atom_site_fract_z
  _atom_site_occupancy
  Cu  Cu1       1.0  0.1133381871214425  0.7871213487531818  0.5711487552718495  1.0000
  Cu  Cu2       1.0  0.3866690814589261  0.21287790991002703  0.0711482366997984  1.0000
  Cu  Cu3       1.0  0.8866670952849915  0.28712021298724  0.9288512058940981  1.0000
  Cu  Cu4       1.0  0.6133303723868195  0.7128768209726745  0.42885158798243583  1.0000
  H   H1        1.0  0.8533203544945775  0.7078686969235122  0.8353427114921175  1.0000
  H   H2        1.0  0.6466813430675201  0.2921319469008876  0.3353422330599685  1.0000
  H   H3        1.0  0.1466851433118563  0.20786844093093038  0.6646565058442491  1.0000
  H   H4        1.0  0.35331580339070706  0.792131579258118  0.16465690108518058  1.0000
  H   H5        1.0  0.8891305926441221  0.9712798877643037  0.6341253848017203  1.0000
  H   H6        1.0  0.6108691117752157  0.028719228005556388  0.13412625418735047  1.0000
  H   H7        1.0  0.11086791328801128  0.4712811716522792  0.8658753554655474  1.0000
  H   H8        1.0  0.3891287506129756  0.5287189194626548  0.3658735085780193  1.0000
  H   H9        1.0  0.9584098352375251  0.0866190747069737  0.7694793192119036  1.0000
  H   H10       1.0  0.5415898026953626  0.9133808173373764  0.2694797727461946  1.0000
  H   H11       1.0  0.041589716167635495  0.5866188332075665  0.7305205745423393  1.0000
  H   H12       1.0  0.4584070142201497  0.4133804816326076  0.2305194021647452  1.0000
  H   H13       1.0  0.33441139222968985  0.05028493229163188  0.8917971670903954  1.0000
  H   H14       1.0  0.16558944290086688  0.9497158965249707  0.39179762586883266  1.0000
  H   H15       1.0  0.6655882579293005  0.5502837130773768  0.6082034316312956  1.0000
  H   H16       1.0  0.8344093672414131  0.44971539355550044  0.108202278442171  1.0000
  H   H17       1.0  0.6080435761184475  0.8958414381636642  0.8738411725323161  1.0000
  H   H18       1.0  0.8919601945144321  0.1041599477952246  0.37383989992588335  1.0000
  H   H19       1.0  0.39195513485029204  0.3958410876156578  0.6261595423710773  1.0000
  H   H20       1.0  0.10803955481727459  0.604158190439854  0.1261591710198147  1.0000
  H   H21       1.0  0.4064374872887838  0.7058469781877933  0.6961373620174811  1.0000
  H   H22       1.0  0.09356553593259778  0.29415305309712636  0.19613688725155495  1.0000
  H   H23       1.0  0.5935638320474155  0.20584735227393477  0.8038632890068342  1.0000
  H   H24       1.0  0.9064357889971432  0.7941518233250305  0.3038636819403138  1.0000
  H   H25       1.0  0.7273327883599235  0.7687446718834181  0.6871259500211835  1.0000
  H   H26       1.0  0.7726689820067562  0.2312551911326466  0.18712616122124354  1.0000
  H   H27       1.0  0.2726662680453558  0.26874442653627273  0.8128747221502834  1.0000
  H   H28       1.0  0.22733251387296594  0.7312541887668472  0.3128743868234096  1.0000
  H   H29       1.0  0.4852969723552504  0.555224208443711  0.9831556969853352  1.0000
  H   H30       1.0  0.014701725918648396  0.44477665257499405  0.48315456011173546  1.0000
  H   H31       1.0  0.5147047563583199  0.055225235964805094  0.5168441862136106  1.0000
  H   H32       1.0  0.9852929136864788  0.9447745670311037  0.0168446253547501  1.0000
  H   H33       1.0  0.5337222440022131  0.6720589086030628  0.035747403735968  1.0000
  H   H34       1.0  0.9662796007194385  0.32794235818509077  0.535747030895692  1.0000
  H   H35       1.0  0.4662815047465471  0.1720601098153836  0.4642516900388145  1.0000
  H   H36       1.0  0.033717202812376  0.827940744540463  0.9642529439950777  1.0000
  H   H37       1.0  0.8103553176410827  0.6191142059420827  0.9679528379108362  1.0000
  H   H38       1.0  0.6896442228027907  0.3808857560596478  0.46795023535229757  1.0000
  H   H39       1.0  0.18964832940709184  0.11911534615142468  0.5320485011363515  1.0000
  H   H40       1.0  0.3103505904496586  0.8808853558611103  0.0320474942658819  1.0000
  C   C1        1.0  0.045396629936554696  0.9571065325370894  0.6892768348596974  1.0000
  C   C2        1.0  0.45460639665589037  0.04289276776444238  0.18927553813217907  1.0000
  C   C3        1.0  0.9546019145195925  0.4571060612664723  0.8107246178257057  1.0000
  C   C4        1.0  0.5453935191922027  0.5428923881863595  0.31072351221475  1.0000
  C   C5        1.0  0.08696556380982659  0.021509546019544197  0.7647064750528685  1.0000
  C   C6        1.0  0.4130374257293282  0.9784912379998046  0.2647069295927977  1.0000
  C   C7        1.0  0.9130341645569261  0.5215090184641438  0.7352941139941933  1.0000
  C   C8        1.0  0.586959214223249  0.4784901329663355  0.23529298439289897  1.0000
  C   C9        1.0  0.29313667066046617  0.0007541630993656999  0.832275930746398  1.0000
  C   C10       1.0  0.2068662856888963  0.999246644736729  0.332275686673313  1.0000
  C   C11       1.0  0.706867298080219  0.500754408366184  0.6677246513223949  1.0000
  C   C12       1.0  0.7931323898347313  0.4992454478114183  0.1677235171068716  1.0000
  C   C13       1.0  0.446255955998346  0.9151192866761731  0.8222498516294647  1.0000
  C   C14       1.0  0.05374491329376949  0.08488151762635707  0.32225002592569046  1.0000
  C   C15       1.0  0.5537427025737784  0.41511962945840253  0.6777523041230251  1.0000
  C   C16       1.0  0.9462527964521  0.5848802302541926  0.17774975572216078  1.0000
  C   C17       1.0  0.388948307623302  0.8518091667132806  0.7464930081744255  1.0000
  C   C18       1.0  0.11105469086349727  0.14819088232097496  0.24649248335035168  1.0000
  C   C19       1.0  0.6110526150016823  0.3518095172755977  0.7535084091084059  1.0000
  C   C20       1.0  0.8889428468134141  0.6481896405748415  0.2535080367668456  1.0000
  C   C21       1.0  0.5445500552024852  0.757215897208752  0.7342449241830237  1.0000
  C   C22       1.0  0.9554496000378734  0.2427839824158937  0.2342436946144772  1.0000
  C   C23       1.0  0.4554511245189232  0.25721557490052754  0.7657557441122195  1.0000
  C   C24       1.0  0.044547680543324496  0.742783752359017  0.2657547057553984  1.0000
  C   C25       1.0  0.4608938650037116  0.6745369200589052  0.8853820600249165  1.0000
  C   C26       1.0  0.039111157243006296  0.325463177930608  0.3853815988478074  1.0000
  C   C27       1.0  0.5391075394294376  0.17453797398572846  0.6146178632888493  1.0000
  C   C28       1.0  0.9608921745699066  0.8254625920382351  0.11461898087107159  1.0000
  C   C29       1.0  0.5828313510237421  0.6269069760210185  0.9729128882835594  1.0000
  C   C30       1.0  0.9171681869812645  0.3730944448594825  0.47291242186336285  1.0000
  C   C31       1.0  0.4171722748458889  0.1269073107916086  0.5270870190160934  1.0000
  C   C32       1.0  0.08282664744757538  0.8730933894723589  0.027087456686331293  1.0000
  N   N1        1.0  0.1909965968885032  0.873061429786844  0.6798013852170113  1.0000
  N   N2        1.0  0.3090085263409961  0.1269371386095344  0.17980084211701097  1.0000
  N   N3        1.0  0.8090042679733215  0.37306319562562607  0.8201986048439522  1.0000
  N   N4        1.0  0.6909932530644624  0.6269367142965764  0.3201989536706336  1.0000
  N   N5        1.0  0.6424715802178298  0.7155048197839661  0.8233800941124585  1.0000
  N   N6        1.0  0.8575301232214511  0.284495091258691  0.3233788840736338  1.0000
  N   N7        1.0  0.3575338968322939  0.21550595551892113  0.6766198429752562  1.0000
  N   N8        1.0  0.14246913597483504  0.7844947974516571  0.17662024750383407  1.0000
  Cl  Cl1       1.0  0.22576569109420314  0.6423612754661362  0.5128495796712684  1.0000
  Cl  Cl2       1.0  0.27423533017761054  0.35763723408392417  0.012849833275090797  1.0000
  Cl  Cl3       1.0  0.7742378927720849  0.1423616545017694  0.9871503328243634  1.0000
  Cl  Cl4       1.0  0.7257658222081176  0.8576361285714212  0.48715075726118323  1.0000
  O   O1        1.0  0.20204666534762333  0.676656355986104  0.871191153222874  1.0000
  O   O2        1.0  0.29795417990560213  0.32334373700221153  0.37119139396276774  1.0000
  O   O3        1.0  0.7979610092718232  0.17665660088135834  0.6288094879868922  1.0000
  O   O4        1.0  0.7020428817218302  0.8233432415788965  0.1288091850437141  1.0000
