data_image0
_chemical_formula_structural       Cu2H28C30I2N12O4
_chemical_formula_sum              "Cu2 H28 C30 I2 N12 O4"
_cell_length_a       9.636846000788722
_cell_length_b       10.065261231106755
_cell_length_c       10.135532833320148
_cell_angle_alpha    101.65977695681848
_cell_angle_beta     96.31056131692668
_cell_angle_gamma    116.5228649596403

_space_group_name_H-M_alt    "P 1"
_space_group_IT_number       1

loop_
  _space_group_symop_operation_xyz
  'x, y, z'

loop_
  _atom_site_type_symbol
  _atom_site_label
  _atom_site_symmetry_multiplicity
  _atom_site_fract_x
  _atom_site_fract_y
  _atom_site_fract_z
  _atom_site_occupancy
  Cu  Cu1       1.0  0.5950640526438989  0.1404406698738683  0.5994940633809309  1.0000
  Cu  Cu2       1.0  0.40493587220136346  0.8595609127236086  0.40050618529688364  1.0000
  H   H1        1.0  0.22386843652972024  0.5370360620135128  0.6626174731939403  1.0000
  H   H2        1.0  0.7761319451590154  0.46296435580462963  0.3373835791782441  1.0000
  H   H3        1.0  0.994593412062848  0.3192244463813195  0.47685272910094073  1.0000
  H   H4        1.0  0.005408732788310993  0.6807794694886623  0.5231462717710897  1.0000
  H   H5        1.0  0.007548199853637508  0.08749811359413678  0.36165773225579306  1.0000
  H   H6        1.0  0.9924556078419755  0.9125069866213307  0.6383387381758612  1.0000
  H   H7        1.0  0.24978391149655715  0.0582490830764186  0.4229398698170642  1.0000
  H   H8        1.0  0.750218148316321  0.9417525276323457  0.5770576688807694  1.0000
  H   H9        1.0  0.6069542960373794  0.7992627114436812  0.7696973333555521  1.0000
  H   H10       1.0  0.39304398124311035  0.20073769535343186  0.23030446252864326  1.0000
  H   H11       1.0  0.7514186055072614  0.7365002849830729  0.8092338445985805  1.0000
  H   H12       1.0  0.2485797176122944  0.2635001474494273  0.1907650015836567  1.0000
  H   H13       1.0  0.6263285593491191  0.8917804012006626  0.02428533856046761  1.0000
  H   H14       1.0  0.3736724253401107  0.10822119117989357  0.9757140467443507  1.0000
  H   H15       1.0  0.8104541277740155  0.986516893288467  0.9782167257471317  1.0000
  H   H16       1.0  0.1895483583229591  0.013483535550712095  0.02178358311304151  1.0000
  H   H17       1.0  0.8427589571373206  0.9130668945242488  0.19705961845215822  1.0000
  H   H18       1.0  0.1572402949488634  0.08693121689473317  0.802939851884844  1.0000
  H   H19       1.0  0.7111073687466813  0.7133511432325859  0.10590386412162904  1.0000
  H   H20       1.0  0.28888768980270646  0.28664695468945917  0.894096110005407  1.0000
  H   H21       1.0  0.15555411102814531  0.4918776539232326  0.33198235639634543  1.0000
  H   H22       1.0  0.8444479182253629  0.5081239396952737  0.6680171487694582  1.0000
  H   H23       1.0  0.9152974335204149  0.2386145709729348  0.20634241194450456  1.0000
  H   H24       1.0  0.0847082168287656  0.7613858786703602  0.7936562900306684  1.0000
  H   H25       1.0  0.7038743527951042  0.22235256484502489  0.032435292687871715  1.0000
  H   H26       1.0  0.29612910810755705  0.7776455686160159  0.9675626906251084  1.0000
  H   H27       1.0  0.7203597390305915  0.45909439353746234  0.97692682669328  1.0000
  H   H28       1.0  0.27963938217825296  0.540901387084915  0.023074131171483683  1.0000
  C   C1        1.0  0.35755004741808705  0.41023712413998226  0.6494100879407156  1.0000
  C   C2        1.0  0.642450218672991  0.5897609714266919  0.3505914687252486  1.0000
  C   C3        1.0  0.2271222571512368  0.432650551167498  0.6119507732197178  1.0000
  C   C4        1.0  0.772879284699421  0.5673521901400704  0.3880498947196856  1.0000
  C   C5        1.0  0.10281638864966419  0.31249496544570116  0.5077359370107716  1.0000
  C   C6        1.0  0.8971856711632143  0.6875066452630634  0.4922616016870622  1.0000
  C   C7        1.0  0.11042037198838271  0.17871753720453395  0.44099337879979583  1.0000
  C   C8        1.0  0.8895834204275486  0.8212875544658045  0.5590040748658468  1.0000
  C   C9        1.0  0.24268604140004157  0.15994898476270686  0.4748537695018202  1.0000
  C   C10       1.0  0.7573160336925254  0.8400526344911865  0.5251427859620251  1.0000
  C   C11       1.0  0.367844353504637  0.2785601857848902  0.582191248669183  1.0000
  C   C12       1.0  0.6321571730663393  0.721442546977556  0.41781040250420903  1.0000
  C   C13       1.0  0.6591889462675766  0.7601582899951822  0.8452368088223994  1.0000
  C   C14       1.0  0.3408087738514851  0.23984096787491177  0.15476370442721082  1.0000
  C   C15       1.0  0.7221671714243597  0.8746359067564593  0.9876692010980082  1.0000
  C   C16       1.0  0.2778326531029407  0.12536336213467078  0.012330568639590915  1.0000
  C   C17       1.0  0.7959084010229133  0.8262560528883113  0.09562858493902132  1.0000
  C   C18       1.0  0.20408876193471312  0.17374205605476328  0.9043706456760034  1.0000
  C   C19       1.0  0.07091364140594433  0.617787615812041  0.22569837439530002  1.0000
  C   C20       1.0  0.9290855801208623  0.3822104785166828  0.7743030624096721  1.0000
  C   C21       1.0  0.06155341694470444  0.48455972796907776  0.25612191419824637  1.0000
  C   C22       1.0  0.938442259884866  0.5154395530605029  0.7438754096274283  1.0000
  C   C23       1.0  0.9280409186436032  0.3448372578266115  0.185084526694645  1.0000
  C   C24       1.0  0.07196365658192147  0.6551631734884676  0.8149160218875127  1.0000
  C   C25       1.0  0.8057203897224169  0.3354304307501862  0.08598287755605581  1.0000
  C   C26       1.0  0.19427992220772694  0.6645676904518751  0.9140157294079504  1.0000
  C   C27       1.0  0.8119718824612008  0.46588194171755476  0.05516144353754272  1.0000
  C   C28       1.0  0.18802945875353325  0.5341161721773275  0.9448382665214371  1.0000
  C   C29       1.0  0.9465434741893405  0.606470168932475  0.12845089138497207  1.0000
  C   C30       1.0  0.05345520545571961  0.39352678501435173  0.8715482795514337  1.0000
  I   I1        1.0  0.3812284052277306  0.8972684989548938  0.6605552598061949  1.0000
  I   I2        1.0  0.6187725641818106  0.10273308488053348  0.3394451087326119  1.0000
  N   N1        1.0  0.5093462567059248  0.29117564867785717  0.6465123504009753  1.0000
  N   N2        1.0  0.4906541402624923  0.7088247776854215  0.35348771873722745  1.0000
  N   N3        1.0  0.5830753976608065  0.4185055170718427  0.7503093635169551  1.0000
  N   N4        1.0  0.41692439630711686  0.5814937347290227  0.249692372688621  1.0000
  N   N5        1.0  0.49488472661587934  0.4912553092468243  0.750823963646724  1.0000
  N   N6        1.0  0.5051140227877723  0.5087439413160977  0.24917765269785977  1.0000
  N   N7        1.0  0.9970902766019093  0.7571670610182932  0.129961851359802  1.0000
  N   N8        1.0  0.0029064142325622724  0.24283220415897935  0.8700375587948344  1.0000
  N   N9        1.0  0.1408919160359474  0.8549881661678852  0.2149320105423557  1.0000
  N   N10       1.0  0.8591047747985242  0.14501109900938755  0.785067399612281  1.0000
  N   N11       1.0  0.18738907237482752  0.7717347869274461  0.2740756457434302  1.0000
  N   N12       1.0  0.812609220185351  0.22826562841479606  0.7259251669067837  1.0000
  O   O1        1.0  0.5330309889640431  0.6153792897955552  0.86005890283181  1.0000
  O   O2        1.0  0.46696880500388  0.3846199620053098  0.13994283337376603  1.0000
  O   O3        1.0  0.9281157190854686  0.8124639880054898  0.04628682297812502  1.0000
  O   O4        1.0  0.0718808561513526  0.18753295492030728  0.9537130914702844  1.0000
