data_image0
_chemical_formula_structural       Zn8H64C80O42
_chemical_formula_sum              "Zn8 H64 C80 O42"
_cell_length_a       17.818353022201265
_cell_length_b       18.652822951318313
_cell_length_c       23.288429043708117
_cell_angle_alpha    66.56155890535375
_cell_angle_beta     69.67696394924825
_cell_angle_gamma    89.95400085899796

_space_group_name_H-M_alt    "P 1"
_space_group_IT_number       1

loop_
  _space_group_symop_operation_xyz
  'x, y, z'

loop_
  _atom_site_type_symbol
  _atom_site_label
  _atom_site_symmetry_multiplicity
  _atom_site_fract_x
  _atom_site_fract_y
  _atom_site_fract_z
  _atom_site_occupancy
  Zn  Zn1       1.0  0.11928924574409193  0.5320966241518051  0.9434190843104773  1.0000
  Zn  Zn2       1.0  0.975080796433197  0.5618992003161766  0.0500330426260902  1.0000
  Zn  Zn3       1.0  0.9760694237843593  0.3885918257664258  0.049302606472821114  1.0000
  Zn  Zn4       1.0  0.9364449368527658  0.5280584327428175  0.937139683374511  1.0000
  Zn  Zn5       1.0  0.38498347926709187  0.9798133718687009  0.04907575220316574  1.0000
  Zn  Zn6       1.0  0.5278565047081614  0.1166134422333229  0.9383709613745594  1.0000
  Zn  Zn7       1.0  0.5242296332862751  0.9442086749159203  0.9388748957399142  1.0000
  Zn  Zn8       1.0  0.5694643582282454  0.9719296858422556  0.04988018993929428  1.0000
  H   H1        1.0  0.4309686211325002  0.8227908706427414  0.3900369729849231  1.0000
  H   H2        1.0  0.19772087622207832  0.7906767196171814  0.3782995942780474  1.0000
  H   H3        1.0  0.31428971025449215  0.673891735492724  0.6124243635603862  1.0000
  H   H4        1.0  0.08162772368061162  0.7184330091511272  0.599500193305353  1.0000
  H   H5        1.0  0.6803751641871257  0.08393786510146131  0.6032014057044748  1.0000
  H   H6        1.0  0.714938960281252  0.31090371499387714  0.6067261918620163  1.0000
  H   H7        1.0  0.8274748124506317  0.19338675101159453  0.38441153109396714  1.0000
  H   H8        1.0  0.7883937907234824  0.42220324750470456  0.3832973035312718  1.0000
  H   H9        1.0  0.1960457168551528  0.3032673226945023  0.9112780810779739  1.0000
  H   H10       1.0  0.12557880715537104  0.23083603667736  0.9885974431141095  1.0000
  H   H11       1.0  0.2156104237165124  0.14039180643156612  0.9835227309981605  1.0000
  H   H12       1.0  0.28659135551095716  0.21402019272397144  0.9074092170698121  1.0000
  H   H13       1.0  0.21462717098771827  0.1260562027956524  0.09540807166354175  1.0000
  H   H14       1.0  0.28716062469129616  0.1859989480450324  0.09991066145970247  1.0000
  H   H15       1.0  0.1273848847569568  0.2195054714574169  0.09996658978957386  1.0000
  H   H16       1.0  0.20186519868628489  0.28037174500929757  0.10103222896292863  1.0000
  H   H17       1.0  0.30165600109788926  0.3926402034267227  0.9126384978392323  1.0000
  H   H18       1.0  0.3034077716168042  0.3854635329332297  0.9897048167522443  1.0000
  H   H19       1.0  0.39098481707113564  0.29215689842150283  0.9901453914546465  1.0000
  H   H20       1.0  0.39171448109535595  0.30180399944555353  0.9118480697926188  1.0000
  H   H21       1.0  0.890139679800356  0.7963752354111833  0.9096689369444918  1.0000
  H   H22       1.0  0.8829350616642699  0.7828721620079052  0.9911987353393741  1.0000
  H   H23       1.0  0.795492131046764  0.8767481558797244  0.9884689425138404  1.0000
  H   H24       1.0  0.8002239158190393  0.886679300912057  0.9084270509847203  1.0000
  H   H25       1.0  0.6933184456453674  0.7721495084878145  0.09439627308826455  1.0000
  H   H26       1.0  0.6201763112287965  0.7115375877440969  0.09108015121078233  1.0000
  H   H27       1.0  0.7771103638245905  0.6751349495931083  0.09579932625664615  1.0000
  H   H28       1.0  0.7062309505475142  0.6183308459499273  0.08718414235046616  1.0000
  H   H29       1.0  0.7903659292481678  0.7120389002424331  0.89780201667498  1.0000
  H   H30       1.0  0.7172325682004016  0.6370137591863453  0.9697567919050983  1.0000
  H   H31       1.0  0.6257009313697139  0.7260655154490581  0.9752496592330144  1.0000
  H   H32       1.0  0.6969867899460667  0.7997445394094316  0.9011320688161105  1.0000
  H   H33       1.0  0.16303834764347164  0.7952727358518176  0.9369830356831843  1.0000
  H   H34       1.0  0.24715970726180103  0.759431236693537  0.8953632897008531  1.0000
  H   H35       1.0  0.3352288618549579  0.8545615105953529  0.8925865296653086  1.0000
  H   H36       1.0  0.2507297011886039  0.8904959377141566  0.9334544099169122  1.0000
  H   H37       1.0  0.3957286055127938  0.7473898799240501  0.9611167625563581  1.0000
  H   H38       1.0  0.35286529863729754  0.7060770752889881  0.05037208284920775  1.0000
  H   H39       1.0  0.3085925749628943  0.6526340086296261  0.9621134545088026  1.0000
  H   H40       1.0  0.2676578077654455  0.6108932098967302  0.05128752041717628  1.0000
  H   H41       1.0  0.10273671263287548  0.7351936147164081  0.06630116934135094  1.0000
  H   H42       1.0  0.14700977737285112  0.6613101718003946  0.11242761246089125  1.0000
  H   H43       1.0  0.23181336628523752  0.7591565741853614  0.1097631458110726  1.0000
  H   H44       1.0  0.18964037726247082  0.832819840747739  0.061549216215610124  1.0000
  H   H45       1.0  0.8973353573350521  0.264837711447278  0.9309653000545737  1.0000
  H   H46       1.0  0.8537757567532651  0.34138226099291563  0.8851568268289894  1.0000
  H   H47       1.0  0.7662872527644778  0.246962391792252  0.8866475082579088  1.0000
  H   H48       1.0  0.8099668584886076  0.17088221467052025  0.9326676254935292  1.0000
  H   H49       1.0  0.6464939389957607  0.29581444180600164  0.9480839004820254  1.0000
  H   H50       1.0  0.6053230702020258  0.25489425182796316  0.037271298875808184  1.0000
  H   H51       1.0  0.7348799392439531  0.39048180228147794  0.9458647228122814  1.0000
  H   H52       1.0  0.6928281384105262  0.3495205621655941  0.03493229609473057  1.0000
  H   H53       1.0  0.8374327780260699  0.20430288152853396  0.06015066777069222  1.0000
  H   H54       1.0  0.7535245686494605  0.23840897949084902  0.102472389188712  1.0000
  H   H55       1.0  0.6667229131308758  0.14316109621259443  0.10414014190683223  1.0000
  H   H56       1.0  0.7505873396672129  0.11009563038546592  0.06089899972425882  1.0000
  H   H57       1.0  0.5434529275382403  0.7980066215553593  0.2615225855242045  1.0000
  H   H58       1.0  0.21741916488249297  0.9461884659885273  0.2460413523916856  1.0000
  H   H59       1.0  0.2935183885550429  0.6986729960534745  0.743456206838637  1.0000
  H   H60       1.0  0.9682259773324873  0.5648492034166852  0.728465762321825  1.0000
  H   H61       1.0  0.7048912423547264  0.9731945506691133  0.7387846211066033  1.0000
  H   H62       1.0  0.5564567421804298  0.29326384934157085  0.7307914042201917  1.0000
  H   H63       1.0  0.7990425805430874  0.21437733880288332  0.2514154238299113  1.0000
  H   H64       1.0  0.9438490463267684  0.5301711908182728  0.2569364698476732  1.0000
  C   C1        1.0  0.14383500211759068  0.637544014959772  0.0028609584802126355  1.0000
  C   C2        1.0  0.9105464892140986  0.4118668834776145  0.17463538684344115  1.0000
  C   C3        1.0  0.14470859008173423  0.36575484811139364  0.0010534659327631768  1.0000
  C   C4        1.0  0.8600613351186652  0.3641171748329342  0.990818683866813  1.0000
  C   C5        1.0  0.08960257898959871  0.5930518155695594  0.8152458875226926  1.0000
  C   C6        1.0  0.8591198634587869  0.6400550237597359  0.9919582965540668  1.0000
  C   C7        1.0  0.36009787953214095  0.144286234016711  0.9959280471278191  1.0000
  C   C8        1.0  0.5871949764964484  0.09240609405725311  0.8137960882058054  1.0000
  C   C9        1.0  0.3561756128166564  0.8665415396701023  0.9973235893095238  1.0000
  C   C10       1.0  0.6419668758649024  0.8607916199656245  0.9944750805961534  1.0000
  C   C11       1.0  0.42051241739442713  0.9140511371669932  0.17475024105384313  1.0000
  C   C12       1.0  0.6457481954808273  0.1383180971048574  0.9938300787754174  1.0000
  C   C13       1.0  0.38296495824011606  0.8747238105250688  0.2502822277204259  1.0000
  C   C14       1.0  0.43028396745496883  0.8652907732760087  0.2895114903931599  1.0000
  C   C15       1.0  0.3941745261881452  0.8291418880462518  0.3599479259414551  1.0000
  C   C16       1.0  0.30988034720764557  0.8025601895721409  0.3928277777701227  1.0000
  C   C17       1.0  0.2627339451226121  0.8122075782734797  0.3533389223470706  1.0000
  C   C18       1.0  0.2988191969166962  0.8473119289920704  0.2829661567461912  1.0000
  C   C19       1.0  0.27281611024481833  0.7667157401869036  0.4642836177052486  1.0000
  C   C20       1.0  0.239965338750693  0.7359266683057442  0.52584566008818  1.0000
  C   C21       1.0  0.20251350810801946  0.7004375952799864  0.5972699060897426  1.0000
  C   C22       1.0  0.24918491154346617  0.6705194496415388  0.6371275979110465  1.0000
  C   C23       1.0  0.21259963603390733  0.6352768939915946  0.7074733545540396  1.0000
  C   C24       1.0  0.1283248267599149  0.6299581613359776  0.7397923699173674  1.0000
  C   C25       1.0  0.08147832648923982  0.6601271939656499  0.7002073047168907  1.0000
  C   C26       1.0  0.11813204613022073  0.6944822876558874  0.6298061903283169  1.0000
  C   C27       1.0  0.6273278428830054  0.13012083026530522  0.738656702498723  1.0000
  C   C28       1.0  0.6367069574892242  0.08408447220329408  0.7018895217398795  1.0000
  C   C29       1.0  0.6739819951599558  0.11951018402002231  0.6316200762993988  1.0000
  C   C30       1.0  0.7017004969650316  0.201712417158042  0.5965236913252099  1.0000
  C   C31       1.0  0.6922493889020842  0.24754543045867194  0.6335290211131622  1.0000
  C   C32       1.0  0.6559948758634633  0.21210834797094694  0.7038766879483376  1.0000
  C   C33       1.0  0.7381116808279273  0.2375818162528986  0.5251911130317524  1.0000
  C   C34       1.0  0.7685883901297784  0.26817159682534  0.46355812140543423  1.0000
  C   C35       1.0  0.8037281803164689  0.3036538371788994  0.3921788354685489  1.0000
  C   C36       1.0  0.8318729901261293  0.2570005026773146  0.3564647299975051  1.0000
  C   C37       1.0  0.8668665820912836  0.2919241492981399  0.28606718903803596  1.0000
  C   C38       1.0  0.8732810662048395  0.3742248813255529  0.24995805782213404  1.0000
  C   C39       1.0  0.8448269155075536  0.4210325775669049  0.2854346085591074  1.0000
  C   C40       1.0  0.8109777137308001  0.3860871324315483  0.3558519370474044  1.0000
  C   C41       1.0  0.1887260101457855  0.26113628720462145  0.9626300875271525  1.0000
  C   C42       1.0  0.2484691491679101  0.20101642629587962  0.960082581098881  1.0000
  C   C43       1.0  0.3035595306563508  0.20512772831344964  0.997878239360702  1.0000
  C   C44       1.0  0.24875167258957734  0.18612111833475353  0.07171504321851067  1.0000
  C   C45       1.0  0.19102562191556416  0.2479924762875925  0.07346528837267394  1.0000
  C   C46       1.0  0.20446981851712562  0.3076239778027486  0.0007795635486970374  1.0000
  C   C47       1.0  0.2926120978709648  0.3503061948091429  0.9642230549580689  1.0000
  C   C48       1.0  0.35134095641073054  0.2893368498353865  0.9637167727587155  1.0000
  C   C49       1.0  0.8471555169099146  0.7822920397804652  0.961276323442853  1.0000
  C   C50       1.0  0.7880700031730542  0.8434331011868396  0.9605686189553778  1.0000
  C   C51       1.0  0.6995194827410104  0.8005599047376606  0.9930840699756588  1.0000
  C   C52       1.0  0.683968913162957  0.7401613031481064  0.06612586446860991  1.0000
  C   C53       1.0  0.7412204971768404  0.677806388656883  0.06529422597869687  1.0000
  C   C54       1.0  0.7990190241242418  0.6980266570033821  0.9918978381236413  1.0000
  C   C55       1.0  0.7491798709928545  0.6972987801341903  0.949969451343236  1.0000
  C   C56       1.0  0.6885987375527592  0.7564955713408494  0.9523111631560895  1.0000
  C   C57       1.0  0.21996930314354304  0.773666460238026  0.9389381772699323  1.0000
  C   C58       1.0  0.27829364289032554  0.8368927508409527  0.9368922372797074  1.0000
  C   C59       1.0  0.2975854842832675  0.8037207720393127  0.0016927607188109263  1.0000
  C   C60       1.0  0.3381578699972039  0.7296619738945652  0.004791938692875397  1.0000
  C   C61       1.0  0.28074763450072737  0.6665524751846378  0.0057264090276873385  1.0000
  C   C62       1.0  0.20049509057693632  0.6968493856623185  0.004643294244949875  1.0000
  C   C63       1.0  0.16104788181686303  0.7159674513077904  0.06590125302260223  1.0000
  C   C64       1.0  0.21825111090425514  0.7801198012087485  0.06375053840563537  1.0000
  C   C65       1.0  0.8396529810247203  0.28589767099686725  0.9309774180919278  1.0000
  C   C66       1.0  0.7813692388961472  0.22336530650935066  0.9319456895367253  1.0000
  C   C67       1.0  0.7021649410267158  0.1979726137459608  0.9954872294652048  1.0000
  C   C68       1.0  0.6623985070051717  0.2723149239222876  0.9929179921856033  1.0000
  C   C69       1.0  0.7207806241666502  0.3350140192196776  0.9915473035579013  1.0000
  C   C70       1.0  0.800113142602008  0.3033662119559751  0.9937548707863186  1.0000
  C   C71       1.0  0.7807160837242434  0.22575856104381134  0.05797412870597193  1.0000
  C   C72       1.0  0.7229212342869786  0.16321742082174506  0.058902341110169155  1.0000
  C   C73       1.0  0.5193163345237082  0.8996898974280115  0.2584762413132324  1.0000
  C   C74       1.0  0.2452631269585979  0.8470608603506449  0.24488027856789069  1.0000
  C   C75       1.0  0.2660577973845903  0.5975789552569992  0.7458024133920063  1.0000
  C   C76       1.0  0.9923366156653304  0.663917790275079  0.7307719102526066  1.0000
  C   C77       1.0  0.6013176240772893  0.9972050818557532  0.7348774486920037  1.0000
  C   C78       1.0  0.6565012164037612  0.26382843848612236  0.7399656442380473  1.0000
  C   C79       1.0  0.9034819871168623  0.2390631657405962  0.2520332149793986  1.0000
  C   C80       1.0  0.842443831218965  0.5083441375552911  0.25027450327367257  1.0000
  O   O1        1.0  0.0014559224751167252  0.5032710561823421  0.9938222060504033  1.0000
  O   O2        1.0  0.17469235571205394  0.6056804497793992  0.9622858016622188  1.0000
  O   O3        1.0  0.9360148352792662  0.4859116060900846  0.1467965596104931  1.0000
  O   O4        1.0  0.07149207991670181  0.3371345776514971  0.042237405915997825  1.0000
  O   O5        1.0  0.06914238201915172  0.6256038225008426  0.040508062956860165  1.0000
  O   O6        1.0  0.17140068901328934  0.43801026422427486  0.9592499917528413  1.0000
  O   O7        1.0  0.9134942584584208  0.3665532427024872  0.14527903258196773  1.0000
  O   O8        1.0  0.9032475658520838  0.3373329248284592  0.0259949705208414  1.0000
  O   O9        1.0  0.013534141592956071  0.5689186405701322  0.8411769823019882  1.0000
  O   O10       1.0  0.8644513681591447  0.43693207708724213  0.9524990533960107  1.0000
  O   O11       1.0  0.13681084987994302  0.5894475837306602  0.8462980853828199  1.0000
  O   O12       1.0  0.8962860882730511  0.6303783468222761  0.031947411873375055  1.0000
  O   O13       1.0  0.8686902739184106  0.6064721532626154  0.9522847231188364  1.0000
  O   O14       1.0  0.5018083440307067  0.0024327242855761992  0.9953752321548776  1.0000
  O   O15       1.0  0.3284787910602772  0.0713409537935092  0.0313611809107428  1.0000
  O   O16       1.0  0.5586699221204156  0.13799375125511656  0.8418825760284747  1.0000
  O   O17       1.0  0.4262534339842432  0.8856555661822867  0.9499437600205952  1.0000
  O   O18       1.0  0.43481239968080837  0.17030205380952174  0.9586684151994121  1.0000
  O   O19       1.0  0.3314132503857722  0.8958474300453292  0.04033604981230343  1.0000
  O   O20       1.0  0.5850120293064692  0.018029967514969797  0.8429162284018473  1.0000
  O   O21       1.0  0.5984331745314719  0.8699900184055525  0.9594740314805391  1.0000
  O   O22       1.0  0.49619698738789014  0.9149281172163911  0.14729343933608868  1.0000
  O   O23       1.0  0.6414204764279957  0.8977179406070733  0.030584604318832444  1.0000
  O   O24       1.0  0.3723844481298286  0.9432049618556206  0.14510242329743048  1.0000
  O   O25       1.0  0.6162594952177401  0.16527762287054062  0.9479780972311715  1.0000
  O   O26       1.0  0.6326742945724179  0.0665534773441863  0.03720668735733308  1.0000
  O   O27       1.0  0.5723296168870462  0.847946401424679  0.2530112558300955  1.0000
  O   O28       1.0  0.542814016337232  0.9677404617450879  0.24456108169709978  1.0000
  O   O29       1.0  0.19836888115685983  0.9050529694881605  0.23606777127400858  1.0000
  O   O30       1.0  0.2381082511043928  0.793881135578907  0.2287253548549658  1.0000
  O   O31       1.0  0.3121317226329198  0.6473667021821541  0.7547290842027863  1.0000
  O   O32       1.0  0.2738581939095042  0.5284753149523455  0.7622019701838666  1.0000
  O   O33       1.0  0.9394501722689698  0.6068358684333363  0.7361052015555671  1.0000
  O   O34       1.0  0.9687374905316234  0.7184906097691695  0.7441748427659434  1.0000
  O   O35       1.0  0.6541043336591628  0.9452592867297513  0.7453746925332824  1.0000
  O   O36       1.0  0.5319033014222043  0.9745456060673376  0.7457394279488412  1.0000
  O   O37       1.0  0.5977294459386044  0.3103577977605028  0.7434371972017288  1.0000
  O   O38       1.0  0.7103688628141925  0.2695938139372346  0.7592245774639395  1.0000
  O   O39       1.0  0.8511147501441556  0.19528757883096404  0.2431038106175478  1.0000
  O   O40       1.0  0.9739229800419907  0.2300707536037763  0.23904855205044137  1.0000
  O   O41       1.0  0.9013602465580064  0.5590046512987855  0.24577673550251686  1.0000
  O   O42       1.0  0.7871242040625931  0.5324631809613366  0.23280675529793635  1.0000
