data_image0
_chemical_formula_structural       Ag4H20C28O12
_chemical_formula_sum              "Ag4 H20 C28 O12"
_cell_length_a       7.463851160012215
_cell_length_b       8.696617255003636
_cell_length_c       10.680802384659472
_cell_angle_alpha    90.00001965917362
_cell_angle_beta     108.23294823543117
_cell_angle_gamma    90.00009166613734

_space_group_name_H-M_alt    "P 1"
_space_group_IT_number       1

loop_
  _space_group_symop_operation_xyz
  'x, y, z'

loop_
  _atom_site_type_symbol
  _atom_site_label
  _atom_site_symmetry_multiplicity
  _atom_site_fract_x
  _atom_site_fract_y
  _atom_site_fract_z
  _atom_site_occupancy
  Ag  Ag1       1.0  0.5648502158057552  0.8758926961189104  0.08437217254836331  1.0000
  Ag  Ag2       1.0  0.43514646132359747  0.3758936665290023  0.4156264143751472  1.0000
  Ag  Ag3       1.0  0.43515064733450254  0.12410621322751333  0.9156267786338291  1.0000
  Ag  Ag4       1.0  0.5648529996815269  0.6241063926889651  0.5843731720909775  1.0000
  H   H1        1.0  0.0089466583989193  0.6496836596499379  0.0400420655828952  1.0000
  H   H2        1.0  0.9910522911274737  0.14968426435351742  0.45995132443911046  1.0000
  H   H3        1.0  0.9910541962909462  0.3503175494410585  0.9599559475095562  1.0000
  H   H4        1.0  0.008945725477872202  0.8503169447350132  0.5400442068578216  1.0000
  H   H5        1.0  0.4958998641088925  0.9082501811216801  0.6892956719138184  1.0000
  H   H6        1.0  0.5041015958024531  0.40824775402973046  0.8107048298145829  1.0000
  H   H7        1.0  0.5040996138020901  0.0917498780966852  0.31070579073355026  1.0000
  H   H8        1.0  0.4958992673378119  0.5917511553166933  0.18929412136760967  1.0000
  H   H9        1.0  0.4186227136978572  0.6919396107161405  0.8152894489912657  1.0000
  H   H10       1.0  0.5813768508981312  0.19193378897572444  0.6847096454788402  1.0000
  H   H11       1.0  0.581376764215655  0.3080627482469964  0.18471201365698428  1.0000
  H   H12       1.0  0.418621191060936  0.8080628206238671  0.31528870008818904  1.0000
  H   H13       1.0  0.6782191099937762  0.5600218667806942  0.9932133719084248  1.0000
  H   H14       1.0  0.321780164152301  0.0600202140517894  0.5067856211085342  1.0000
  H   H15       1.0  0.32178177850654066  0.43997819243870856  0.006788393546081304  1.0000
  H   H16       1.0  0.6782178947138958  0.9399775454205822  0.49321460064018663  1.0000
  H   H17       1.0  0.9742511765579919  0.032968817453145505  0.7587328023793135  1.0000
  H   H18       1.0  0.025750867653414385  0.5329660184376123  0.7412677135362671  1.0000
  H   H19       1.0  0.025745454818078894  0.9670335415073269  0.24126524038278777  1.0000
  H   H20       1.0  0.9742514145278419  0.46703174103766537  0.2587324785432515  1.0000
  C   C1        1.0  0.14101096736244753  0.876426116733434  0.9249600310898887  1.0000
  C   C2        1.0  0.8589875928479954  0.37642408231668884  0.575038902458644  1.0000
  C   C3        1.0  0.858984287229674  0.12357049286487863  0.07504146122535357  1.0000
  C   C4        1.0  0.14101185970800148  0.6235794265182335  0.42495974591818  1.0000
  C   C5        1.0  0.7964577052879278  0.8982476690692637  0.7906168213927316  1.0000
  C   C6        1.0  0.20354511783134646  0.39824593624961585  0.7093811611785201  1.0000
  C   C7        1.0  0.20354599593684944  0.1017512402796257  0.2093846115849871  1.0000
  C   C8        1.0  0.7964557284043251  0.6017541229687922  0.29061591382287594  1.0000
  C   C9        1.0  0.8951182293138514  0.7036330213861747  0.9625570057987647  1.0000
  C   C10       1.0  0.10488415685645687  0.20363453192283743  0.5374398890096899  1.0000
  C   C11       1.0  0.1048826676393873  0.2963670378334271  0.03744569774637091  1.0000
  C   C12       1.0  0.8951180999698066  0.7963666771689902  0.462557488799284  1.0000
  C   C13       1.0  0.6083340586088893  0.8477819346969968  0.7630064679264381  1.0000
  C   C14       1.0  0.39166298567861446  0.3477793225255965  0.7369874503320731  1.0000
  C   C15       1.0  0.39166113681779535  0.15221927438946645  0.2369884577562118  1.0000
  C   C16       1.0  0.6083378774641801  0.6522218865655987  0.26301150085100744  1.0000
  C   C17       1.0  0.9420078996615473  0.8240867706358374  0.8912359612715053  1.0000
  C   C18       1.0  0.057990528400580395  0.3240824963563824  0.6087610558419954  1.0000
  C   C19       1.0  0.05799016766263071  0.17591558832625506  0.10876519856960701  1.0000
  C   C20       1.0  0.9420089157012157  0.6759198626059587  0.3912366544437589  1.0000
  C   C21       1.0  0.5652223201286192  0.7279790162804006  0.8365859930645101  1.0000
  C   C22       1.0  0.43478155559374426  0.22797988305411115  0.6634140375466232  1.0000
  C   C23       1.0  0.4347813726419645  0.27201874319590763  0.16341450182214606  1.0000
  C   C24       1.0  0.5652207265900415  0.7720201761659311  0.3365861545337837  1.0000
  C   C25       1.0  0.7091541316196341  0.6552554571606278  0.9369653913207616  1.0000
  C   C26       1.0  0.29084532685278214  0.15525493467448834  0.5630308606666148  1.0000
  C   C27       1.0  0.2908411060716886  0.3447457519268228  0.06303422481500578  1.0000
  C   C28       1.0  0.7091541341548718  0.8447474242882437  0.43696872580039087  1.0000
  O   O1        1.0  0.2644331750272996  0.8108476446256461  0.018528648698378388  1.0000
  O   O2        1.0  0.7355633588847893  0.31084675619073476  0.4814698881998397  1.0000
  O   O3        1.0  0.7355691494122638  0.18914436548870128  0.981476233832048  1.0000
  O   O4        1.0  0.26443611903251707  0.6891590523895417  0.5185315744497389  1.0000
  O   O5        1.0  0.17316341388239917  0.9890262277523973  0.8550753123669567  1.0000
  O   O6        1.0  0.8268382238821131  0.4890253274796734  0.6449252514849348  1.0000
  O   O7        1.0  0.8268403211477632  0.010966932235369601  0.14492987297104779  1.0000
  O   O8        1.0  0.173165477348995  0.5109793312311268  0.3550761814949936  1.0000
  O   O9        1.0  0.832185777407872  0.0168279532525517  0.7211278229758024  1.0000
  O   O10       1.0  0.1678148122215219  0.5168242155069721  0.778871439628098  1.0000
  O   O11       1.0  0.16781227300791807  0.9831721059643925  0.2788714606831776  1.0000
  O   O12       1.0  0.8321874784126564  0.4831735439684976  0.22112969054203557  1.0000
