data_image0
_chemical_formula_structural       Ca2H26C32N6O12
_chemical_formula_sum              "Ca2 H26 C32 N6 O12"
_cell_length_a       6.7767097058177885
_cell_length_b       7.66497260037957
_cell_length_c       15.64161403075941
_cell_angle_alpha    79.70850874687173
_cell_angle_beta     86.08289789648857
_cell_angle_gamma    74.47570216045347

_space_group_name_H-M_alt    "P 1"
_space_group_IT_number       1

loop_
  _space_group_symop_operation_xyz
  'x, y, z'

loop_
  _atom_site_type_symbol
  _atom_site_label
  _atom_site_symmetry_multiplicity
  _atom_site_fract_x
  _atom_site_fract_y
  _atom_site_fract_z
  _atom_site_occupancy
  Ca  Ca1       1.0  0.2344025052674112  0.5947826894552647  0.4502653613361929  1.0000
  Ca  Ca2       1.0  0.7655918570280776  0.4052192880061655  0.5497337734658744  1.0000
  H   H1        1.0  0.12990775998893872  0.9643307923614302  0.1755876439113423  1.0000
  H   H2        1.0  0.8700840662643542  0.035664359409757714  0.8244108900504942  1.0000
  H   H3        1.0  0.5490600751362749  0.2945462091431352  0.07331291442936562  1.0000
  H   H4        1.0  0.4509393370452202  0.7054694344253534  0.9266887000194545  1.0000
  H   H5        1.0  0.3056830013572664  0.0928530302410806  0.0510440288841778  1.0000
  H   H6        1.0  0.6943133200413526  0.9071365851085815  0.9489542387829673  1.0000
  H   H7        1.0  0.7257895343905076  0.42008696341900287  0.9438883654850017  1.0000
  H   H8        1.0  0.2742110144715184  0.579924560726475  0.05611358609801442  1.0000
  H   H9        1.0  0.4458583692019075  0.16450244605541534  0.9437927061663204  1.0000
  H   H10       1.0  0.5541407248025222  0.8354981697931975  0.05621217662638147  1.0000
  H   H11       1.0  0.8777481820991466  0.5389214420779498  0.8436810459140746  1.0000
  H   H12       1.0  0.12225881187170969  0.4610776431245896  0.15631800634886162  1.0000
  H   H13       1.0  0.622375009501816  0.30412462977933064  0.8185422318800235  1.0000
  H   H14       1.0  0.3776319048151534  0.6958690547391058  0.18146369813852203  1.0000
  H   H15       1.0  0.0786123933088589  0.6604868471528249  0.7242518756901362  1.0000
  H   H16       1.0  0.9214012620956281  0.33950944086910795  0.2757491646307457  1.0000
  H   H17       1.0  0.9631110696930352  0.8714063614211582  0.2909408688219273  1.0000
  H   H18       1.0  0.03688365125714911  0.1285997098528924  0.7090572514508935  1.0000
  H   H19       1.0  0.3269456021822137  0.7651637977942657  0.5869183300572731  1.0000
  H   H20       1.0  0.6730591811035821  0.2348325776204803  0.4130810237856154  1.0000
  H   H21       1.0  0.0795052106811482  0.8306164895154282  0.5925608267532994  1.0000
  H   H22       1.0  0.9205006668479855  0.1693812481564976  0.4074390152827548  1.0000
  H   H23       1.0  0.32525319263626784  0.2901254283254886  0.3457260045432733  1.0000
  H   H24       1.0  0.6747511895576394  0.7098723349568203  0.6542745148878383  1.0000
  H   H25       1.0  0.48500697870868226  0.4173211949050072  0.3089601362593584  1.0000
  H   H26       1.0  0.5149992666147796  0.5826751769891985  0.6910404571379162  1.0000
  C   C1        1.0  0.7045368284335042  0.7089578748726381  0.4027454823870684  1.0000
  C   C2        1.0  0.2954575560603629  0.29104408786222535  0.5972523744487149  1.0000
  C   C3        1.0  0.6591235202089364  0.8591333626350915  0.3285385736000279  1.0000
  C   C4        1.0  0.3408720120646577  0.14086447331348498  0.6714589813868133  1.0000
  C   C5        1.0  0.4748555406836276  0.9727864561947825  0.29370514184382307  1.0000
  C   C6        1.0  0.5251381284604051  0.027212771141904596  0.7062923391768551  1.0000
  C   C7        1.0  0.26167339334187295  0.9851354313104467  0.32809905757327584  1.0000
  C   C8        1.0  0.7383232331750591  0.014863766895302902  0.6718989856067381  1.0000
  C   C9        1.0  0.7165707083783842  0.0433553224467218  0.20860491519955812  1.0000
  C   C10       1.0  0.28342328612277606  0.9566480207924287  0.791393468241303  1.0000
  C   C11       1.0  0.8247083188981391  0.1191106709411258  0.1337468820087651  1.0000
  C   C12       1.0  0.17528752763338667  0.8808912882731901  0.8662522143813973  1.0000
  C   C13       1.0  0.03903831818062999  0.0639943857035092  0.12516184138033282  1.0000
  C   C14       1.0  0.9609557298569129  0.9360034684921743  0.8748357520184129  1.0000
  C   C15       1.0  0.7152521605952485  0.24939023831855417  0.06679637681078533  1.0000
  C   C16       1.0  0.284743632399902  0.7506172099392288  0.9332035096214855  1.0000
  C   C17       1.0  0.13924917155343053  0.13642382536531977  0.05292442946817741  1.0000
  C   C18       1.0  0.8607467396136743  0.8635726374422531  0.9470732378967313  1.0000
  C   C19       1.0  0.8165841146262806  0.3198460862582594  0.9942182595943834  1.0000
  C   C20       1.0  0.18341058412552505  0.6801599997423509  0.005781138644721319  1.0000
  C   C21       1.0  0.03165367047727588  0.2645579257524703  0.9849080757957935  1.0000
  C   C22       1.0  0.9683425549477677  0.7354426603208424  0.015091132972429507  1.0000
  C   C23       1.0  0.14168036005438012  0.3388104944029919  0.9081762309992741  1.0000
  C   C24       1.0  0.8583195805305837  0.6611873162573757  0.0918237646844204  1.0000
  C   C25       1.0  0.35548892786186304  0.27487135970161347  0.8974795868416265  1.0000
  C   C26       1.0  0.6445135246073547  0.7251278391484989  0.1025246925221808  1.0000
  C   C27       1.0  0.042594136920620015  0.4784868793586909  0.8422564483953465  1.0000
  C   C28       1.0  0.9574116981713204  0.5215163399934184  0.1577435446996844  1.0000
  C   C29       1.0  0.4568037880997905  0.35349228534512633  0.8272335775154218  1.0000
  C   C30       1.0  0.5432038748645808  0.646504112481651  0.1727708113687996  1.0000
  C   C31       1.0  0.1565601957953859  0.5497711886179104  0.7740823719547765  1.0000
  C   C32       1.0  0.8434486169082761  0.4502265346496302  0.22591931020689768  1.0000
  N   N1        1.0  0.8093774889906414  0.9097183506014874  0.27397636648031926  1.0000
  N   N2        1.0  0.1906194850817968  0.09028494878016602  0.7260213011535797  1.0000
  N   N3        1.0  0.5114978153122394  0.0864261144206964  0.22010882911339993  1.0000
  N   N4        1.0  0.48849694807513805  0.9135744751731636  0.7798891401004511  1.0000
  N   N5        1.0  0.36147087924547355  0.4913300064639117  0.7662363350885356  1.0000
  N   N6        1.0  0.6385420275116189  0.5086635682496805  0.2337662463666632  1.0000
  O   O1        1.0  0.8902263666885234  0.6330406868639501  0.4250626534202553  1.0000
  O   O2        1.0  0.10976801780534369  0.36696127587092064  0.5749352034155278  1.0000
  O   O3        1.0  0.5573549946701134  0.6532389918297598  0.4431643881909579  1.0000
  O   O4        1.0  0.44263862093754364  0.34676572455039434  0.5568338828718353  1.0000
  O   O5        1.0  0.19489560385934376  0.8422334075678534  0.3330239321217619  1.0000
  O   O6        1.0  0.8050958232616239  0.1577685842979619  0.6669733625546928  1.0000
  O   O7        1.0  0.16014294406325288  0.13738431525075612  0.34762504185913917  1.0000
  O   O8        1.0  0.8398603105897421  0.8626121078642299  0.6523769063282289  1.0000
  O   O9        1.0  0.20022584289393547  0.79120706967327  0.554277474921399  1.0000
  O   O10       1.0  0.7997785392999716  0.20879069360904617  0.44572304450971256  1.0000
  O   O11       1.0  0.4024870821736854  0.37292776386866683  0.3612502834761457  1.0000
  O   O12       1.0  0.5975139526546228  0.6270714090488737  0.6387502004007146  1.0000
