data_image0
_chemical_formula_structural       Cd4H24C32O20
_chemical_formula_sum              "Cd4 H24 C32 O20"
_cell_length_a       6.495890858941701
_cell_length_b       7.24954336124141
_cell_length_c       18.202517414223458
_cell_angle_alpha    89.99544442010871
_cell_angle_beta     89.92429082799421
_cell_angle_gamma    89.72463929831049

_space_group_name_H-M_alt    "P 1"
_space_group_IT_number       1

loop_
  _space_group_symop_operation_xyz
  'x, y, z'

loop_
  _atom_site_type_symbol
  _atom_site_label
  _atom_site_symmetry_multiplicity
  _atom_site_fract_x
  _atom_site_fract_y
  _atom_site_fract_z
  _atom_site_occupancy
  Cd  Cd1       1.0  0.8345799598083232  0.7495100627184925  0.4998267065945329  1.0000
  Cd  Cd2       1.0  0.1655695048951031  0.24858586350099898  3.16485581635e-05  1.0000
  Cd  Cd3       1.0  0.16545751139994283  0.2505606667622473  0.5001674728751483  1.0000
  Cd  Cd4       1.0  0.8342901552601704  0.7513166817521364  0.9999702629095139  1.0000
  H   H1        1.0  0.3950028547971698  0.8383016538862477  0.5246050559349911  1.0000
  H   H2        1.0  0.6050309078993835  0.15920983653283832  0.023719759804521297  1.0000
  H   H3        1.0  0.6036044610044726  0.3351590066008683  0.9736008538900689  1.0000
  H   H4        1.0  0.3960588773334166  0.6623205755045802  0.47443566414607835  1.0000
  H   H5        1.0  0.604937505183841  0.16165610896894828  0.4756462549989208  1.0000
  H   H6        1.0  0.39487088048682745  0.8408541065466081  0.976370580952242  1.0000
  H   H7        1.0  0.3962743164691389  0.6648939102491837  0.0264779543511651  1.0000
  H   H8        1.0  0.6040324281634426  0.337621926756441  0.5258117800884605  1.0000
  H   H9        1.0  0.5281601647329666  0.5595110166625686  0.6317405401437597  1.0000
  H   H10       1.0  0.4737585382451855  0.440320141395155  0.1315783259081655  1.0000
  H   H11       1.0  0.467659076436334  0.059550696511578786  0.8681959406586941  1.0000
  H   H12       1.0  0.5307424321882267  0.9403718190362369  0.3683818034423965  1.0000
  H   H13       1.0  0.47228854172718837  0.4405897786370616  0.36811733083067816  1.0000
  H   H14       1.0  0.5260180241231039  0.559658265634738  0.8682719639492688  1.0000
  H   H15       1.0  0.532357230402745  0.9404676076864575  0.1317416608300093  1.0000
  H   H16       1.0  0.46899176290330064  0.0597280326795584  0.6315618760232198  1.0000
  H   H17       1.0  0.34882963050295496  0.6224365581682038  0.7498707351028955  1.0000
  H   H18       1.0  0.6513225618273921  0.377571962143243  0.2499212627548815  1.0000
  H   H19       1.0  0.6456367761192752  0.12291907903448869  0.7499546076773882  1.0000
  H   H20       1.0  0.35424088590228564  0.8771296445992364  0.2499648823985154  1.0000
  H   H21       1.0  0.05816208342077541  0.3600754482315338  0.7504224721165755  1.0000
  H   H22       1.0  0.9419374579731538  0.6398669753155345  0.24961291223419116  1.0000
  H   H23       1.0  0.9396753795137301  0.8593302963329775  0.7496810079237476  1.0000
  H   H24       1.0  0.06025964256134841  0.1405804869748053  0.250333527285278  1.0000
  C   C1        1.0  0.91073383411495  0.41484504088450785  0.6128976825721182  1.0000
  C   C2        1.0  0.0915426356194189  0.5848360260725656  0.112250582790395  1.0000
  C   C3        1.0  0.08680124577527691  0.9139038299356199  0.8870371705394361  1.0000
  C   C4        1.0  0.9112799330851189  0.08578248902462349  0.3876200055274026  1.0000
  C   C5        1.0  0.0897210453070016  0.5851826869093274  0.3870881980634451  1.0000
  C   C6        1.0  0.9082442006376965  0.4151741502504365  0.887739244023102  1.0000
  C   C7        1.0  0.9132797162022255  0.0860799745511116  0.11296415178944841  1.0000
  C   C8        1.0  0.0884808217778428  0.9142028763931265  0.6123802653965953  1.0000
  C   C9        1.0  0.804297887995041  0.4555179224593361  0.6836002369507881  1.0000
  C   C10       1.0  0.1968899673915345  0.5443952676922167  0.18310941799681044  1.0000
  C   C11       1.0  0.1926407141247282  0.955030270679906  0.816375503197321  1.0000
  C   C12       1.0  0.8064574907404207  0.0448612766456193  0.3168295820719962  1.0000
  C   C13       1.0  0.19599690417227586  0.5445250580794934  0.3163521542545097  1.0000
  C   C14       1.0  0.8031001500003113  0.4556175398844502  0.8168457678385862  1.0000
  C   C15       1.0  0.8073758454635467  0.044905287042425406  0.1836142959370832  1.0000
  C   C16       1.0  0.19340792144122787  0.9551391964896894  0.6831525426737031  1.0000
  C   C17       1.0  0.6039680852076188  0.5291722161965353  0.683753292696835  1.0000
  C   C18       1.0  0.39714938210009626  0.4706763761945608  0.1835134442511617  1.0000
  C   C19       1.0  0.39203435147915405  0.0290422768048089  0.8161999026085807  1.0000
  C   C20       1.0  0.6070622111370696  0.970843559905788  0.3164497654789926  1.0000
  C   C21       1.0  0.3963051999677276  0.47089971941141323  0.3161282298725538  1.0000
  C   C22       1.0  0.6028254896536253  0.5293419337046855  0.8163730715252128  1.0000
  C   C23       1.0  0.6079343123231169  0.9709484729872314  0.1837569364189804  1.0000
  C   C24       1.0  0.3927537756001628  0.029205212190923598  0.6835081899729473  1.0000
  C   C25       1.0  0.5040081828858121  0.5650795211303076  0.7499971180624101  1.0000
  C   C26       1.0  0.4961344950339637  0.43495661329328067  0.24985366194666633  1.0000
  C   C27       1.0  0.49123262337503343  0.0651708890777414  0.7498819058359132  1.0000
  C   C28       1.0  0.5086696711038671  0.9348640351014551  0.2500623036336407  1.0000
  C   C29       1.0  0.9033273574171616  0.41834160346893867  0.750299314399939  1.0000
  C   C30       1.0  0.09676741119204732  0.5816642562417159  0.24968057837836707  1.0000
  C   C31       1.0  0.0937960459399463  0.9177694410274736  0.7497289130904292  1.0000
  C   C32       1.0  0.9061219046279946  0.08217721259031657  0.2502740847109379  1.0000
  O   O1        1.0  0.8170795685426597  0.4461770349547223  0.5516579947124498  1.0000
  O   O2        1.0  0.18556678533328613  0.5516747772263386  0.0511572419362594  1.0000
  O   O3        1.0  0.18012632592095906  0.9443295659372312  0.9483084326403102  1.0000
  O   O4        1.0  0.8175126375498962  0.053514080724340794  0.44873703443631996  1.0000
  O   O5        1.0  0.18345438937600997  0.5537513160666947  0.4482866795891097  1.0000
  O   O6        1.0  0.8141137488420468  0.4483740693257587  0.9487935917210493  1.0000
  O   O7        1.0  0.819991419526339  0.05569973144454109  0.0516736522254746  1.0000
  O   O8        1.0  0.18209739737621083  0.9464575650987257  0.5512313962711274  1.0000
  O   O9        1.0  0.0916121357062138  0.3466232171814525  0.6145324566121815  1.0000
  O   O10       1.0  0.9113513875886667  0.6545455631645537  0.113767892172298  1.0000
  O   O11       1.0  0.9064133581434961  0.8460356224571228  0.8854205572531554  1.0000
  O   O12       1.0  0.09100257437275872  0.1550693953518518  0.38611120291216844  1.0000
  O   O13       1.0  0.9088330751607715  0.6534721232680668  0.3854995671559108  1.0000
  O   O14       1.0  0.08846012442592148  0.3454301298294595  0.8862675320397528  1.0000
  O   O15       1.0  0.09365525819274718  0.1539357864434905  0.11461537857839942  1.0000
  O   O16       1.0  0.9087658623746577  0.8448952899077041  0.6139330186250475  1.0000
  O   O17       1.0  0.48998586380333375  0.7506160353353691  0.4993140476123585  1.0000
  O   O18       1.0  0.5101658952059367  0.2426464773749188  0.9963128993745228  1.0000
  O   O19       1.0  0.5100280675041162  0.24894863829777586  0.501178461570511  1.0000
  O   O20       1.0  0.48971041868912124  0.7575513131752274  0.0038642349272706  1.0000
