data_image0
_chemical_formula_structural       Na4H10C4N18O4
_chemical_formula_sum              "Na4 H10 C4 N18 O4"
_cell_length_a       5.878694917439583
_cell_length_b       6.439251351000004
_cell_length_c       10.740985987271424
_cell_angle_alpha    89.99999816137468
_cell_angle_beta     97.06267997996208
_cell_angle_gamma    89.99999720435605

_space_group_name_H-M_alt    "P 1"
_space_group_IT_number       1

loop_
  _space_group_symop_operation_xyz
  'x, y, z'

loop_
  _atom_site_type_symbol
  _atom_site_label
  _atom_site_symmetry_multiplicity
  _atom_site_fract_x
  _atom_site_fract_y
  _atom_site_fract_z
  _atom_site_occupancy
  Na  Na1       1.0  0.1638249440399235  0.9965568363483115  0.17215077635970027  1.0000
  Na  Na2       1.0  0.8361756044438948  0.496557689691528  0.8278503773395939  1.0000
  Na  Na3       1.0  0.8361756174497047  0.003442911759030701  0.8278494540461381  1.0000
  Na  Na4       1.0  0.16382495704573333  0.5034420584158144  0.17214985306624436  1.0000
  H   H1        1.0  0.24878925110485284  0.7500002184613734  0.38004382212277205  1.0000
  H   H2        1.0  0.7512113103847754  0.24999952964597583  0.619956408283066  1.0000
  H   H3        1.0  0.5078288167963905  0.7500002118194332  0.35334786286763625  1.0000
  H   H4        1.0  0.49217174368222066  0.2500010892634634  0.6466532984832012  1.0000
  H   H5        1.0  0.8118853796133083  0.750000204786943  0.2707858755086576  1.0000
  H   H6        1.0  0.18811518288725892  0.2500010962959749  0.7292134239521244  1.0000
  H   H7        1.0  0.7242889462276311  0.7500002093609979  0.1236599280943622  1.0000
  H   H8        1.0  0.2757116152619972  0.24999953874635136  0.876340302311469  1.0000
  H   H9        1.0  0.5675391839046072  0.24999953837705396  0.36913367029450933  1.0000
  H   H10       1.0  0.43246137758502096  0.7500002097302954  0.630866560111329  1.0000
  C   C1        1.0  0.9206060094674912  0.25000108143329675  0.3908660382188103  1.0000
  C   C2        1.0  0.07939455101116272  0.7499986666740385  0.6091351231320558  1.0000
  C   C3        1.0  0.6743991484963203  0.24999953812003642  0.19157617159345358  1.0000
  C   C4        1.0  0.32560312705666666  0.7500033159383861  0.8084241747094794  1.0000
  N   N1        1.0  0.7090145581957473  0.24999798228479625  0.320289671703513  1.0000
  N   N2        1.0  0.2909860032939164  0.7500002128469846  0.6797105587023464  1.0000
  N   N3        1.0  0.9503507146185514  0.24999797279241423  0.5170604600270889  1.0000
  N   N4        1.0  0.0496464197552058  0.7500002223394728  0.48293860763944696  1.0000
  N   N5        1.0  0.18041444763117204  0.2500026521789352  0.5482362726754955  1.0000
  N   N6        1.0  0.8195826867424714  0.7500002018796508  0.4517627949909624  1.0000
  N   N7        1.0  0.2827267683667571  0.24999643901504953  0.4463540785681133  1.0000
  N   N8        1.0  0.7172720800704797  0.7500002031412333  0.5536451049955956  1.0000
  N   N9        1.0  0.1232825763743861  0.2500011037965351  0.3442938443876145  1.0000
  N   N10       1.0  0.8767179861261455  0.7500017502619514  0.6557054550731393  1.0000
  N   N11       1.0  0.4620579674503773  0.2499979918882431  0.12631454191878075  1.0000
  N   N12       1.0  0.5379443070917915  0.7499986502679121  0.8736867353292863  1.0000
  N   N13       1.0  0.49918889556928303  0.2500010986405741  0.0048868017992731065  1.0000
  N   N14       1.0  0.5008116659203027  0.7500002024423367  0.9951134286065437  1.0000
  N   N15       1.0  0.719447966332382  0.24999952489281438  0.9966790274892002  1.0000
  N   N16       1.0  0.2805543092206833  0.7500002232144778  0.0033213188137892935  1.0000
  N   N17       1.0  0.8380467262822792  0.24999798186087221  0.11350977650010206  1.0000
  N   N18       1.0  0.16195554927085712  0.7499986602952972  0.8864905698029301  1.0000
  O   O1        1.0  0.35070621826304194  0.7499986637492952  0.3107352607554502  1.0000
  O   O2        1.0  0.6492943422156117  0.2500010843580399  0.6892659005954158  1.0000
  O   O3        1.0  0.8641528931484644  0.7500002046160218  0.18697135933337705  1.0000
  O   O4        1.0  0.13584766834112832  0.2500010964668888  0.8130288710724398  1.0000
