data_image0
_chemical_formula_structural       Zn8H40C88Br16O26
_chemical_formula_sum              "Zn8 H40 C88 Br16 O26"
_cell_length_a       23.71868867497215
_cell_length_b       23.718878710114627
_cell_length_c       23.722190447948496
_cell_angle_alpha    66.09392293286774
_cell_angle_beta     72.71715252197552
_cell_angle_gamma    107.31113192003914

_space_group_name_H-M_alt    "P 1"
_space_group_IT_number       1

loop_
  _space_group_symop_operation_xyz
  'x, y, z'

loop_
  _atom_site_type_symbol
  _atom_site_label
  _atom_site_symmetry_multiplicity
  _atom_site_fract_x
  _atom_site_fract_y
  _atom_site_fract_z
  _atom_site_occupancy
  Zn  Zn1       1.0  0.059589151923937426  0.9590834424660603  0.48808562860205723  1.0000
  Zn  Zn2       1.0  0.05961534934495922  0.10049069889752364  0.45235196026040825  1.0000
  Zn  Zn3       1.0  0.940358715337581  0.9880123396834437  0.4591382591424844  1.0000
  Zn  Zn4       1.0  0.9403997851274255  0.952313389616059  0.6004734598397334  1.0000
  Zn  Zn5       1.0  0.9471656807859715  0.5476366170503155  0.01193243565080585  1.0000
  Zn  Zn6       1.0  0.05282637128562585  0.511934506282323  0.04767245325489708  1.0000
  Zn  Zn7       1.0  0.9471586252210644  0.39946513956407886  0.0408802948170787  1.0000
  Zn  Zn8       1.0  0.05281797660059353  0.54086779973769  0.8995311668778854  1.0000
  H   H1        1.0  0.9221769481448022  0.6523739694841952  0.11466800570079953  1.0000
  H   H2        1.0  0.0777848372437617  0.6146915460533934  0.1524601994731966  1.0000
  H   H3        1.0  0.925101590580226  0.8930223131994666  0.3478590481443077  1.0000
  H   H4        1.0  0.07494304132450957  0.8479672916745361  0.3929568182433059  1.0000
  H   H5        1.0  0.07776335031034876  0.4631478967942471  0.769792947591924  1.0000
  H   H6        1.0  0.9222335891344644  0.26970611412059503  0.9630834479781285  1.0000
  H   H7        1.0  0.07490506212488406  0.22701013363548836  0.5320809398601868  1.0000
  H   H8        1.0  0.9251006483618484  0.03206935153701103  0.7269597276715913  1.0000
  H   H9        1.0  0.7409317566274185  0.46791147069829025  0.10702295797355516  1.0000
  H   H10       1.0  0.740882526683592  0.27296684384244685  0.1520829879515801  1.0000
  H   H11       1.0  0.26716067817967126  0.23027058919947055  0.3474808082659919  1.0000
  H   H12       1.0  0.2670491581588124  0.03683331000444675  0.3853648747695146  1.0000
  H   H13       1.0  0.2590970439336149  0.6070979707156072  0.9679237357088297  1.0000
  H   H14       1.0  0.25904538372799396  0.6520688423350054  0.7730723777176323  1.0000
  H   H15       1.0  0.732908433501514  0.8474852092424286  0.730222808224866  1.0000
  H   H16       1.0  0.7328269580794784  0.8853976616378251  0.5368803682771811  1.0000
  H   H17       1.0  0.8669049289461127  0.7889494548169652  0.7942359312356191  1.0000
  H   H18       1.0  0.9417397443855433  0.8690581649481501  0.7469450456062037  1.0000
  H   H19       1.0  0.9134921836299769  0.807958099266287  0.8363773950735472  1.0000
  H   H20       1.0  0.08333461864107505  0.6611987231588827  0.7058108412955731  1.0000
  H   H21       1.0  0.11604993864447267  0.6887400748035334  0.7531619867488359  1.0000
  H   H22       1.0  0.14444287603865283  0.7499449540422347  0.663719080742702  1.0000
  H   H23       1.0  0.9166813504305579  0.7109104725220092  0.9220806674865544  1.0000
  H   H24       1.0  0.8839556425535022  0.6308229720599955  0.9272858390934358  1.0000
  H   H25       1.0  0.8555621052770592  0.6918847384344108  0.8944635825865106  1.0000
  H   H26       1.0  0.1330994051807083  0.8388536891853705  0.5779864036426902  1.0000
  H   H27       1.0  0.05826606835278619  0.8112843506218256  0.5727128696238496  1.0000
  H   H28       1.0  0.08654410839760368  0.75011450749669  0.6055620468331001  1.0000
  H   H29       1.0  0.8670067733542054  0.07783125228514368  0.3387476737079638  1.0000
  H   H30       1.0  0.941890602829723  0.072664675533588  0.3112409450903255  1.0000
  H   H31       1.0  0.913631603655354  0.10545841418490204  0.25003579907902207  1.0000
  H   H32       1.0  0.08320115868252032  0.4220718155868398  0.21106950196514154  1.0000
  H   H33       1.0  0.11599837136405716  0.42732894975470265  0.13099546042172247  1.0000
  H   H34       1.0  0.1443403902209681  0.3944966209416094  0.19210007158464745  1.0000
  H   H35       1.0  0.916804972970489  0.20571425735237653  0.16112827809021005  1.0000
  H   H36       1.0  0.8839802924584603  0.2529803557043238  0.18867834250983154  1.0000
  H   H37       1.0  0.855660254972904  0.1635317895515699  0.24983016811002282  1.0000
  H   H38       1.0  0.13300897311916068  0.29424984723607395  0.28912935780183346  1.0000
  H   H39       1.0  0.05814092370520997  0.24687714074156017  0.3691801134695184  1.0000
  H   H40       1.0  0.08637960304193369  0.3363433085977335  0.30813714540855847  1.0000
  C   C1        1.0  0.18461310619836266  0.09230288142498472  0.40770391089177593  1.0000
  C   C2        1.0  0.999987072715527  0.138051560384973  0.36193461733970617  1.0000
  C   C3        1.0  0.999981573482792  0.9117393355232228  0.41175835854436815  1.0000
  C   C4        1.0  0.8153620652979473  0.9076655025337391  0.5923069470865127  1.0000
  C   C5        1.0  0.9999963904800637  0.8618840205147935  0.6381053789041361  1.0000
  C   C6        1.0  1.8305831232832605e-06  0.08823487785011251  0.5882207154690492  1.0000
  C   C7        1.0  8.833162183928774e-06  0.5923150392463158  0.09230079517767821  1.0000
  C   C8        1.0  0.9999970968730169  0.36189544920321753  0.13809470324851933  1.0000
  C   C9        1.0  0.8235118912549807  0.4117537330020155  0.08821304507901577  1.0000
  C   C10       1.0  0.9999799757967833  0.4076671242228613  0.9076932873917375  1.0000
  C   C11       1.0  0.9999893227026037  0.6380589193545918  0.8619259750217052  1.0000
  C   C12       1.0  0.1764687334872193  0.5882463924700475  0.9117986481056662  1.0000
  C   C13       1.0  0.9999953162420353  0.804033431474359  0.6959675546127072  1.0000
  C   C14       1.0  0.9999979506954871  0.6959238345657183  0.8040655427714897  1.0000
  C   C15       1.0  0.9579894940784612  0.7789922972873814  0.7666889174399214  1.0000
  C   C16       1.0  0.04573358632958271  0.724702054186857  0.7333457738080255  1.0000
  C   C17       1.0  0.954267788734022  0.7209407788067853  0.8210118935813853  1.0000
  C   C18       1.0  0.04201364099802165  0.7753042707241706  0.6790173282858945  1.0000
  C   C19       1.0  0.9999982992392304  0.19592324207430062  0.3040703244564257  1.0000
  C   C20       1.0  0.9999892013405401  0.30402655154951935  0.19596362672981366  1.0000
  C   C21       1.0  0.9580327399019667  0.1789477607730063  0.27528372242809945  1.0000
  C   C22       1.0  0.04568728576884235  0.32101089657780346  0.2210251322030885  1.0000
  C   C23       1.0  0.954300832446755  0.23326893231690357  0.22468086524263947  1.0000
  C   C24       1.0  0.0419622514562334  0.2666759501099066  0.27907374478370883  1.0000
  C   C25       1.0  0.9999962086789298  0.6298700757580707  0.1298710278327062  1.0000
  C   C26       1.0  0.9561051916226903  0.6580685176853509  0.13673878558833513  1.0000
  C   C27       1.0  0.9564985159011955  0.6931682404554776  0.17141466480185139  1.0000
  C   C28       1.0  0.9999458589556554  0.701205903007079  0.2012239874339768  1.0000
  C   C29       1.0  0.0433932376174155  0.6714024485423807  0.1932407369015721  1.0000
  C   C30       1.0  0.04384744314067764  0.6367468387818748  0.15812255503745112  1.0000
  C   C31       1.0  0.9999640239739591  0.7366455167246501  0.23661629035655102  1.0000
  C   C32       1.0  1.84339208714808e-05  0.7674347082607725  0.2673328882700615  1.0000
  C   C33       1.0  4.1814621532374426e-05  0.8028711322410659  0.30272658815390224  1.0000
  C   C34       1.0  0.9577192802994143  0.8340872080286558  0.30930724426932016  1.0000
  C   C35       1.0  0.95775960000821  0.8693365404150986  0.3438226644217292  1.0000
  C   C36       1.0  1.3196877446699097e-05  0.8741807124700358  0.37411135043517174  1.0000
  C   C37       1.0  0.04228941168239675  0.8439316388679927  0.36924675405172996  1.0000
  C   C38       1.0  0.04236491424906327  0.8094582974960364  0.3339555912097866  1.0000
  C   C39       1.0  0.9999810486475553  0.3701043478850679  0.8701084936175222  1.0000
  C   C40       1.0  0.04384777257988052  0.4071422981852921  0.79802680398533  1.0000
  C   C41       1.0  0.043447817378350365  0.37207607925779485  0.7633188505719347  1.0000
  C   C42       1.0  4.1729488081888355e-05  0.2988073111862023  0.7987369568657529  1.0000
  C   C43       1.0  0.956626106653559  0.263316276966471  0.8719863940933336  1.0000
  C   C44       1.0  0.9561490307438306  0.2979831752812245  0.9070963853515721  1.0000
  C   C45       1.0  5.0632017732249316e-05  0.26338977812761044  0.7633133579230745  1.0000
  C   C46       1.0  4.356898569566251e-05  0.23263081380349604  0.7325696541632212  1.0000
  C   C47       1.0  2.5152980107586594e-05  0.19719633628714212  0.6971568226770158  1.0000
  C   C48       1.0  0.042331010946078614  0.23295217827977413  0.6236261339857592  1.0000
  C   C49       1.0  0.04226839247769478  0.19839768218256643  0.5884131326184558  1.0000
  C   C50       1.0  3.999452204081442e-06  0.12585279658849663  0.6258275731650969  1.0000
  C   C51       1.0  0.9577457928728917  0.08841889525020027  0.698350363868883  1.0000
  C   C52       1.0  0.9577059326066291  0.12364389215468234  0.7328958009851406  1.0000
  C   C53       1.0  0.7482967426075859  0.3741240979898707  0.12585696496961418  1.0000
  C   C54       1.0  0.7131937431788629  0.41155286935781993  0.1307220275488348  1.0000
  C   C55       1.0  0.6434192228498575  0.3763321234958923  0.16601004389058727  1.0000
  C   C56       1.0  0.6056071575723223  0.3027812468152717  0.19722734907627887  1.0000
  C   C57       1.0  0.6433920802647323  0.26703041599162  0.19064445581136616  1.0000
  C   C58       1.0  0.7131629967776052  0.30158979771797345  0.15612849592522332  1.0000
  C   C59       1.0  0.534768404986096  0.2673553268577893  0.23263538389598878  1.0000
  C   C60       1.0  0.4732722984436607  0.23659681935945556  0.26336175681609564  1.0000
  C   C61       1.0  0.4024339614403232  0.20118185153127405  0.2987661267358632  1.0000
  C   C62       1.0  0.3646552900517435  0.23666272453192513  0.30670298091161635  1.0000
  C   C63       1.0  0.2948752750411002  0.20199036521876224  0.3418406210722367  1.0000
  C   C64       1.0  0.2597541243314865  0.12987726413388154  0.3701195351470902  1.0000
  C   C65       1.0  0.2948121121651966  0.09284020884496161  0.3632795679878171  1.0000
  C   C66       1.0  0.3645913031960077  0.1279139746053559  0.328609638454637  1.0000
  C   C67       1.0  0.2516815904244821  0.625881374233039  0.8741920591988688  1.0000
  C   C68       1.0  0.28681563176447616  0.6307857340848174  0.911593637309899  1.0000
  C   C69       1.0  0.3565838004768623  0.6660906167570603  0.8763716549659221  1.0000
  C   C70       1.0  0.3943627544434135  0.6972976104964276  0.8028475272659891  1.0000
  C   C71       1.0  0.3565479125874587  0.6906751779120199  0.7671225947985008  1.0000
  C   C72       1.0  0.28678168095516543  0.6561397208337497  0.8016726792523131  1.0000
  C   C73       1.0  0.4652067820492362  0.7327137020856328  0.7674199215483385  1.0000
  C   C74       1.0  0.5267080157028871  0.7634398908729239  0.7366337015230328  1.0000
  C   C75       1.0  0.5975438618814194  0.798823563392311  0.7012122525536101  1.0000
  C   C76       1.0  0.635379637838753  0.806740739217162  0.7366555349120532  1.0000
  C   C77       1.0  0.7051521112350445  0.8418451754511982  0.7019719748329364  1.0000
  C   C78       1.0  0.7402187763805371  0.8701052256018401  0.6298775065695851  1.0000
  C   C79       1.0  0.7051005553352995  0.8633036072297601  0.5928759703061673  1.0000
  C   C80       1.0  0.6353279210921345  0.828695273517248  0.6279533108800589  1.0000
  C   C81       1.0  0.918079123131534  0.8131117050772761  0.7869307640390771  1.0000
  C   C82       1.0  0.10012873017755912  0.7050652773497674  0.7131379422771431  1.0000
  C   C83       1.0  0.8998720982170952  0.6867643598125923  0.8950402420769947  1.0000
  C   C84       1.0  0.08193956306223507  0.7949729167642657  0.6049921388499088  1.0000
  C   C85       1.0  0.9181820176744254  0.10489448212633334  0.29490995362292677  1.0000
  C   C86       1.0  0.10005183829430563  0.39506115998133146  0.1869246954850112  1.0000
  C   C87       1.0  0.8999439462824486  0.2129977856319486  0.2049950504551887  1.0000
  C   C88       1.0  0.0818249849933679  0.28690821763625257  0.3132534770119477  1.0000
  Br  Br1       1.0  0.10301111229473742  0.6785877439215682  0.23132220447968882  1.0000
  Br  Br2       1.0  0.8967708993790637  0.7310928599162665  0.17865904926480863  1.0000
  Br  Br3       1.0  0.10114203154034142  0.7703477496761909  0.3278059060182271  1.0000
  Br  Br4       1.0  0.8989535201366009  0.8279332928495294  0.27016260673625675  1.0000
  Br  Br5       1.0  0.8971359804548912  0.165588666598879  0.9244156572310018  1.0000
  Br  Br6       1.0  0.10311379613882818  0.42457017520246865  0.6656667047287287  1.0000
  Br  Br7       1.0  0.8989643425874192  0.0710148718821698  0.8307826558958027  1.0000
  Br  Br8       1.0  0.1010747791804717  0.3308766896612809  0.5710158555841288  1.0000
  Br  Br9       1.0  0.5980896370735138  0.1691070500179706  0.2297959886753702  1.0000
  Br  Br10      1.0  0.598170004063661  0.42897045523458405  0.1721579041997216  1.0000
  Br  Br11      1.0  0.4097563817404862  0.07541080836980998  0.32142627526442175  1.0000
  Br  Br12      1.0  0.40992956964987565  0.3343919493113034  0.26850515729532987  1.0000
  Br  Br13      1.0  0.40180601474176586  0.7297925542119617  0.6692375853892968  1.0000
  Br  Br14      1.0  0.4018906699566288  0.6722646782805485  0.9289738979698754  1.0000
  Br  Br15      1.0  0.5900562943299478  0.8217062735438888  0.5754916961455834  1.0000
  Br  Br16      1.0  0.5901796216275127  0.768612155161108  0.8343377281382515  1.0000
  O   O1        1.0  0.9999955196034522  0.9999790651224462  0.5000011620452012  1.0000
  O   O2        1.0  0.1556046955385852  0.028385318603831387  0.4259607984417003  1.0000
  O   O3        1.0  0.0545796307137181  0.15012927743442364  0.36591972384157145  1.0000
  O   O4        1.0  0.9662194448771119  0.944974250285931  0.4071918894439577  1.0000
  O   O5        1.0  0.15564208763353093  0.1272372500070845  0.4184501138628677  1.0000
  O   O6        1.0  0.033723063731557076  0.9071494808592533  0.4450171575806579  1.0000
  O   O7        1.0  0.9453969229367517  0.07948380197766623  0.4044465963048721  1.0000
  O   O8        1.0  0.8443304878768672  0.9259114151535216  0.5284101253446777  1.0000
  O   O9        1.0  0.9454077347968235  0.8658582866632044  0.6501534923628967  1.0000
  O   O10       1.0  0.8443755321682005  0.9184046288703627  0.6272156419665365  1.0000
  O   O11       1.0  0.0545637267089985  0.9044165202352162  0.5795478803141236  1.0000
  O   O12       1.0  0.03374544457836491  0.12658481433886956  0.5212396784262339  1.0000
  O   O13       1.0  0.9662601446413819  0.02123662538834021  0.6265509101100832  1.0000
  O   O14       1.0  0.9999941122784792  0.49997836207676755  5.2013499497626756e-06  1.0000
  O   O15       1.0  0.9543493096880626  0.5815487497823572  0.07404153596856805  1.0000
  O   O16       1.0  0.016032376355873512  0.420463348701567  0.13412170755176334  1.0000
  O   O17       1.0  0.8521679914630058  0.3734130181698633  0.09278953209881272  1.0000
  O   O18       1.0  0.04568077501175353  0.5740836903051234  0.08155138655997263  1.0000
  O   O19       1.0  0.8521689256315953  0.47875342096988055  0.05495946606674091  1.0000
  O   O20       1.0  0.9839483373227438  0.349818009881254  0.0955775637962261  1.0000
  O   O21       1.0  0.9543220520451924  0.3727402090241867  0.9715848680090243  1.0000
  O   O22       1.0  0.016034054172131117  0.5955378573319408  0.8498630862409087  1.0000
  O   O23       1.0  0.04564076006396084  0.47157976848646416  0.8727941133914782  1.0000
  O   O24       1.0  0.9839461002989437  0.6340843462541769  0.9204800268852369  1.0000
  O   O25       1.0  0.14781653891529337  0.5549944055798974  0.9787755087897806  1.0000
  O   O26       1.0  0.14780742627834798  0.5928266881517105  0.8734577088700847  1.0000
