data_image0
_chemical_formula_structural       H40Au8C48S8
_chemical_formula_sum              "H40 Au8 C48 S8"
_cell_length_a       4.360591538
_cell_length_b       13.804026038762768
_cell_length_c       20.8032
_cell_angle_alpha    104.87608303691978
_cell_angle_beta     90.0
_cell_angle_gamma    99.08771205152759

_space_group_name_H-M_alt    "P 1"
_space_group_IT_number       1

loop_
  _space_group_symop_operation_xyz
  'x, y, z'

loop_
  _atom_site_type_symbol
  _atom_site_label
  _atom_site_symmetry_multiplicity
  _atom_site_fract_x
  _atom_site_fract_y
  _atom_site_fract_z
  _atom_site_occupancy
  H   H1        1.0  0.057003027155332044  0.6857544736856838  0.5035847654947431  1.0000
  H   H2        1.0  0.3713999242975987  0.3140920965858811  0.9964097190335437  1.0000
  H   H3        1.0  0.9430158078166642  0.3142128989006849  0.49640770545883584  1.0000
  H   H4        1.0  0.62864969504065  0.6859322582244474  0.0035943818253585027  1.0000
  H   H5        1.0  0.957581653996577  0.862953235186744  0.5281413007241724  1.0000
  H   H6        1.0  0.0941574797575839  0.1369320829971201  0.9719905337641065  1.0000
  H   H7        1.0  0.04235923786046669  0.1370050202437909  0.4718491363942547  1.0000
  H   H8        1.0  0.9058661538827195  0.863090752287242  0.028017634495654378  1.0000
  H   H9        1.0  0.2128458444248835  0.9800159965695912  0.4636727864091553  1.0000
  H   H10       1.0  0.23272361705929262  0.0198700813772632  0.0364495636018844  1.0000
  H   H11       1.0  0.7870507016205508  0.0199452979128907  0.5363181684225609  1.0000
  H   H12       1.0  0.7673034634707178  0.9801504746181422  0.9635611005445668  1.0000
  H   H13       1.0  0.6496123263464284  0.7388193596916253  0.34558006412435555  1.0000
  H   H14       1.0  0.9117198066045233  0.2609223632878468  0.1542350456820785  1.0000
  H   H15       1.0  0.3503407356919226  0.2611586495765508  0.6544098925682462  1.0000
  H   H16       1.0  0.08831489950978978  0.7391042708114384  0.8457761731956807  1.0000
  H   H17       1.0  0.4016251697425659  0.6227063020414931  0.4109044878239203  1.0000
  H   H18       1.0  0.7796888985951611  0.3770521357236802  0.08892452539700459  1.0000
  H   H19       1.0  0.5984001092330685  0.3772785450935602  0.5890924020669175  1.0000
  H   H20       1.0  0.2203584414551329  0.6229676605087349  0.9110807216730734  1.0000
  H   H21       1.0  0.4256178319089656  0.4491665590818243  0.1587568700759263  1.0000
  H   H22       1.0  0.9741117076313301  0.5517892651495515  0.34127900635355246  1.0000
  H   H23       1.0  0.5744398068737908  0.5508600750174679  0.8412437735057239  1.0000
  H   H24       1.0  0.025906283704657068  0.4482039393783452  0.6587236335063338  1.0000
  H   H25       1.0  0.30734067818130484  0.4845661958963632  0.0507072785470939  1.0000
  H   H26       1.0  0.8206162101690069  0.5162293183449265  0.4492796572187601  1.0000
  H   H27       1.0  0.692734181071131  0.5154536003360519  0.9492897967032619  1.0000
  H   H28       1.0  0.17941364136142815  0.4837600873680401  0.5507223354995147  1.0000
  H   H29       1.0  0.08371431534861525  0.639112623964813  0.04927994678492805  1.0000
  H   H30       1.0  0.4439338215242259  0.3612786963678403  0.4506064072248179  1.0000
  H   H31       1.0  0.9163311113161683  0.3609079320305923  0.95071725789375  1.0000
  H   H32       1.0  0.5560857033159577  0.638712988634083  0.5493959737784238  1.0000
  H   H33       1.0  0.10877909772182898  0.725567573686881  0.2636593504278864  1.0000
  H   H34       1.0  0.3862814953397304  0.274272918480797  0.2362321912749579  1.0000
  H   H35       1.0  0.8911524812789011  0.2744362675228231  0.7363359682182491  1.0000
  H   H36       1.0  0.613718515763928  0.7257256043880034  0.7637718352784688  1.0000
  H   H37       1.0  0.33805247675750383  0.5714450933647157  0.2650305575550931  1.0000
  H   H38       1.0  0.7682454658800566  0.4287881962668152  0.23494904918290158  1.0000
  H   H39       1.0  0.6619436656384394  0.42856862476381247  0.7349664436592391  1.0000
  H   H40       1.0  0.23175569884647013  0.5712080473130285  0.7650526663044415  1.0000
  Au  Au1       1.0  0.7702124044298343  0.8768455013888286  0.25615443275680855  1.0000
  Au  Au2       1.0  0.8931765849033865  0.1233999444504761  0.24400414069653212  1.0000
  Au  Au3       1.0  0.22971768300337914  0.1231461836130947  0.7438373729503311  1.0000
  Au  Au4       1.0  0.10682303234005269  0.8766023772332545  0.7560034171701772  1.0000
  Au  Au5       1.0  0.37857601619104747  0.0757536880618872  0.3510173155749499  1.0000
  Au  Au6       1.0  0.3026766486029615  0.9243929885892186  0.14910664647113947  1.0000
  Au  Au7       1.0  0.6213812245418779  0.9242326785991395  0.6489827173441967  1.0000
  Au  Au8       1.0  0.6973244741868854  0.0756169307243795  0.850889226906304  1.0000
  C   C1        1.0  0.16305314069631288  0.7355189492797152  0.4738278182603395  1.0000
  C   C2        1.0  0.4276122835361632  0.2643002695243553  0.026165852410549886  1.0000
  C   C3        1.0  0.8369397085777379  0.2644469037806871  0.5261687200940912  1.0000
  C   C4        1.0  0.5724491959965334  0.7357202864710501  0.9738433696500762  1.0000
  C   C5        1.0  0.10931009399599383  0.8357157321326056  0.4881855746899078  1.0000
  C   C6        1.0  0.2734529925065985  0.16414147482076663  0.011887633079325593  1.0000
  C   C7        1.0  0.8906258174671321  0.1642463221128594  0.5118117586087436  1.0000
  C   C8        1.0  0.7265687277481874  0.8358821202265787  0.9881192225229256  1.0000
  C   C9        1.0  0.2497993671250426  0.901301512150603  0.4519690012886953  1.0000
  C   C10       1.0  0.3487055129341882  0.0985427788320052  0.04807749073988529  1.0000
  C   C11       1.0  0.7501212652117175  0.09865750304291508  0.5480220459533314  1.0000
  C   C12       1.0  0.6513161933416994  0.9014853747932535  0.9519301414322996  1.0000
  C   C13       1.0  0.4441338093104648  0.8664177544036704  0.4003916230874793  1.0000
  C   C14       1.0  0.5782075848302242  0.1334576868613695  0.09958710982014199  1.0000
  C   C15       1.0  0.5557756806578169  0.1335602548645056  0.5996002563862318  1.0000
  C   C16       1.0  0.4218064818824771  0.8665689472379156  0.900419782800121  1.0000
  C   C17       1.0  0.4947047031770921  0.7654080251555726  0.3851248238223377  1.0000
  C   C18       1.0  0.730025311350289  0.2344096741225172  0.11475033695359829  1.0000
  C   C19       1.0  0.5052464734335232  0.2345616267197528  0.6148670740256534  1.0000
  C   C20       1.0  0.27000940874290785  0.7656124013988546  0.8852601053542273  1.0000
  C   C21       1.0  0.35485502611285813  0.7005189477958921  0.42216814713962236  1.0000
  C   C22       1.0  0.6548170381535741  0.2992896343263638  0.07774247403281717  1.0000
  C   C23       1.0  0.6451336025299312  0.2994522236054067  0.5778249709555752  1.0000
  C   C24       1.0  0.345221142808235  0.7007256033281308  0.9222624771625973  1.0000
  C   C25       1.0  0.3306883152950348  0.5172587971911895  0.15807389892454177  1.0000
  C   C26       1.0  0.8125215381679426  0.4833908425567586  0.34188482173637164  1.0000
  C   C27       1.0  0.669358251013719  0.4827640380931726  0.8419260975154971  1.0000
  C   C28       1.0  0.18748728010066876  0.5166023619711382  0.6581192602093537  1.0000
  C   C29       1.0  0.2621773695646538  0.5368211745590514  0.09747731232207706  1.0000
  C   C30       1.0  0.724188268869355  0.4638451799745908  0.402471276989445  1.0000
  C   C31       1.0  0.7378676911976854  0.4631940630954503  0.902520428444177  1.0000
  C   C32       1.0  0.27583125597082864  0.5361465050273324  0.5975287005374099  1.0000
  C   C33       1.0  0.13570587530728764  0.623112015476103  0.09642247579861865  1.0000
  C   C34       1.0  0.5124839506022383  0.3772990586941845  0.4034917588066874  1.0000
  C   C35       1.0  0.8643124399944497  0.3769001831264447  0.9035733051685141  1.0000
  C   C36       1.0  0.48751340133214416  0.6226941458337122  0.5965108810531987  1.0000
  C   C37       1.0  0.07715351997131847  0.6903859888493713  0.1563994104511437  1.0000
  C   C38       1.0  0.38793033987815306  0.3098001954770169  0.3435019902202967  1.0000
  C   C39       1.0  0.9228472089583164  0.3096277292791568  0.8435995135442981  1.0000
  C   C40       1.0  0.6120757912633934  0.6901968078658101  0.6565017774764854  1.0000
  C   C41       1.0  0.1509946459060671  0.671989847665273  0.21719322744343117  1.0000
  C   C42       1.0  0.48106012700755213  0.3280504621677665  0.2827217786122275  1.0000
  C   C43       1.0  0.8489701644955828  0.3280208314113082  0.7828061402292761  1.0000
  C   C44       1.0  0.5189299652449648  0.6719419825971471  0.7172797704287817  1.0000
  C   C45       1.0  0.27806180905493955  0.5855143843425807  0.2177114021476143  1.0000
  C   C46       1.0  0.6936392521434768  0.4147454969934685  0.2822366824358582  1.0000
  C   C47       1.0  0.7219374003493968  0.4144962947340005  0.7822846006581443  1.0000
  C   C48       1.0  0.3063584656933358  0.585253025875339  0.7177678248128458  1.0000
  S   S1        1.0  0.6697205443341048  0.9554156308404416  0.3636232165589846  1.0000
  S   S2        1.0  0.7147044304967949  0.0445646577166912  0.1364993196199364  1.0000
  S   S3        1.0  0.33020920515446045  0.044561618664744194  0.6363685334864044  1.0000
  S   S4        1.0  0.28530623126287225  0.9554505799378107  0.8635061122707555  1.0000
  S   S5        1.0  0.8948339471862069  0.7946839723015983  0.15027109938642266  1.0000
  S   S6        1.0  0.1012803612535009  0.2056108581318057  0.3497550431915498  1.0000
  S   S7        1.0  0.1051637287139329  0.2053282263009564  0.8497193939326522  1.0000
  S   S8        1.0  0.8987150633164659  0.7943876647369947  0.6502509061429861  1.0000
