data_image0
_chemical_formula_structural       Cd2H24Pt2C20N12O4
_chemical_formula_sum              "Cd2 H24 Pt2 C20 N12 O4"
_cell_length_a       8.643552864391198
_cell_length_b       8.726859485765356
_cell_length_c       11.385999192728852
_cell_angle_alpha    73.68416762243675
_cell_angle_beta     72.45403468864298
_cell_angle_gamma    68.78495695293957

_space_group_name_H-M_alt    "P 1"
_space_group_IT_number       1

loop_
  _space_group_symop_operation_xyz
  'x, y, z'

loop_
  _atom_site_type_symbol
  _atom_site_label
  _atom_site_symmetry_multiplicity
  _atom_site_fract_x
  _atom_site_fract_y
  _atom_site_fract_z
  _atom_site_occupancy
  Cd  Cd1       1.0  0.3376704918726078  0.14871627255580924  0.2666744083642385  1.0000
  Cd  Cd2       1.0  0.6623299305558772  0.851284645976477  0.7333250261817528  1.0000
  H   H1        1.0  0.07070939380811583  0.4113786791956001  0.3787457242787227  1.0000
  H   H2        1.0  0.9292939070504502  0.5886210563527358  0.6212515908621156  1.0000
  H   H3        1.0  0.17497025536588504  0.5006779361051272  0.24609475848010479  1.0000
  H   H4        1.0  0.8250282439587622  0.49932175851627375  0.7539026793984716  1.0000
  H   H5        1.0  0.9184576958455466  0.3397318913858883  0.26646623821321197  1.0000
  H   H6        1.0  0.08154482849931105  0.6602665960900608  0.7335306053719747  1.0000
  H   H7        1.0  0.027599492649208933  0.43690549883026353  0.1261929863731552  1.0000
  H   H8        1.0  0.9723940319507988  0.5631015827183318  0.8738084153412159  1.0000
  H   H9        1.0  0.3666211381363737  0.4138085231451213  0.04744393479655431  1.0000
  H   H10       1.0  0.6333825327986061  0.5861899401693194  0.9525544339003957  1.0000
  H   H11       1.0  0.5550948092216644  0.30432838418355596  0.04924997430656218  1.0000
  H   H12       1.0  0.44491013688151076  0.695673906469409  0.9507456168663992  1.0000
  H   H13       1.0  0.6812909115427388  0.5443415229498711  0.14863898237643988  1.0000
  H   H14       1.0  0.3187055053609314  0.45565307660732646  0.8513616504968624  1.0000
  H   H15       1.0  0.17685132086464259  0.9367887782619702  0.4742703952488441  1.0000
  H   H16       1.0  0.8231446757281518  0.06321459999638528  0.5257294690608277  1.0000
  H   H17       1.0  0.0772092470066781  0.12059927911491285  0.49877230620931806  1.0000
  H   H18       1.0  0.9227892328225596  0.8794079416270291  0.501224527635337  1.0000
  H   H19       1.0  0.7001768538488023  0.9737817295819651  0.33995580261308334  1.0000
  H   H20       1.0  0.29981638727014837  0.026222910273460787  0.6600426249961515  1.0000
  H   H21       1.0  0.44884099971366714  0.8145892232955345  0.16158918380425294  1.0000
  H   H22       1.0  0.5511538754062286  0.18541042589069429  0.8384090128974222  1.0000
  H   H23       1.0  0.946327005663172  0.7165318886728895  0.3273486723221096  1.0000
  H   H24       1.0  0.053667777239546424  0.2834677015535049  0.6726521914587522  1.0000
  Pt  Pt1       1.0  0.999996641164287  3.78496211789826e-06  0.9999964230907848  1.0000
  Pt  Pt2       1.0  0.4999954284646009  0.5000015605726629  0.5000048831688844  1.0000
  C   C1        1.0  0.11642872773825991  0.03784367062547028  0.10998116534267409  1.0000
  C   C2        1.0  0.8835838117335801  0.9621611918975499  0.8900141042364353  1.0000
  C   C3        1.0  0.4901433999007523  0.341661944231248  0.41014464348811686  1.0000
  C   C4        1.0  0.5098592429862022  0.6583313408976393  0.5898611123945016  1.0000
  C   C5        1.0  0.26897250229068004  0.640847174114725  0.4785057295118023  1.0000
  C   C6        1.0  0.7310337089447214  0.3591498900296769  0.5215002990703539  1.0000
  C   C7        1.0  0.9746875582840391  0.44287934876507495  0.22611494875601318  1.0000
  C   C8        1.0  0.025312858522617967  0.5571177968802984  0.77388523232014  1.0000
  C   C9        1.0  0.6911296090430598  0.6374251128874773  0.19042122501216593  1.0000
  C   C10       1.0  0.308861365220551  0.3625743139840622  0.8095857317501753  1.0000
  C   C11       1.0  0.701733027227057  0.8769596336017357  0.2961133895563179  1.0000
  C   C12       1.0  0.2982551664454789  0.12304480810050929  0.7038922730018271  1.0000
  C   C13       1.0  0.560758108046926  0.7870676089263993  0.19817690474825864  1.0000
  C   C14       1.0  0.4392355114001845  0.21292068680077134  0.8018246735113194  1.0000
  C   C15       1.0  0.8347297231918418  0.6067606939007035  0.23643928552267107  1.0000
  C   C16       1.0  0.16526135716252813  0.3932274929232306  0.7635663547245529  1.0000
  C   C17       1.0  0.8389181872039939  0.7308022344601851  0.2896840745873704  1.0000
  C   C18       1.0  0.16107736659060373  0.2691948309516902  0.7103180072793053  1.0000
  C   C19       1.0  0.8532815294286635  0.23448612123701193  0.9879294916776189  1.0000
  C   C20       1.0  0.14673595965058445  0.7655151075924421  0.01206195656192931  1.0000
  N   N1        1.0  0.11595761967456046  0.4096135192175794  0.28493787243031216  1.0000
  N   N2        1.0  0.8840368602516978  0.5903911554361866  0.7150594132114916  1.0000
  N   N3        1.0  0.564677712939144  0.9053113300900717  0.2511041924927895  1.0000
  N   N4        1.0  0.43531833388811947  0.094684541701028  0.748895386824408  1.0000
  N   N5        1.0  0.48153195715881464  0.25040107241230897  0.3558109888405099  1.0000
  N   N6        1.0  0.5184672935623098  0.7496036235151137  0.6441870630899587  1.0000
  N   N7        1.0  0.1308707457846127  0.7257463651106445  0.46832182881282597  1.0000
  N   N8        1.0  0.8691528350780117  0.27424592490355326  0.5316797916019453  1.0000
  N   N9        1.0  0.1847497087760033  0.06073633747774207  0.1750472954080351  1.0000
  N   N10       1.0  0.8152549857928547  0.9392620230620635  0.8249561545062531  1.0000
  N   N11       1.0  0.7628822674033984  0.3730978050277755  0.9809188061633876  1.0000
  N   N12       1.0  0.23712180434705496  0.6268994057060407  0.019079727063271403  1.0000
  O   O1        1.0  0.4400334420791765  0.296051524103376  0.0649658061457643  1.0000
  O   O2        1.0  0.5599709746304598  0.7039481676301732  0.9350339231332326  1.0000
  O   O3        1.0  0.1926149374780977  0.043176581884594584  0.4729267270048965  1.0000
  O   O4        1.0  0.8073826121421277  0.9568292925185486  0.5270740804160852  1.0000
