data_image0
_chemical_formula_structural       Zn2H46C50N2O8
_chemical_formula_sum              "Zn2 H46 C50 N2 O8"
_cell_length_a       14.117762379485765
_cell_length_b       15.288903007004215
_cell_length_c       17.121680230087012
_cell_angle_alpha    91.19448093584225
_cell_angle_beta     98.96347459567606
_cell_angle_gamma    91.17699759337519

_space_group_name_H-M_alt    "P 1"
_space_group_IT_number       1

loop_
  _space_group_symop_operation_xyz
  'x, y, z'

loop_
  _atom_site_type_symbol
  _atom_site_label
  _atom_site_symmetry_multiplicity
  _atom_site_fract_x
  _atom_site_fract_y
  _atom_site_fract_z
  _atom_site_occupancy
  Zn  Zn1       1.0  0.39990603263602503  0.503338192477237  0.4983248764199503  1.0000
  Zn  Zn2       1.0  0.6082594882334433  0.5101543674343815  0.512630237768235  1.0000
  H   H1        1.0  0.6243617080990163  0.39915969932511075  0.2767102692870581  1.0000
  H   H2        1.0  0.3649551934472016  0.5015079986914442  0.74634719434858  1.0000
  H   H3        1.0  0.9015746404893862  0.47405222808844627  0.383033061168895  1.0000
  H   H4        1.0  0.0962207327951887  0.643060150855227  0.5515524919835997  1.0000
  H   H5        1.0  0.7286077976211233  0.48088317449821  0.4001354551162067  1.0000
  H   H6        1.0  0.27038289099441937  0.6242961139623798  0.5425538122293292  1.0000
  H   H7        1.0  0.974046263952964  0.5670603284589999  0.6249618364138954  1.0000
  H   H8        1.0  0.043963402810931  0.38425968293859114  0.4462908175674798  1.0000
  H   H9        1.0  0.6526163134857015  0.419128127348358  0.745067371833656  1.0000
  H   H10       1.0  0.33203565794851636  0.47883979966170637  0.24360721225092874  1.0000
  H   H11       1.0  0.6001721615782073  0.39279181116101114  0.012394875736106276  1.0000
  H   H12       1.0  0.3806497422648506  0.38337574351522347  0.987238583984528  1.0000
  H   H13       1.0  0.37371720113873863  0.45368389875089565  0.8847073365638067  1.0000
  H   H14       1.0  0.6061735435198017  0.35375530367625874  0.1350286697743002  1.0000
  H   H15       1.0  0.3823614247423778  0.06872494275359027  0.5646210199374126  1.0000
  H   H16       1.0  0.6556046413897081  0.9468388486315431  0.5208277416629061  1.0000
  H   H17       1.0  0.3904611018846326  0.2319319290446059  0.5689653808011883  1.0000
  H   H18       1.0  0.6501519742684819  0.7839784310451063  0.514878444686545  1.0000
  H   H19       1.0  0.6401832685039183  0.22905315239753324  0.45531383320793856  1.0000
  H   H20       1.0  0.34289544984606835  0.7842684683293936  0.47709077564009317  1.0000
  H   H21       1.0  0.6293815277997937  0.06602871555921297  0.4449769969196993  1.0000
  H   H22       1.0  0.34674380124841514  0.9474694571494663  0.48063959386087163  1.0000
  H   H23       1.0  0.657373223105644  0.6479634054577517  0.739729027574441  1.0000
  H   H24       1.0  0.7729779164504862  0.6864049320398776  0.7850312179078502  1.0000
  H   H25       1.0  0.6915880440272347  0.7595318347099108  0.7323920674150344  1.0000
  H   H26       1.0  0.8154490994375011  0.715392135870246  0.6485222945446267  1.0000
  H   H27       1.0  0.6993897309813591  0.6767649141057531  0.6054537594246342  1.0000
  H   H28       1.0  0.7330300759444484  0.53113667534366  0.6670549622552073  1.0000
  H   H29       1.0  0.8521517329421329  0.5680827319725522  0.7045618497204629  1.0000
  H   H30       1.0  0.3569400625464425  0.2761303588677464  0.3447173690605112  1.0000
  H   H31       1.0  0.2542536157682918  0.2058909489632583  0.3394725496377192  1.0000
  H   H32       1.0  0.2755086195057288  0.26448612427822127  0.2549530870078627  1.0000
  H   H33       1.0  0.14885601236735369  0.3407214731175259  0.3173691760238668  1.0000
  H   H34       1.0  0.2550699741463093  0.40687185778785545  0.32719177007358985  1.0000
  H   H35       1.0  0.30511898356576955  0.3442145861059415  0.46412721047833844  1.0000
  H   H36       1.0  0.19008951975916233  0.293211277578301  0.4550396513274038  1.0000
  H   H37       1.0  0.30231284095606265  0.5874291932814019  0.08637260084638142  1.0000
  H   H38       1.0  0.3412295056108121  0.532827178265336  0.005373116873627688  1.0000
  H   H39       1.0  0.21627563489202126  0.5432583153689946  0.007513148261630006  1.0000
  H   H40       1.0  0.2639262329189124  0.3909554277201437  0.04512706667130571  1.0000
  H   H41       1.0  0.22945173917998574  0.4472255487898805  0.1263311638557241  1.0000
  H   H42       1.0  0.7827501729851039  0.4703502886740551  0.8910968263759217  1.0000
  H   H43       1.0  0.7376864086115732  0.4573652708078341  0.9811841591779286  1.0000
  H   H44       1.0  0.8310209671992936  0.38946020915539487  0.958385241259478  1.0000
  H   H45       1.0  0.6739272179812231  0.3051302611283616  0.9337676758547959  1.0000
  H   H46       1.0  0.7204730368317058  0.3195059095454268  0.8452742741363011  1.0000
  C   C1        1.0  0.5208023440637747  0.33763983718668555  0.5149588929355176  1.0000
  C   C2        1.0  0.4945970914214116  0.6760538348368497  0.4955475589252671  1.0000
  C   C3        1.0  0.4378122436617389  0.10347037839929377  0.5388361091026254  1.0000
  C   C4        1.0  0.5867218774560429  0.9115040877624948  0.5101804770091292  1.0000
  C   C5        1.0  0.4424585083656325  0.1944941365555479  0.542149573457131  1.0000
  C   C6        1.0  0.5841383386263814  0.8205977699948476  0.5075581576630698  1.0000
  C   C7        1.0  0.5158918021860758  0.23985649520854926  0.5124533111638598  1.0000
  C   C8        1.0  0.49629647468059096  0.7741010363737285  0.49617974093564504  1.0000
  C   C9        1.0  0.5838685752178777  0.1927482242724992  0.47856723883078456  1.0000
  C   C10       1.0  0.4110087499610771  0.8207548087845422  0.48687621829702726  1.0000
  C   C11       1.0  0.5780299780394672  0.10188584891994168  0.47392936073151776  1.0000
  C   C12       1.0  0.41359232081249797  0.9118463604775328  0.48938328452163665  1.0000
  C   C13       1.0  0.5053989221346741  0.055477230752288186  0.5044858351644805  1.0000
  C   C14       1.0  0.5015352190709025  0.9589436096971792  0.5012438703915336  1.0000
  C   C15       1.0  0.8820117198759689  0.49502867758729946  0.4394880188072534  1.0000
  C   C16       1.0  0.12063129759587103  0.582720080511315  0.5270812196446641  1.0000
  C   C17       1.0  0.7861750073269748  0.4983265891479716  0.4485646717403569  1.0000
  C   C18       1.0  0.21702561935204304  0.572805095195058  0.5224074867224218  1.0000
  C   C19       1.0  0.8239528266378783  0.5479916333210751  0.5798746734729647  1.0000
  C   C20       1.0  0.19045323828386532  0.43197926820945287  0.46637395347508465  1.0000
  C   C21       1.0  0.921595220979583  0.5481439365363199  0.5733814721349688  1.0000
  C   C22       1.0  0.0919685678392383  0.43946100429678836  0.46731967807367886  1.0000
  C   C23       1.0  0.48955018401544953  0.47482380988572703  0.3530837967056968  1.0000
  C   C24       1.0  0.5063797000202969  0.49900262350001856  0.656283791231033  1.0000
  C   C25       1.0  0.9523877293137203  0.5201926272858299  0.5034346032121562  1.0000
  C   C26       1.0  0.055596832785624904  0.5146473251089887  0.498458057532595  1.0000
  C   C27       1.0  0.47964193335557337  0.44432285195325943  0.26851036426382546  1.0000
  C   C28       1.0  0.5097366295595053  0.4659515817160695  0.7382696450223989  1.0000
  C   C29       1.0  0.5566986687760789  0.4078023794909382  0.23759928276486159  1.0000
  C   C30       1.0  0.4296296140610353  0.47227184681456436  0.7770546894422453  1.0000
  C   C31       1.0  0.5460719581580663  0.38294722647647444  0.15824107023867381  1.0000
  C   C32       1.0  0.434861033840086  0.4440331915235942  0.8539301631609107  1.0000
  C   C33       1.0  0.45972868197981853  0.3958502084976842  0.10637010329320869  1.0000
  C   C34       1.0  0.5190882598331542  0.4077187898323159  0.8949250884694919  1.0000
  C   C35       1.0  0.3799448317185679  0.4282406865434678  0.1384978542884596  1.0000
  C   C36       1.0  0.5982474109971039  0.39649184273932286  0.8540592058019812  1.0000
  C   C37       1.0  0.39192733673889535  0.45165399282131335  0.21871462871396122  1.0000
  C   C38       1.0  0.5920451145985979  0.4265439011582685  0.7769797859550566  1.0000
  C   C39       1.0  0.45306107661710376  0.38607204319916383  0.0207561077116338  1.0000
  C   C40       1.0  0.5273306026718032  0.3913415825586809  0.9794913099023432  1.0000
  C   C41       1.0  0.7919048780232175  0.5751229875704451  0.6560669933229164  1.0000
  C   C42       1.0  0.7563374030496561  0.6697552455533963  0.6564020118366045  1.0000
  C   C43       1.0  0.717592759387614  0.692273398884083  0.7326360887803319  1.0000
  C   C44       1.0  0.22999072886263863  0.349715961842726  0.43633133438984123  1.0000
  C   C45       1.0  0.22453387816176473  0.34545140861526846  0.34573220609936334  1.0000
  C   C46       1.0  0.2806103620996582  0.2685871446279861  0.31962012447723964  1.0000
  C   C47       1.0  0.2849459349030568  0.44544915186389733  0.08780474322445293  1.0000
  C   C48       1.0  0.28597176197245494  0.5321281838900731  0.044053116603201714  1.0000
  C   C49       1.0  0.6897814726731822  0.3548010787532618  0.8917530452710167  1.0000
  C   C50       1.0  0.7646981256052073  0.4216807808264916  0.9331236744643621  1.0000
  N   N1        1.0  0.7572004138774772  0.523091574939336  0.5170393165121538  1.0000
  N   N2        1.0  0.25146505311921175  0.49943739909297585  0.4930815560884271  1.0000
  O   O1        1.0  0.44424649117480186  0.3765614214028332  0.52487233693072  1.0000
  O   O2        1.0  0.5758333886196069  0.6394605791550773  0.5073643000834593  1.0000
  O   O3        1.0  0.5999506456611314  0.37462835849918713  0.506421722037615  1.0000
  O   O4        1.0  0.4131528116541361  0.6365516996379055  0.48401062894754426  1.0000
  O   O5        1.0  0.4122334965710834  0.4770997524572989  0.3830692378134373  1.0000
  O   O6        1.0  0.5848928296879663  0.49854030529284177  0.6279123339235755  1.0000
  O   O7        1.0  0.5730566753742182  0.49625659881812817  0.3885820307082001  1.0000
  O   O8        1.0  0.4261230488439979  0.5239661888743823  0.6200666709969127  1.0000
