data_image0
_chemical_formula_structural       Mn2H32C32S2N8O8
_chemical_formula_sum              "Mn2 H32 C32 S2 N8 O8"
_cell_length_a       8.528558642727086
_cell_length_b       8.791972809896045
_cell_length_c       12.90839153992243
_cell_angle_alpha    103.74604046594008
_cell_angle_beta     90.38400162704262
_cell_angle_gamma    117.70435714622744

_space_group_name_H-M_alt    "P 1"
_space_group_IT_number       1

loop_
  _space_group_symop_operation_xyz
  'x, y, z'

loop_
  _atom_site_type_symbol
  _atom_site_label
  _atom_site_symmetry_multiplicity
  _atom_site_fract_x
  _atom_site_fract_y
  _atom_site_fract_z
  _atom_site_occupancy
  Mn  Mn1       1.0  2.038410258023693e-07  2.8992093277012295e-06  0.999999887487775  1.0000
  Mn  Mn2       1.0  6.079144299007874e-07  9.843078170032306e-08  0.4999989510914277  1.0000
  H   H1        1.0  0.44373303346110765  0.018906091715002998  0.08286976921973382  1.0000
  H   H2        1.0  0.43380089288718426  0.982258619998909  0.42743812437547773  1.0000
  H   H3        1.0  0.5562597913187871  0.9810851723252014  0.917127455466485  1.0000
  H   H4        1.0  0.5661984887377329  0.0177459965728275  0.5725628291576188  1.0000
  H   H5        1.0  0.604151934390309  0.6336726903312025  0.9865415093042958  1.0000
  H   H6        1.0  0.9755235155994556  0.3634196237181159  0.5101601566747223  1.0000
  H   H7        1.0  0.3958466389877913  0.3663279034960141  0.013457240811106913  1.0000
  H   H8        1.0  0.024478197040245685  0.6365849638503889  0.4898407973117928  1.0000
  H   H9        1.0  0.43394061629005176  0.3685507544334926  0.7924888759492038  1.0000
  H   H10       1.0  0.05760962630891001  0.6193429206360436  0.7072526922242945  1.0000
  H   H11       1.0  0.5660579523018326  0.631449837619833  0.20750909917310176  1.0000
  H   H12       1.0  0.9423919567423055  0.380658987955762  0.2927501511961098  1.0000
  H   H13       1.0  0.9031102602992219  0.7941947606170959  0.7366642113390898  1.0000
  H   H14       1.0  0.10563049504331448  0.1832561398774857  0.7568202028191566  1.0000
  H   H15       1.0  0.09689466575461131  0.20580441662370674  0.2633366472298207  1.0000
  H   H16       1.0  0.894374421438087  0.8167430338155414  0.24317910576354523  1.0000
  H   H17       1.0  0.5347721081094932  0.32594411090611436  0.6037597392452272  1.0000
  H   H18       1.0  0.20943909457152196  0.6532542308289991  0.8942081812836808  1.0000
  H   H19       1.0  0.46522997136320743  0.67405644296403  0.3962405615365159  1.0000
  H   H20       1.0  0.790564536386448  0.3467422819367131  0.10579456649239927  1.0000
  H   H21       1.0  0.7429879453210405  0.496575777137231  0.5849869291985288  1.0000
  H   H22       1.0  0.22972019531004415  0.4678818988117755  0.9112652618957643  1.0000
  H   H23       1.0  0.2570142780987865  0.5034274610312792  0.4150138071286308  1.0000
  H   H24       1.0  0.7702774545914011  0.532111998615882  0.08873549921512595  1.0000
  H   H25       1.0  0.5991691798818408  0.6880531609720608  0.5778366636760952  1.0000
  H   H26       1.0  0.9039066401466015  0.30783764028289073  0.9268666914105599  1.0000
  H   H27       1.0  0.40082874355521614  0.3119460997306689  0.4221626435463436  1.0000
  H   H28       1.0  0.09609479895748764  0.692161584010542  0.0731357164644138  1.0000
  H   H29       1.0  0.39164911877681147  0.5138861666199332  0.5932698164580901  1.0000
  H   H30       1.0  0.8797116287334816  0.4876257414027664  0.9054063112574514  1.0000
  H   H31       1.0  0.6083498214342882  0.4861103935089233  0.40672828045253356  1.0000
  H   H32       1.0  0.12029097109179078  0.5123734666151591  0.09459532185113775  1.0000
  C   C1        1.0  0.48129200744204326  0.0165887606110928  0.16289051287636624  1.0000
  C   C2        1.0  0.4721938652113664  0.9860711182569943  0.347774347834033  1.0000
  C   C3        1.0  0.5187038030798946  0.9834038093242443  0.8371069301493467  1.0000
  C   C4        1.0  0.5278065284013849  0.013930795966977907  0.6522246203941509  1.0000
  C   C5        1.0  0.6313154813745284  0.013025425220085703  0.20048456855187885  1.0000
  C   C6        1.0  0.6278608739747609  0.997655830535045  0.3096198914934264  1.0000
  C   C7        1.0  0.3686804826669671  0.9869698325614067  0.7995148600054522  1.0000
  C   C8        1.0  0.3721353731747712  0.0023447940692947  0.6903796331616548  1.0000
  C   C9        1.0  0.7613025822218447  0.0052149324983759  0.12614287529265067  1.0000
  C   C10       1.0  0.7700112078360846  0.0051183792430436  0.3796917283197133  1.0000
  C   C11       1.0  0.23869338181965108  0.9947803252831164  0.8738565532646877  1.0000
  C   C12       1.0  0.22998869414139742  0.9948848914764813  0.6203105575402292  1.0000
  C   C13       1.0  0.6407704829911651  0.6268535593176808  0.9059990814095689  1.0000
  C   C14       1.0  0.014251615942292538  0.36419505258731283  0.5903818966928613  1.0000
  C   C15       1.0  0.35922809517314397  0.37314703628342744  0.09400044369893837  1.0000
  C   C16       1.0  0.9857489503348802  0.6358095565783657  0.4096221570393511  1.0000
  C   C17       1.0  0.5550705360935666  0.4962000192914859  0.8111086095784831  1.0000
  C   C18       1.0  0.052851938011904985  0.4903506349092552  0.6870387750209945  1.0000
  C   C19       1.0  0.4449305218188684  0.5038032333786475  0.18889212652197082  1.0000
  C   C20       1.0  0.9471483260123605  0.5096486003380178  0.3129620826410716  1.0000
  C   C21       1.0  0.801444070991799  0.7158538906503153  0.780678146992351  1.0000
  C   C22       1.0  0.0814499398930906  0.264755658964738  0.714163352709271  1.0000
  C   C23       1.0  0.19855683818729372  0.2841466759475538  0.2193213785695748  1.0000
  C   C24       1.0  0.9185509740722182  0.7352449094070153  0.2858369478457592  1.0000
  C   C25       1.0  0.6165417404493496  0.47050922037735193  0.6168078551762053  1.0000
  C   C26       1.0  0.1381794442854911  0.5078189998182552  0.8807555953359983  1.0000
  C   C27       1.0  0.3834598186707865  0.5294926793450047  0.3831911132786915  1.0000
  C   C28       1.0  0.8618226399734327  0.4921815558257734  0.11924548043884195  1.0000
  C   C29       1.0  0.5183554360765825  0.5422458570041686  0.5605864064715365  1.0000
  C   C30       1.0  0.9737534711151596  0.4533828937502165  0.93967085235218  1.0000
  C   C31       1.0  0.48164364329542764  0.4577533856491627  0.43941135099141365  1.0000
  C   C32       1.0  0.02624730368923892  0.5466149920970624  0.060329787650530986  1.0000
  S   S1        1.0  0.3366050232986452  0.9970786592147789  0.25552729641916744  1.0000
  S   S2        1.0  0.6633934061323288  0.002919250314064903  0.7444710181508116  1.0000
  N   N1        1.0  0.7950067597418595  0.7628579551445115  0.8861770547591096  1.0000
  N   N2        1.0  0.03367227416811148  0.22387121097649043  0.6079834869613807  1.0000
  N   N3        1.0  0.20499415900966514  0.23714261500114023  0.11382402078901784  1.0000
  N   N4        1.0  0.9663287789581078  0.7761320399197515  0.39201647414596874  1.0000
  N   N5        1.0  0.6590708954996244  0.5548230607251838  0.7327965013839094  1.0000
  N   N6        1.0  0.09460237917747344  0.42516043819131966  0.7643373389851434  1.0000
  N   N7        1.0  0.34092768745090757  0.44517753664980836  0.2672037987177022  1.0000
  N   N8        1.0  0.9053991943013173  0.5748414668527032  0.23566395444905208  1.0000
  O   O1        1.0  0.8403358684838694  0.9144158544196375  0.1347837430573834  1.0000
  O   O2        1.0  0.9374901021184457  0.0920237040687297  0.3716022436451497  1.0000
  O   O3        1.0  0.1596657002086985  0.08558604885050161  0.865216775383708  1.0000
  O   O4        1.0  0.06250847125964756  0.9079768897584872  0.6283965064702531  1.0000
  O   O5        1.0  0.7884524732068598  0.08526573681309199  0.052073194358506214  1.0000
  O   O6        1.0  0.7314643902238557  0.9254589268317872  0.45514749925085624  1.0000
  O   O7        1.0  0.21154778124498108  0.9147334948863985  0.9479261133173584  1.0000
  O   O8        1.0  0.2685336867327592  0.07454302171709061  0.5448537935032081  1.0000
