data_image0
_chemical_formula_structural       Zn2H24C20N4O8
_chemical_formula_sum              "Zn2 H24 C20 N4 O8"
_cell_length_a       5.181690045066325
_cell_length_b       10.288079705225705
_cell_length_c       12.478178081193342
_cell_angle_alpha    87.51054313642767
_cell_angle_beta     82.04795177328965
_cell_angle_gamma    91.42795836777064

_space_group_name_H-M_alt    "P 1"
_space_group_IT_number       1

loop_
  _space_group_symop_operation_xyz
  'x, y, z'

loop_
  _atom_site_type_symbol
  _atom_site_label
  _atom_site_symmetry_multiplicity
  _atom_site_fract_x
  _atom_site_fract_y
  _atom_site_fract_z
  _atom_site_occupancy
  Zn  Zn1       1.0  0.2537780038925703  0.5398340632806014  0.7339784136675646  1.0000
  Zn  Zn2       1.0  0.7462053458524877  0.4601659636737309  0.2660292750694779  1.0000
  H   H1        1.0  0.6998296142948774  0.4603474741684437  0.6565342842683533  1.0000
  H   H2        1.0  0.30014968381900786  0.5396580557805635  0.3434604202187401  1.0000
  H   H3        1.0  0.7201962471662142  0.6171743879760568  0.6548598541886932  1.0000
  H   H4        1.0  0.27980026398805086  0.3828265048593238  0.3451360895263135  1.0000
  H   H5        1.0  0.11761961505588656  0.5279923103569716  0.9374282155579436  1.0000
  H   H6        1.0  0.8824706254169783  0.472015764675021  0.0625777091577575  1.0000
  H   H7        1.0  0.30584046366909934  0.659165386054454  0.8945680615358426  1.0000
  H   H8        1.0  0.6942281203940935  0.3408489877465612  0.10542625947616098  1.0000
  H   H9        1.0  0.7291043179469484  0.2542381029986914  0.6142613118273416  1.0000
  H   H10       1.0  0.2708550649545812  0.7457627395007764  0.3857519935630407  1.0000
  H   H11       1.0  0.555420767435031  0.0480094762005621  0.5543954440580804  1.0000
  H   H12       1.0  0.4445464084208766  0.9519865706478612  0.4456170317759315  1.0000
  H   H13       1.0  0.7431855098401243  0.8367754209548012  0.6053574771986447  1.0000
  H   H14       1.0  0.2568000346463037  0.16322653979098334  0.394648429361787  1.0000
  H   H15       1.0  0.2642184839118613  0.041571102910680204  0.7842338927297516  1.0000
  H   H16       1.0  0.7357554002061307  0.9584317014229171  0.21577238025670198  1.0000
  H   H17       1.0  0.7913878128236717  0.5380864789474771  0.4731659391829126  1.0000
  H   H18       1.0  0.20858337834818744  0.4619082785426584  0.5268304079966555  1.0000
  H   H19       1.0  0.5366728420803213  0.6489968954195576  0.4949638022108401  1.0000
  H   H20       1.0  0.4633134725507233  0.35100689306752747  0.505036364230584  1.0000
  H   H21       1.0  0.6900964714273243  0.5421714012313289  0.8972825654786405  1.0000
  H   H22       1.0  0.30996158044786876  0.45782703849582873  0.10270170896249906  1.0000
  H   H23       1.0  0.508060681868301  0.3925058635012135  0.9161726636232216  1.0000
  H   H24       1.0  0.4920104220162145  0.6074850107441492  0.0838147525846296  1.0000
  C   C1        1.0  0.12164425100133505  0.2860739995553844  0.7361644403995767  1.0000
  C   C2        1.0  0.8783424111332395  0.713923235998344  0.2638472892017134  1.0000
  C   C3        1.0  0.0088631924660305  0.16182306551942824  0.7025492384479647  1.0000
  C   C4        1.0  0.9911247555892473  0.8381807952256892  0.29745327494241985  1.0000
  C   C5        1.0  0.8091087580000718  0.1622053906226952  0.637544813225986  1.0000
  C   C6        1.0  0.1908761396332608  0.8377800796945037  0.3624643737816981  1.0000
  C   C7        1.0  0.7129467310356505  0.04587270224726581  0.6035186027714161  1.0000
  C   C8        1.0  0.28701000651369674  0.9541194461008475  0.3964992570327651  1.0000
  C   C9        1.0  0.8157031056673957  0.9278797002268178  0.6329603202885251  1.0000
  C   C10       1.0  0.18428149629605164  0.07210450517666091  0.3670360991339123  1.0000
  C   C11       1.0  0.014213283280945184  0.9257476554575989  0.6986829962501631  1.0000
  C   C12       1.0  0.9857682964167296  0.07426110698871471  0.301324304638996  1.0000
  C   C13       1.0  0.1093184500321982  0.043026202676223604  0.7334682213204218  1.0000
  C   C14       1.0  0.8906872653415617  0.9569641456210009  0.2665303502099475  1.0000
  C   C15       1.0  0.13122850472728234  0.801546997191693  0.7323445059512395  1.0000
  C   C16       1.0  0.868726762684254  0.1984479810229303  0.2676700489442325  1.0000
  C   C17       1.0  0.5949622916684802  0.5503881742401404  0.5171171449996165  1.0000
  C   C18       1.0  0.4050112182827164  0.44960947315225763  0.48287656368561466  1.0000
  C   C19       1.0  0.5084290990029033  0.4945241575545367  0.9387900269313008  1.0000
  C   C20       1.0  0.4916447350233141  0.5054744209392368  0.0611920801870482  1.0000
  N   N1        1.0  0.60130161125619  0.5418439702283421  0.6356151074677853  1.0000
  N   N2        1.0  0.39868578676068717  0.45816159531185013  0.36437690236447645  1.0000
  N   N3        1.0  0.2922085786080331  0.558673897125047  0.8944662201897414  1.0000
  N   N4        1.0  0.7078528123199489  0.4413334610760629  0.10552309625700217  1.0000
  O   O1        1.0  0.01118308467412281  0.3939153781672361  0.7085424349419325  1.0000
  O   O2        1.0  0.988817848918764  0.6060962101952043  0.2914503941695158  1.0000
  O   O3        1.0  0.317611397907072  0.2871186978356094  0.7844041083380302  1.0000
  O   O4        1.0  0.6823721214169963  0.7128793493128642  0.2156020710475984  1.0000
  O   O5        1.0  0.305163187397774  0.8045428895420556  0.7927086078767612  1.0000
  O   O6        1.0  0.6948177111844842  0.19545588472084321  0.20728799380963636  1.0000
  O   O7        1.0  0.04615336080787811  0.6936422841933237  0.6947017578968797  1.0000
  O   O8        1.0  0.9538395961735304  0.3063546058906397  0.3052913061976454  1.0000
