data_image0
_chemical_formula_structural       C48F8H28N16O2Zn4
_chemical_formula_sum              "C48 F8 H28 N16 O2 Zn4"
_cell_length_a       14.80304696269819
_cell_length_b       14.848952679069921
_cell_length_c       14.837832798651457
_cell_angle_alpha    113.80159639456797
_cell_angle_beta     114.19826571867847
_cell_angle_gamma    100.22638995511271

_space_group_name_H-M_alt    "P 1"
_space_group_IT_number       1

loop_
  _space_group_symop_operation_xyz
  'x, y, z'

loop_
  _atom_site_type_symbol
  _atom_site_label
  _atom_site_symmetry_multiplicity
  _atom_site_fract_x
  _atom_site_fract_y
  _atom_site_fract_z
  _atom_site_occupancy
  C   C1        1.0  0.8025988809829341  0.9735787482356599  0.09250079863136289  1.0000
  C   C2        1.0  0.7953861647415154  0.19955959752285668  0.8910948632263426  1.0000
  C   C3        1.0  0.8865242595776052  0.6990548403343978  0.994663825823366  1.0000
  C   C4        1.0  0.2981535667895937  0.8388918360763639  0.9865868776022066  1.0000
  C   C5        1.0  0.6665353026643289  0.6794395701067516  0.5336444085261435  1.0000
  C   C6        1.0  0.28197675029158387  0.28959912028536655  0.18472869930788247  1.0000
  C   C7        1.0  0.16836132554869476  0.16897137269921103  0.4617186499935997  1.0000
  C   C8        1.0  0.08619624063842234  0.08334586684275552  0.7836696101920354  1.0000
  C   C9        1.0  0.12059090498488693  0.1982607306033514  0.7055660600233152  1.0000
  C   C10       1.0  0.1268267429668839  0.2083414255960179  0.614888777528165  1.0000
  C   C11       1.0  0.12306816575141256  0.11296450143279907  0.7181994339571246  1.0000
  C   C12       1.0  0.1945242181402237  0.18989187570935695  0.5765404606060686  1.0000
  C   C13       1.0  0.8899755029806684  0.5958776392525992  0.09499172131881281  1.0000
  C   C14       1.0  0.40139191555611825  0.7785453712176532  0.8913075969970022  1.0000
  C   C15       1.0  0.8788706118672777  0.500871892006927  0.09378529752556376  1.0000
  C   C16       1.0  0.49716753969266864  0.7911673378318796  0.8932780942470018  1.0000
  C   C17       1.0  0.8240473928683941  0.4001275685051412  0.9883206096597306  1.0000
  C   C18       1.0  0.5989007026855333  0.8607221160411669  0.99814411202847  1.0000
  C   C19       1.0  0.7734224790296338  0.4041271522347716  0.8874897259425651  1.0000
  C   C20       1.0  0.5943376937591082  0.9058203147458883  0.09879428347226604  1.0000
  C   C21       1.0  0.7862144534076166  0.4991851040999435  0.8886401024665247  1.0000
  C   C22       1.0  0.4985964210361189  0.8946524330423314  0.09659958585929486  1.0000
  C   C23       1.0  0.8678860781402947  0.7052715728537892  0.8966535738609451  1.0000
  C   C24       1.0  0.2898186635978988  0.8981851967021655  0.08225199458000526  1.0000
  C   C25       1.0  0.8507572718798783  0.6005254315874637  0.9939234395630051  1.0000
  C   C26       1.0  0.3969798139542531  0.8334718807153932  0.9906646344403496  1.0000
  C   C27       1.0  0.48306036000675323  0.3907372345611649  0.285224931684894  1.0000
  C   C28       1.0  0.5765882338515951  0.48548263470658537  0.371420261782596  1.0000
  C   C29       1.0  0.5705975023745324  0.5835071806194279  0.43082771267155096  1.0000
  C   C30       1.0  0.3793466445489173  0.38977013983903663  0.2549446372684869  1.0000
  C   C31       1.0  0.46669838250446827  0.5841958080786895  0.3930141962483162  1.0000
  C   C32       1.0  0.37350280612507447  0.4897451261848502  0.30721583314218026  1.0000
  C   C33       1.0  0.6748526935816059  0.7840982290620248  0.5989126500137445  1.0000
  C   C34       1.0  0.17348559280207348  0.2758504946856775  0.14672957839193393  1.0000
  C   C35       1.0  0.19387273826886545  0.09768467986829425  0.3888802582422315  1.0000
  C   C36       1.0  0.10438231339668395  0.007550971360267104  0.8152249143720027  1.0000
  C   C37       1.0  0.7716801120906068  0.6899328897136243  0.6019553021102622  1.0000
  C   C38       1.0  0.27461381663355416  0.18590472070678746  0.16039952183761125  1.0000
  C   C39       1.0  0.10088676278908078  0.1959280679896978  0.3878085950804007  1.0000
  C   C40       1.0  0.006662678152132178  0.10166299953741026  0.8078615075902532  1.0000
  C   C41       1.0  0.9640599642925664  0.8036925220773908  0.08966111335902131  1.0000
  C   C42       1.0  0.19410921314536014  0.8021296857900496  0.8898538220292878  1.0000
  C   C43       1.0  0.7029687493925466  0.8757977644255351  0.8995208415897977  1.0000
  C   C44       1.0  0.8958508042884147  0.2970138783551874  0.0834267999197351  1.0000
  C   C45       1.0  0.6974085205274604  0.8957024434156224  0.9980579471902259  1.0000
  C   C46       1.0  0.8324478902349811  0.30326224241314065  0.986680844576398  1.0000
  C   C47       1.0  0.05767958442612561  0.94288590954411  0.5524065339972282  1.0000
  C   C48       1.0  0.3846246971731517  0.24726420127611698  0.6645755816629658  1.0000
  F   F1        1.0  0.9488526336140382  0.6903582890671559  0.20201025098429415  1.0000
  F   F2        1.0  0.3059984324042516  0.7130148669160263  0.7846493204246912  1.0000
  F   F3        1.0  0.712732264520973  0.3094041800448793  0.7805301853645119  1.0000
  F   F4        1.0  0.6893061589429548  0.9710363072249776  0.20573019195798262  1.0000
  F   F5        1.0  0.8123229559088543  0.6142421447635088  0.5843861003522334  1.0000
  F   F6        1.0  0.3552805691964096  0.1517529951376915  0.18142778005783805  1.0000
  F   F7        1.0  0.05078127465192498  0.2619201029637425  0.4103167835959454  1.0000
  F   F8        1.0  0.9568570056627979  0.16620086032905623  0.7917377360160245  1.0000
  H   H1        1.0  0.8359792055733448  0.012710835560419341  0.18534408044776268  1.0000
  H   H2        1.0  0.7451112884770054  0.1679270693032179  0.7987235662985764  1.0000
  H   H3        1.0  0.9180705201813522  0.5062317768283863  0.17703020340842798  1.0000
  H   H4        1.0  0.4918433323527013  0.7498306373155189  0.8105653065648822  1.0000
  H   H5        1.0  0.7498301553752995  0.4937542380612571  0.8052628604449978  1.0000
  H   H6        1.0  0.504060503616273  0.9393881730592283  0.17893154770405315  1.0000
  H   H7        1.0  0.49105536229637176  0.3157987540766669  0.2436499444799054  1.0000
  H   H8        1.0  0.6556341411087485  0.48256803110978547  0.3952957587894516  1.0000
  H   H9        1.0  0.4585623161054925  0.6590786549375167  0.43513925983032903  1.0000
  H   H10       1.0  0.2945825700799816  0.492773389201922  0.2845000365683604  1.0000
  H   H11       1.0  0.8147740371388893  0.6439277623460883  0.8044149002504568  1.0000
  H   H12       1.0  0.350630361559709  0.9427737067327299  0.17491158644725854  1.0000
  H   H13       1.0  0.6132857689050367  0.8158309158867567  0.5804244885617392  1.0000
  H   H14       1.0  0.13803282586864898  0.3339298382898832  0.14684620067010454  1.0000
  H   H15       1.0  0.24333691779646222  0.05440404732134854  0.4087347336387168  1.0000
  H   H16       1.0  0.1599133609439749  0.9693802796033639  0.8112192218979432  1.0000
  H   H17       1.0  0.001979911802976666  0.8364961545288807  0.18237814288902843  1.0000
  H   H18       1.0  0.16308294544926125  0.7531384051752923  0.797677406211015  1.0000
  H   H19       1.0  0.6410506622234563  0.8217366181068825  0.8074158359419099  1.0000
  H   H20       1.0  0.9412060926706258  0.3579944853723447  0.17585368138787755  1.0000
  H   H21       1.0  0.09546666427070255  0.25336010058818204  0.7549812193169388  1.0000
  H   H22       1.0  0.06166339746632588  0.22455513015795955  0.563485048900759  1.0000
  H   H23       1.0  0.007577593975831542  0.964514901020145  0.4926418338243294  1.0000
  H   H24       1.0  0.007367744808298727  0.9014634184837504  0.573607467965722  1.0000
  H   H25       1.0  0.08887621731245313  0.8892166977283367  0.5105454525029883  1.0000
  H   H26       1.0  0.4047365440724278  0.3312027243090442  0.7273232471245876  1.0000
  H   H27       1.0  0.38059174100502696  0.24250673734860573  0.5868864810714313  1.0000
  H   H28       1.0  0.44757060415113886  0.22239369158125316  0.7043083256055667  1.0000
  N   N1        1.0  0.863255448552124  0.9984953677636385  0.051953877145301405  1.0000
  N   N2        1.0  0.8341985670360899  0.13800882394939154  0.9283712070061013  1.0000
  N   N3        1.0  0.9309060241865409  0.8043269349691541  0.931497782019214  1.0000
  N   N4        1.0  0.19026787241882184  0.8973622125337358  0.04567033865466618  1.0000
  N   N5        1.0  0.774967817241226  0.848206019976068  0.6952285317683432  1.0000
  N   N6        1.0  0.1107403834600333  0.17421853576983182  0.10661093698695367  1.0000
  N   N7        1.0  0.1450539491187754  0.08452042815355298  0.2827531578324667  1.0000
  N   N8        1.0  0.04005172764256336  0.9841260653994299  0.852865232278198  1.0000
  N   N9        1.0  0.8363398943559018  0.7883504373386856  0.6971602106671496  1.0000
  N   N10       1.0  0.17415513009765246  0.11772803534588408  0.11517751757514817  1.0000
  N   N11       1.0  0.08629936750779882  0.1469229973117336  0.28213218946053326  1.0000
  N   N12       1.0  0.9785084727805399  0.04278724004993226  0.8479802034210165  1.0000
  N   N13       1.0  0.9900737598862152  0.8648113125707724  0.04993602845500072  1.0000
  N   N14       1.0  0.13048174523349595  0.8376540573801493  0.9257539450030593  1.0000
  N   N15       1.0  0.8022238265948547  0.9385885863148077  0.9335105513123806  1.0000
  N   N16       1.0  0.8967102840039586  0.1986540492732941  0.04818240764111439  1.0000
  O   O1        1.0  0.15081324527804438  0.03760734418000308  0.6554709709753155  1.0000
  O   O2        1.0  0.2847006994387443  0.17510270616751475  0.6359590549299341  1.0000
  Zn  Zn1       1.0  0.9883033648136532  0.13677749389560737  0.1298979994014431  1.0000
  Zn  Zn2       1.0  0.8407324591187971  0.9942962466917179  0.8451480467785825  1.0000
  Zn  Zn3       1.0  0.9854169796416342  0.846493686540242  0.84531108250421  1.0000
  Zn  Zn4       1.0  0.13108719469488503  0.9892656123423365  0.12950711413325416  1.0000
