data_image0
_chemical_formula_structural       Cu2H16C12N20O4
_chemical_formula_sum              "Cu2 H16 C12 N20 O4"
_cell_length_a       7.092701315770463
_cell_length_b       8.170861298669303
_cell_length_c       9.043137932032352
_cell_angle_alpha    90.00006379729562
_cell_angle_beta     90.00028333415213
_cell_angle_gamma    101.81351716305814

_space_group_name_H-M_alt    "P 1"
_space_group_IT_number       1

loop_
  _space_group_symop_operation_xyz
  'x, y, z'

loop_
  _atom_site_type_symbol
  _atom_site_label
  _atom_site_symmetry_multiplicity
  _atom_site_fract_x
  _atom_site_fract_y
  _atom_site_fract_z
  _atom_site_occupancy
  Cu  Cu1       1.0  0.9999979821434979  0.49999898777676327  4.378577999998163e-10  1.0000
  Cu  Cu2       1.0  0.49999814586881547  0.9999980081409842  0.5000004977208192  1.0000
  H   H1        1.0  0.5153128654004816  0.6456586946315283  0.218391239383898  1.0000
  H   H2        1.0  0.9846919084312306  0.8543450463610468  0.7183912729257642  1.0000
  H   H3        1.0  0.4846896189780097  0.35434384994519513  0.781610350999422  1.0000
  H   H4        1.0  0.01530916821802461  0.145657507249382  0.2816114232656517  1.0000
  H   H5        1.0  0.5372904278109019  0.8838281536457302  0.10292816465943837  1.0000
  H   H6        1.0  0.9627148486050957  0.6161690376927709  0.602922339786943  1.0000
  H   H7        1.0  0.4627097336421712  0.11617064903148841  0.8970767431499593  1.0000
  H   H8        1.0  0.0372914362678287  0.38382596887198867  0.3970704041132009  1.0000
  H   H9        1.0  0.5938372410989032  0.8729998651348012  0.9106478970617927  1.0000
  H   H10       1.0  0.9061622978952643  0.6270006273148853  0.4106482681457138  1.0000
  H   H11       1.0  0.4061580870080164  0.1269964640115617  0.08935369330434638  1.0000
  H   H12       1.0  0.09383786353518532  0.37299817535429014  0.5893500047986109  1.0000
  H   H13       1.0  0.7759310062192242  0.9648402307656383  0.0378528105464113  1.0000
  H   H14       1.0  0.724076759419603  0.5351630452789068  0.5378470748584263  1.0000
  H   H15       1.0  0.2240703755092497  0.03516357316078  0.9621532030787704  1.0000
  H   H16       1.0  0.27592884547019036  0.46484073153700933  0.46214788066655643  1.0000
  C   C1        1.0  0.6471873202490527  0.8656875838132475  0.023609664301765993  1.0000
  C   C2        1.0  0.8528203482569907  0.6343156576934064  0.523607851162609  1.0000
  C   C3        1.0  0.3528162668020798  0.1343137014218314  0.9763941377047587  1.0000
  C   C4        1.0  0.14718495156866854  0.36568686881189183  0.476388210171983  1.0000
  C   C5        1.0  0.7044418798609655  0.7016210946554862  0.0437686242165469  1.0000
  C   C6        1.0  0.7955617029449158  0.7983822228392795  0.5437678604673336  1.0000
  C   C7        1.0  0.29556170718262814  0.2983801905769141  0.9562329661682866  1.0000
  C   C8        1.0  0.20444500462883036  0.2016202946390138  0.4562326241133902  1.0000
  C   C9        1.0  0.661228659079285  0.45194934127572134  0.1946905820772429  1.0000
  C   C10       1.0  0.8387709537311709  0.048049671918555185  0.6946908374550631  1.0000
  C   C11       1.0  0.338772299952133  0.548046951738506  0.8053087966782114  1.0000
  C   C12       1.0  0.1612309205077338  0.9519503720329039  0.3053096471149388  1.0000
  N   N1        1.0  0.6181562776647878  0.6033132053469996  0.1550538911943917  1.0000
  N   N2        1.0  0.8818418230982276  0.8966879175428418  0.6550524597270311  1.0000
  N   N3        1.0  0.38184106831095477  0.39668561539092906  0.8449476991769699  1.0000
  N   N4        1.0  0.1181575407387996  0.1033133947839673  0.344946919027862  1.0000
  N   N5        1.0  0.6514976838478502  0.220395929682816  0.3041491312541424  1.0000
  N   N6        1.0  0.8485001651259123  0.2796046173459742  0.8041474496814374  1.0000
  N   N7        1.0  0.34850247758637215  0.7796028729877021  0.6958502475010278  1.0000
  N   N8        1.0  0.15149919870733436  0.7203966949794915  0.1958508232626102  1.0000
  N   N9        1.0  0.5581613969800685  0.34812642192040494  0.2930710008384949  1.0000
  N   N10       1.0  0.9418366814996376  0.15187534855247964  0.7930684481925425  1.0000
  N   N11       1.0  0.4418359489919014  0.651872398816181  0.7069294837220212  1.0000
  N   N12       1.0  0.05816298740529648  0.8481272140862899  0.2069309305635869  1.0000
  N   N13       1.0  0.8129458835474425  0.3917873142500952  0.14554419098977428  1.0000
  N   N14       1.0  0.6870499684537139  0.10820909719392091  0.6455439141241825  1.0000
  N   N15       1.0  0.18704974961984533  0.6082102652055494  0.8544551877559172  1.0000
  N   N16       1.0  0.3129484801833585  0.8917884641983349  0.35445657043784706  1.0000
  N   N17       1.0  0.803139896517557  0.2444907755835573  0.2166300409255655  1.0000
  N   N18       1.0  0.6968570504612188  0.2555083088815238  0.7166288471289305  1.0000
  N   N19       1.0  0.1968588571836563  0.7555080361193233  0.7833693378268548  1.0000
  N   N20       1.0  0.30314200830412835  0.7444917531319813  0.2833694258138806  1.0000
  O   O1        1.0  0.826026159065492  0.6601183083791754  0.9575080829866776  1.0000
  O   O2        1.0  0.6739740046142373  0.8398835480301939  0.457509974598274  1.0000
  O   O3        1.0  0.17397149198570364  0.33988176267339304  0.0424957190076114  1.0000
  O   O4        1.0  0.3260264618916651  0.16011650495362767  0.5424905099689781  1.0000
