data_image0
_chemical_formula_structural       Tb2Ag6H36C64N16O16
_chemical_formula_sum              "Tb2 Ag6 H36 C64 N16 O16"
_cell_length_a       5.509459526077116
_cell_length_b       15.975745690447122
_cell_length_c       21.703303215138547
_cell_angle_alpha    108.11870954847414
_cell_angle_beta     90.00061037623902
_cell_angle_gamma    89.99978534004666

_space_group_name_H-M_alt    "P 1"
_space_group_IT_number       1

loop_
  _space_group_symop_operation_xyz
  'x, y, z'

loop_
  _atom_site_type_symbol
  _atom_site_label
  _atom_site_symmetry_multiplicity
  _atom_site_fract_x
  _atom_site_fract_y
  _atom_site_fract_z
  _atom_site_occupancy
  Tb  Tb1       1.0  0.500009688918432  0.5000013155640488  0.5000020918939754  1.0000
  Tb  Tb2       1.0  1.1759520645999935e-06  3.8935041900069764e-08  0.9999988109356861  1.0000
  Ag  Ag1       1.0  0.5914040172432066  0.9198030489004408  0.637601704295065  1.0000
  Ag  Ag2       1.0  0.09139425226722861  0.5801996605100258  0.8623972001712659  1.0000
  Ag  Ag3       1.0  0.4085953949231254  0.080199583272254  0.36240201894644025  1.0000
  Ag  Ag4       1.0  0.9085978995066101  0.41979706090086216  0.13759779128171354  1.0000
  Ag  Ag5       1.0  0.4999997234420235  1.6290247444003609e-06  0.4999988340491582  1.0000
  Ag  Ag6       1.0  0.9999973460207627  0.4999996157558114  0.9999999759559941  1.0000
  H   H1        1.0  0.32377905929129014  0.7492017640402153  0.6030480289931218  1.0000
  H   H2        1.0  0.8237707866880797  0.7507949780899139  0.8969510480735606  1.0000
  H   H3        1.0  0.6762312431977264  0.2507988964868346  0.3969533976965208  1.0000
  H   H4        1.0  0.1762268103520199  0.24920436835598284  0.103048694048411  1.0000
  H   H5        1.0  0.6382236269085695  0.6768581637714989  0.6668729244230533  1.0000
  H   H6        1.0  0.1382135916443445  0.8231425663893859  0.833123807392063  1.0000
  H   H7        1.0  0.36178849061372637  0.3231385482510163  0.33312621173656953  1.0000
  H   H8        1.0  0.8617858204436503  0.17686073273263503  0.16687638318463627  1.0000
  H   H9        1.0  0.6133057965231926  0.818988636629477  0.7571314198044305  1.0000
  H   H10       1.0  0.1132989477204447  0.6810153958211276  0.7428637009427987  1.0000
  H   H11       1.0  0.38669906075841  0.1810087339991853  0.24286786784097097  1.0000
  H   H12       1.0  0.8867022794178752  0.3189879043437145  0.2571360291162748  1.0000
  H   H13       1.0  0.8788419508432455  0.9894313858521998  0.8072771414008458  1.0000
  H   H14       1.0  0.3788384799238358  0.5105706266078727  0.6927186881676305  1.0000
  H   H15       1.0  0.1211520160970068  0.010566641296947  0.19272321876558604  1.0000
  H   H16       1.0  0.6211609321645639  0.4894320139085977  0.3072813509136765  1.0000
  H   H17       1.0  0.2905274811915604  0.04066428044318119  0.7780505634150714  1.0000
  H   H18       1.0  0.7905149684178953  0.4593370393835415  0.7219455820697361  1.0000
  H   H19       1.0  0.7094683008367754  0.9593357193935502  0.221951632800014  1.0000
  H   H20       1.0  0.20947899845132412  0.5406656053052643  0.2780526149242704  1.0000
  H   H21       1.0  0.14723073957598126  0.6638494528289202  0.35923745561694886  1.0000
  H   H22       1.0  0.647236109792594  0.8361518934521752  0.14076156165858578  1.0000
  H   H23       1.0  0.8527541519811096  0.3361564859313405  0.6407610383219833  1.0000
  H   H24       1.0  0.3527560420518725  0.16384086902461087  0.859235744462211  1.0000
  H   H25       1.0  0.621452520038325  0.738370037655507  0.5133916844829259  1.0000
  H   H26       1.0  0.12144057347261143  0.7616306806280305  0.9866114502226393  1.0000
  H   H27       1.0  0.37855778258789025  0.2616292910588314  0.486615886496267  1.0000
  H   H28       1.0  0.8785570234802124  0.2383680165990683  0.013383995723728519  1.0000
  H   H29       1.0  0.3762915229943786  0.8050992013722437  0.4054247504590337  1.0000
  H   H30       1.0  0.8762964884179567  0.6949027621365501  0.09457686663660779  1.0000
  H   H31       1.0  0.6236951836426742  0.19490607669636964  0.5945745130269557  1.0000
  H   H32       1.0  0.123693848327882  0.3050893459067225  0.9054184459062992  1.0000
  H   H33       1.0  0.0628446387232486  0.026561582710470995  0.6077955608432147  1.0000
  H   H34       1.0  0.5628355402787406  0.4734371302891987  0.8922035207465413  1.0000
  H   H35       1.0  0.9371547733951928  0.9734397374659806  0.39220555680737584  1.0000
  H   H36       1.0  0.4371584265665335  0.5265569556563746  0.10779132524729819  1.0000
  C   C1        1.0  0.17053415207647052  0.7655670991522429  0.6363607853734763  1.0000
  C   C2        1.0  0.670519205095964  0.734430324389365  0.8636389586332172  1.0000
  C   C3        1.0  0.8294743353524652  0.23443356137494936  0.3636406413137649  1.0000
  C   C4        1.0  0.32947839194332573  0.26557033926763307  0.13636108647953193  1.0000
  C   C5        1.0  0.9975187067335938  0.6172621574245412  0.5801694352227997  1.0000
  C   C6        1.0  0.4975062393591614  0.8827371846500256  0.9198334707691629  1.0000
  C   C7        1.0  0.0025043012258479  0.382736522069969  0.41983383959760084  1.0000
  C   C8        1.0  0.5025022480494883  0.1172647951742078  0.08016733786880789  1.0000
  C   C9        1.0  0.7818782483900153  0.7256799802089444  0.6737136697345817  1.0000
  C   C10       1.0  0.2818666439252908  0.7743194083643985  0.8262835998120934  1.0000
  C   C11       1.0  0.21812842396018084  0.27431936519324307  0.3262865329194256  1.0000
  C   C12       1.0  0.7181309531038523  0.22568191494112005  0.1737161362760276  1.0000
  C   C13       1.0  0.9558793914208794  0.8651577854935794  0.7292268539670842  1.0000
  C   C14       1.0  0.4558687833830319  0.6348415800317965  0.7707685735019962  1.0000
  C   C15       1.0  0.04412183568943111  0.13484354198352833  0.2707710400457444  1.0000
  C   C16       1.0  0.544128813646104  0.3651597432737219  0.2292311625861245  1.0000
  C   C17       1.0  0.15282338451334  0.8460791498933204  0.6850713371992185  1.0000
  C   C18       1.0  0.6528108903677818  0.653919599993756  0.8149258998070507  1.0000
  C   C19       1.0  0.8471796577150884  0.1539228299313606  0.3149294714315544  1.0000
  C   C20       1.0  0.34718670665161266  0.3460817243547325  0.1850733757610428  1.0000
  C   C21       1.0  0.7664762758677952  0.8048240129804823  0.7238968348323168  1.0000
  C   C22       1.0  0.266467047017052  0.695176038785874  0.7760996244091202  1.0000
  C   C23       1.0  0.2335267663517087  0.1951766506760677  0.2761032102876442  1.0000
  C   C24       1.0  0.7335341801314214  0.30482660173044707  0.22390041467458838  1.0000
  C   C25       1.0  0.9826993348233871  0.7052253065698936  0.631045931378317  1.0000
  C   C26       1.0  0.48268568020662184  0.7947747069471305  0.86895248168544  1.0000
  C   C27       1.0  0.017309152566582497  0.2947753581291935  0.36895365322882867  1.0000
  C   C28       1.0  0.5173137318525534  0.20522793669825748  0.13104617583579167  1.0000
  C   C29       1.0  0.20868074233308687  0.9777357981912758  0.7522689840821998  1.0000
  C   C30       1.0  0.7086759250589054  0.5222655833023779  0.7477262436308719  1.0000
  C   C31       1.0  0.791315039665612  0.022264863379916705  0.24773198206819558  1.0000
  C   C32       1.0  0.291321671940608  0.4777364017376016  0.2522722623925659  1.0000
  C   C33       1.0  0.7475358775592585  0.6074617120552545  0.4035244949504033  1.0000
  C   C34       1.0  0.2475277808929661  0.8925349951800143  0.09647925355307055  1.0000
  C   C35       1.0  0.2524707948571034  0.39254091907388033  0.5964796888207289  1.0000
  C   C36       1.0  0.7524716311999028  0.1074604006754143  0.9035191190789219  1.0000
  C   C37       1.0  0.0842342918637513  0.7132180044669666  0.4031216149611794  1.0000
  C   C38       1.0  0.5842419777228471  0.7867833510033789  0.0968776961075051  1.0000
  C   C39       1.0  0.9157542298240386  0.28678661603892414  0.596877036511799  1.0000
  C   C40       1.0  0.4157501741005093  0.2132120479815498  0.9031192949548127  1.0000
  C   C41       1.0  0.9081988681899986  0.8335472049021035  0.5157351027057402  1.0000
  C   C42       1.0  0.4081987560195585  0.6664574226098879  0.9842678578267507  1.0000
  C   C43       1.0  0.09179872891667172  0.16645476866518996  0.4842684690379642  1.0000
  C   C44       1.0  0.5917988409624968  0.33354127148828644  0.01572896967968524  1.0000
  C   C45       1.0  0.1207815001205219  0.851902413199447  0.4851264281601074  1.0000
  C   C46       1.0  0.6207817934157944  0.6481009058940116  0.014876197233007848  1.0000
  C   C47       1.0  0.8792124668258195  0.1481015403566701  0.5148757559848745  1.0000
  C   C48       1.0  0.3792139885358168  0.35189712646985066  0.9851218603357025  1.0000
  C   C49       1.0  0.7840541078701903  0.7539472859726927  0.4905320384056182  1.0000
  C   C50       1.0  0.2840511978809985  0.7460560107727899  0.009469177029629308  1.0000
  C   C51       1.0  0.21594711936717917  0.2460533693402311  0.5094716908721324  1.0000
  C   C52       1.0  0.7159409539411357  0.2539413640287833  0.990528268518865  1.0000
  C   C53       1.0  0.21081123810255778  0.7914481920641807  0.42822616797133867  1.0000
  C   C54       1.0  0.7108187199003383  0.708557091350862  0.07177576863516326  1.0000
  C   C55       1.0  0.7891772836140449  0.20855708391834332  0.5717740165571001  1.0000
  C   C56       1.0  0.2891734319319497  0.29143962380219085  0.9282219859379593  1.0000
  C   C57       1.0  0.04698055013385271  0.9627875984848443  0.5709866571280244  1.0000
  C   C58       1.0  0.5469759741249832  0.5372124774608054  0.9290142869101032  1.0000
  C   C59       1.0  0.9530188619951404  0.0372124034375361  0.4290146180518091  1.0000
  C   C60       1.0  0.45301799274789545  0.46278423977804556  0.07098254662538044  1.0000
  C   C61       1.0  0.8736663798981752  0.6936895452203585  0.43358159564621696  1.0000
  C   C62       1.0  0.3736742928089568  0.8063124228864852  0.06641817242537236  1.0000
  C   C63       1.0  0.1263330322486738  0.3063130890382837  0.5664212065552334  1.0000
  C   C64       1.0  0.6263214890858322  0.19368298131301034  0.9335765160416257  1.0000
  N   N1        1.0  0.9992488676752059  0.9487055635378995  0.7712650026734309  1.0000
  N   N2        1.0  0.4992392128664208  0.5512964304081366  0.7287306850425566  1.0000
  N   N3        1.0  0.0007487294034547  0.0512944373416602  0.22873673302402855  1.0000
  N   N4        1.0  0.5007601992024958  0.44870621219427415  0.27126843299870984  1.0000
  N   N5        1.0  0.306535304794231  0.9187473116807894  0.700502860887731  1.0000
  N   N6        1.0  0.8065229545703827  0.5812514174109679  0.7994929408612419  1.0000
  N   N7        1.0  0.6934677374337923  0.08125532674944219  0.2994980992384271  1.0000
  N   N8        1.0  0.19347101232968814  0.41874858972671797  0.2005060317112708  1.0000
  N   N9        1.0  0.8663425260969788  0.9058887605775467  0.5703498258889113  1.0000
  N   N10       1.0  0.3663354523518407  0.5941152119992097  0.9296542539197006  1.0000
  N   N11       1.0  0.13365688607949983  0.09411321194662747  0.4296542063772222  1.0000
  N   N12       1.0  0.6336603296095192  0.40588281932168263  0.07034426416903732  1.0000
  N   N13       1.0  0.2048590288846839  0.9341064960603374  0.5213877105987307  1.0000
  N   N14       1.0  0.7048562357328194  0.5658961897063717  0.9786137967533576  1.0000
  N   N15       1.0  0.7951367531123948  0.06589679993305708  0.4786138615332404  1.0000
  N   N16       1.0  0.29513773116035225  0.43409920823543763  0.02138365483138224  1.0000
  O   O1        1.0  0.8038263374344085  0.5720314341296202  0.5661346746570004  1.0000
  O   O2        1.0  0.3038157828242802  0.9279659625463237  0.9338677247342204  1.0000
  O   O3        1.0  0.19619667053639492  0.42796460989971047  0.43386845470185154  1.0000
  O   O4        1.0  0.6961963347028828  0.0720386516998204  0.0661336898901226  1.0000
  O   O5        1.0  0.8050977335841126  0.5621229470766024  0.346408125103423  1.0000
  O   O6        1.0  0.3050788496239036  0.937872436727666  0.15359409118137526  1.0000
  O   O7        1.0  0.1948980484628962  0.43787836788528267  0.6535952951424946  1.0000
  O   O8        1.0  0.6949042269583644  0.06212163878906549  0.8464053599982932  1.0000
  O   O9        1.0  0.5835297034429487  0.5841174307835715  0.4371518574098445  1.0000
  O   O10       1.0  0.0835144838654855  0.9158819364707682  0.06285252351784017  1.0000
  O   O11       1.0  0.41649148947833936  0.41587729499183723  0.5628514294758488  1.0000
  O   O12       1.0  0.9164903734043507  0.08411872822861  0.9371470610845022  1.0000
  O   O13       1.0  0.2041718782952699  0.5931431324122229  0.5546750286315002  1.0000
  O   O14       1.0  0.7041657557313314  0.9068542846219784  0.9453252649343965  1.0000
  O   O15       1.0  0.7958511296751285  0.4068535702226655  0.44532825222275096  1.0000
  O   O16       1.0  0.29584636175889767  0.0931470407683079  0.054673550132889694  1.0000
