data_image0
_chemical_formula_structural       Cd4P4H32C36N4O16
_chemical_formula_sum              "Cd4 P4 H32 C36 N4 O16"
_cell_length_a       5.477463873675791
_cell_length_b       10.922232676934579
_cell_length_c       17.047538770958685
_cell_angle_alpha    102.44000603304714
_cell_angle_beta     89.99980844314769
_cell_angle_gamma    89.998717657547

_space_group_name_H-M_alt    "P 1"
_space_group_IT_number       1

loop_
  _space_group_symop_operation_xyz
  'x, y, z'

loop_
  _atom_site_type_symbol
  _atom_site_label
  _atom_site_symmetry_multiplicity
  _atom_site_fract_x
  _atom_site_fract_y
  _atom_site_fract_z
  _atom_site_occupancy
  Cd  Cd1       1.0  0.4097257784945114  0.817814753555254  0.5856417856465441  1.0000
  Cd  Cd2       1.0  0.9097265850603334  0.6821600863687393  0.41436212772859454  1.0000
  Cd  Cd3       1.0  0.5902730804091121  0.182165814922179  0.4143614472729311  1.0000
  Cd  Cd4       1.0  0.0902576685278618  0.3178233316907181  0.5856438274779308  1.0000
  P   P1        1.0  0.889579616378178  0.6312294720578606  0.601047218634129  1.0000
  P   P2        1.0  0.38957124911426183  0.8687455280372445  0.398958662306633  1.0000
  P   P3        1.0  0.11045210438230409  0.36874535106554157  0.3989476304870578  1.0000
  P   P4        1.0  0.6103929226024789  0.1312380840357221  0.6010596376655714  1.0000
  H   H1        1.0  0.023977955300360097  0.5865084424042944  0.7545149795182695  1.0000
  H   H2        1.0  0.5239330343827078  0.9134868481199802  0.24550165504849286  1.0000
  H   H3        1.0  0.9761048824943402  0.4135123380190322  0.24548710221905176  1.0000
  H   H4        1.0  0.4760074022205884  0.08654177473278679  0.7545231664614961  1.0000
  H   H5        1.0  0.8584263447991985  0.6581809761166966  0.8928947230757203  1.0000
  H   H6        1.0  0.3584639539553293  0.8418214170043825  0.10711505795276821  1.0000
  H   H7        1.0  0.1415889438110938  0.34182186214994903  0.1070967805202372  1.0000
  H   H8        1.0  0.6415440331493371  0.15816481356870327  0.8928912679821297  1.0000
  H   H9        1.0  0.5521621832356445  0.7910984115694645  0.9836622165012868  1.0000
  H   H10       1.0  0.0521362152621094  0.70890576414957  0.0163359699860806  1.0000
  H   H11       1.0  0.4478549302844144  0.2089231218885175  0.016328232362098998  1.0000
  H   H12       1.0  0.9479137612774409  0.29111247162239096  0.9836827884622323  1.0000
  H   H13       1.0  0.20476126360230748  0.9415649343156429  0.000517465760175607  1.0000
  H   H14       1.0  0.7047262661499472  0.5584528216475562  0.999495275255484  1.0000
  H   H15       1.0  0.7952562957610992  0.05845318469875587  0.9994749772390533  1.0000
  H   H16       1.0  0.2952766880756954  0.4415729916067193  0.0005105014111065968  1.0000
  H   H17       1.0  0.029105377188827188  0.007402630298542998  0.8808224475701181  1.0000
  H   H18       1.0  0.5290986862386902  0.4926068651199884  0.11920250199942473  1.0000
  H   H19       1.0  0.970901490541152  0.9925903047529018  0.11916827344735033  1.0000
  H   H20       1.0  0.47085818028970994  0.507429844501061  0.8808010940095343  1.0000
  H   H21       1.0  0.2010483600091533  0.927457756072222  0.7455791767214492  1.0000
  H   H22       1.0  0.7011178176668196  0.5725501559644073  0.2544198832974303  1.0000
  H   H23       1.0  0.7989066817736017  0.07252986024941778  0.2543962411332785  1.0000
  H   H24       1.0  0.2988883434505567  0.4274444939184006  0.7455863795100158  1.0000
  H   H25       1.0  0.945337836373966  0.9573722220777795  0.612277736994116  1.0000
  H   H26       1.0  0.44534457283956635  0.5425749182711926  0.3877045956474987  1.0000
  H   H27       1.0  0.0546719763155536  0.042590163859465194  0.3876996335168315  1.0000
  H   H28       1.0  0.5546615887190781  0.4573847012643879  0.6122753432391265  1.0000
  H   H29       1.0  0.18519667187018027  0.042091380483569196  0.6233573182575043  1.0000
  H   H30       1.0  0.6852303547583389  0.4578772044692626  0.37662852741819103  1.0000
  H   H31       1.0  0.8147821037015105  0.9579058419554015  0.3766340316674004  1.0000
  H   H32       1.0  0.3147958883899094  0.5420982791348337  0.6233488101126099  1.0000
  C   C1        1.0  0.7652967881904829  0.6958091165908157  0.7015834912481795  1.0000
  C   C2        1.0  0.26524997225008207  0.8041844398203039  0.2984212943268645  1.0000
  C   C3        1.0  0.2347404090145986  0.3041787857642504  0.29841014926604  1.0000
  C   C4        1.0  0.7347324553071956  0.19580928184556257  0.7015854328257093  1.0000
  C   C5        1.0  0.8705373758957291  0.6511951501454047  0.7663675221116365  1.0000
  C   C6        1.0  0.37053382177924016  0.8488081379699965  0.23364461147228616  1.0000
  C   C7        1.0  0.129474261595  0.34881349802842  0.2336364800227315  1.0000
  C   C8        1.0  0.6294577331156076  0.15121084157703277  0.7663619262239793  1.0000
  C   C9        1.0  0.7783918076379236  0.690584356717963  0.8423341259043937  1.0000
  C   C10       1.0  0.2783970242090774  0.8094241878133203  0.1576772073978034  1.0000
  C   C11       1.0  0.22162713275643137  0.309412029650005  0.1576635664535573  1.0000
  C   C12       1.0  0.7215908804142755  0.1905743323144122  0.8423371919016419  1.0000
  C   C13       1.0  0.578771072500686  0.775290852672995  0.8552279383564709  1.0000
  C   C14       1.0  0.0787618163896866  0.724727257209274  0.1447747720587103  1.0000
  C   C15       1.0  0.421235087508073  0.2247223261664431  0.144766688587076  1.0000
  C   C16       1.0  0.9212151340214944  0.2752759136648137  0.8552378940124967  1.0000
  C   C17       1.0  0.4741560057566332  0.821211316906819  0.9319607325333692  1.0000
  C   C18       1.0  0.9741461337546581  0.6788062997992197  0.06805291756236187  1.0000
  C   C19       1.0  0.5258501539508131  0.1788131492415417  0.0680377291688643  1.0000
  C   C20       1.0  0.0258454214324217  0.3212194825871109  0.9319697693168578  1.0000
  C   C21       1.0  0.2810728987703044  0.9043675385094401  0.9411039679909408  1.0000
  C   C22       1.0  0.7810541697339914  0.5956494262508585  0.058908450829918024  1.0000
  C   C23       1.0  0.7189223068360774  0.09565591625962358  0.05888966742143249  1.0000
  C   C24       1.0  0.21892460544067657  0.4043714191636666  0.9410977463222566  1.0000
  C   C25       1.0  0.1835677825276179  0.9429260843254568  0.8736231628585003  1.0000
  C   C26       1.0  0.6835438509981274  0.5570810608126636  0.12637947806847905  1.0000
  C   C27       1.0  0.816463936605416  0.05707845347195929  0.1263574189049024  1.0000
  C   C28       1.0  0.316411190410534  0.4429425695647282  0.8736253265289664  1.0000
  C   C29       1.0  0.2802393314044521  0.8995124444634826  0.7979254723733646  1.0000
  C   C30       1.0  0.7802136049059881  0.6004970255550502  0.2020859659940371  1.0000
  C   C31       1.0  0.7197832599503543  0.10049234272501201  0.2020709811471164  1.0000
  C   C32       1.0  0.21973048382722027  0.3994976891809472  0.7979244120156679  1.0000
  C   C33       1.0  0.48197784541401495  0.8163240862763814  0.7870362746597053  1.0000
  C   C34       1.0  0.9819629176175368  0.6837054637420934  0.21296597076449333  1.0000
  C   C35       1.0  0.5180593505274161  0.1836946529951433  0.21295497893576254  1.0000
  C   C36       1.0  0.0180103813812167  0.3163062372748655  0.7870536862822277  1.0000
  N   N1        1.0  0.5799144620049147  0.7762111827683782  0.7116353470495652  1.0000
  N   N2        1.0  0.0798822484007715  0.723800301545694  0.28836295954403823  1.0000
  N   N3        1.0  0.4201227344873573  0.22379067171772948  0.288353093613587  1.0000
  N   N4        1.0  0.9201257384540611  0.2761962880413761  0.711647665374521  1.0000
  O   O1        1.0  0.7530009442815738  0.6970551580760969  0.5428110308741908  1.0000
  O   O2        1.0  0.2529924821544967  0.8029365762698716  0.4571918682559755  1.0000
  O   O3        1.0  0.2469960885952176  0.3029338112398676  0.45719096323555414  1.0000
  O   O4        1.0  0.7469607352992044  0.1970430917694088  0.5428135926429789  1.0000
  O   O5        1.0  0.8404012303619196  0.49002043946078533  0.5878337655732152  1.0000
  O   O6        1.0  0.34040849063966044  0.0099676771029138  0.412148525494743  1.0000
  O   O7        1.0  0.1596122331292449  0.5099597964872089  0.41214830499117744  1.0000
  O   O8        1.0  0.6595575058254823  0.9900221744320349  0.5878500653414562  1.0000
  O   O9        1.0  0.16368984504645567  0.6596157356553504  0.6061719569931299  1.0000
  O   O10       1.0  0.6636898982560667  0.8403530643801317  0.39382346546436514  1.0000
  O   O11       1.0  0.8363345728819525  0.340365668677066  0.3938249331605448  1.0000
  O   O12       1.0  0.3362797506573258  0.15963445480213778  0.6062053222442501  1.0000
  O   O13       1.0  0.11342420636614038  0.9635248253545466  0.6359388757071188  1.0000
  O   O14       1.0  0.6134382147191885  0.5364394511712406  0.3640458564374072  1.0000
  O   O15       1.0  0.8865746519323139  0.03645641282116689  0.3640474334353954  1.0000
  O   O16       1.0  0.3865843772222418  0.4635456109334086  0.6359456497787974  1.0000
