data_image0
_chemical_formula_structural       Zn4H66C94N4O18
_chemical_formula_sum              "Zn4 H66 C94 N4 O18"
_cell_length_a       16.568588073054755
_cell_length_b       17.866113598098618
_cell_length_c       31.075455600285323
_cell_angle_alpha    90.06755608254046
_cell_angle_beta     90.54526741163976
_cell_angle_gamma    89.9069796188184

_space_group_name_H-M_alt    "P 1"
_space_group_IT_number       1

loop_
  _space_group_symop_operation_xyz
  'x, y, z'

loop_
  _atom_site_type_symbol
  _atom_site_label
  _atom_site_symmetry_multiplicity
  _atom_site_fract_x
  _atom_site_fract_y
  _atom_site_fract_z
  _atom_site_occupancy
  Zn  Zn1       1.0  0.5777730857536626  0.5018828558690134  0.5050219172666888  1.0000
  Zn  Zn2       1.0  0.40795199126766596  0.4881860433826475  0.49922574770645417  1.0000
  Zn  Zn3       1.0  0.4222882643888468  0.5049734163734952  0.9239539203260565  1.0000
  Zn  Zn4       1.0  0.5921212078144932  0.49041862664790875  0.9296228990675035  1.0000
  H   H1        1.0  0.28717176186452054  0.5724185711900276  0.5398684981526074  1.0000
  H   H2        1.0  0.1367262008311556  0.5865337053309573  0.544179625798286  1.0000
  H   H3        1.0  0.11744697303794278  0.4007358432611312  0.4554324349000467  1.0000
  H   H4        1.0  0.8663748165043827  0.5841865012068866  0.556220288209012  1.0000
  H   H5        1.0  0.700429676079615  0.4351844781357244  0.45660555771935674  1.0000
  H   H6        1.0  0.8511639164606918  0.4272168063695291  0.4505019713483805  1.0000
  H   H7        1.0  0.6068767130328966  0.7235496651286368  0.49329418710825484  1.0000
  H   H8        1.0  0.6216014808084367  0.8624892796294789  0.491150259120012  1.0000
  H   H9        1.0  0.3627042893622417  0.8829000494046897  0.4944413313626371  1.0000
  H   H10       1.0  0.6391406950772804  0.1145415161767289  0.5016063427779828  1.0000
  H   H11       1.0  0.385187559007413  0.25992686212165245  0.5036641936679375  1.0000
  H   H12       1.0  0.3793155075269468  0.12069158444884923  0.49860958430834773  1.0000
  H   H13       1.0  0.3994770735317559  0.4988650000628923  0.7869546128845432  1.0000
  H   H14       1.0  0.6570942418282115  0.5023247641861204  0.7957153386025129  1.0000
  H   H15       1.0  0.6005774009403028  0.4974307992918839  0.6418885618539747  1.0000
  H   H16       1.0  0.3429455672555193  0.5008932332427494  0.6330814391549355  1.0000
  H   H17       1.0  0.3732952408016317  0.4818447575449696  0.06303909863343192  1.0000
  H   H18       1.0  0.37060643378561764  0.48569737417376063  0.14341984579605346  1.0000
  H   H19       1.0  0.6224381784467496  0.5450629696335056  0.1443347259213965  1.0000
  H   H20       1.0  0.37709683036847247  0.5441832666327217  0.2850129718409491  1.0000
  H   H21       1.0  0.6268605365780856  0.480615725206178  0.36575797721631903  1.0000
  H   H22       1.0  0.6292725277060214  0.485354902154306  0.2853930592497065  1.0000
  H   H23       1.0  0.7128912134917086  0.5735626946289684  0.8888381327734935  1.0000
  H   H24       1.0  0.8633177017071108  0.5871505189169142  0.8844843958819911  1.0000
  H   H25       1.0  0.8826327635463826  0.4022741603467779  0.9736531298502273  1.0000
  H   H26       1.0  0.13287131298057628  0.585775274537845  0.8729040805649932  1.0000
  H   H27       1.0  0.300329155536879  0.4381826158354301  0.972534572995727  1.0000
  H   H28       1.0  0.149677199888302  0.4290975471418008  0.9785150438896155  1.0000
  H   H29       1.0  0.3939873793759361  0.7266630473076674  0.9359193449617323  1.0000
  H   H30       1.0  0.3790825719737541  0.8655890460996931  0.9370621303936916  1.0000
  H   H31       1.0  0.6378271506384506  0.8854481894472669  0.9322001875864532  1.0000
  H   H32       1.0  0.3601538303621012  0.11793802084493173  0.9256394260672851  1.0000
  H   H33       1.0  0.6143792692430735  0.2622442629084247  0.9237334325833048  1.0000
  H   H34       1.0  0.6199965740230482  0.1228951708769657  0.9279420262896496  1.0000
  H   H35       1.0  0.2378916666288546  0.3483723749346196  0.42599986545835833  1.0000
  H   H36       1.0  0.33099923060778025  0.39932151770725005  0.4310383525193161  1.0000
  H   H37       1.0  0.30490677370823244  0.3335188822282901  0.4704862398997919  1.0000
  H   H38       1.0  0.6827498455496652  0.6523775625204568  0.5506415337329572  1.0000
  H   H39       1.0  0.6499962466413366  0.5728640921128517  0.5787957035094707  1.0000
  H   H40       1.0  0.7441396538093557  0.6166131416787622  0.5933334950892758  1.0000
  H   H41       1.0  0.2784324468693313  0.78404738301726  0.4948265789943421  1.0000
  H   H42       1.0  0.3115146426022832  0.6990333914434784  0.4699466826497841  1.0000
  H   H43       1.0  0.31325877891126197  0.7069394745429066  0.5262896312036034  1.0000
  H   H44       1.0  0.6830307246484965  0.2918896313194211  0.476700085329263  1.0000
  H   H45       1.0  0.6738932133898317  0.30117984260731845  0.5326425135300995  1.0000
  H   H46       1.0  0.716244559543469  0.21733638249390447  0.5107624991078128  1.0000
  H   H47       1.0  0.6807569198973837  0.4956375708706419  0.0489159862260848  1.0000
  H   H48       1.0  0.6395382945555425  0.5810403155146207  0.031099049131050507  1.0000
  H   H49       1.0  0.6889474835414546  0.5761377445400199  0.08242562081330361  1.0000
  H   H50       1.0  0.319496747837448  0.4933185961791223  0.3802349295550158  1.0000
  H   H51       1.0  0.35989667218110105  0.578792037936161  0.39838862795459573  1.0000
  H   H52       1.0  0.3104308163909124  0.5740523173402323  0.3470613543309612  1.0000
  H   H53       1.0  0.7622905387653417  0.3502892302653323  0.003026654508062201  1.0000
  H   H54       1.0  0.6693522950989461  0.4018079328687278  0.9981774420833603  1.0000
  H   H55       1.0  0.6947662555923202  0.3355205469871478  0.9587375828147985  1.0000
  H   H56       1.0  0.31680823649843876  0.6546728146614668  0.8786452238274339  1.0000
  H   H57       1.0  0.3490038640591919  0.5751920298638213  0.8500922625251308  1.0000
  H   H58       1.0  0.2547875736690699  0.6194634993797479  0.8360426575863615  1.0000
  H   H59       1.0  0.7222292444347147  0.7859021044795825  0.9363258326161914  1.0000
  H   H60       1.0  0.6875247519281374  0.6964500162012542  0.954497039146091  1.0000
  H   H61       1.0  0.6896525268516032  0.7162741106061576  0.8990834691856835  1.0000
  H   H62       1.0  0.3166693624117585  0.29522078865430507  0.951369638588041  1.0000
  H   H63       1.0  0.3256123616190436  0.3049851764585654  0.8954540567741917  1.0000
  H   H64       1.0  0.2832369010562843  0.22111743543460702  0.9170076068714936  1.0000
  H   H65       1.0  0.3197225598208462  0.49896299975971187  0.7458460555706241  1.0000
  H   H66       1.0  0.6802487693540868  0.49833315050025123  0.6829605165424298  1.0000
  C   C1        1.0  0.47774887982622266  0.6409408621727408  0.49817003680286837  1.0000
  C   C2        1.0  0.48020628779167407  0.4988640457062204  0.5857443910117013  1.0000
  C   C3        1.0  0.5091121430369299  0.3500034426442583  0.504382679523758  1.0000
  C   C4        1.0  0.5032708598756983  0.497760794651825  0.41824187344514036  1.0000
  C   C5        1.0  0.5228034435653298  0.6435502214933067  0.930638104024091  1.0000
  C   C6        1.0  0.5198281605558321  0.5013755501862036  0.8431015608194843  1.0000
  C   C7        1.0  0.4906468069971766  0.352814186846274  0.923906338123409  1.0000
  C   C8        1.0  0.4968866361976651  0.4999420511744291  0.010740741653947302  1.0000
  C   C9        1.0  0.24663781430897563  0.535919646325034  0.5217234992955471  1.0000
  C   C10       1.0  0.16359756131738837  0.543485700960673  0.5240535070669878  1.0000
  C   C11       1.0  0.1148733922949958  0.49435142699606877  0.49972919564615387  1.0000
  C   C12       1.0  0.15334894981325678  0.43982468099205363  0.4745008685779269  1.0000
  C   C13       1.0  0.2374670021354746  0.4350353995811177  0.47394549633594363  1.0000
  C   C14       1.0  0.029695704120655395  0.4991012177365021  0.5007896266049985  1.0000
  C   C15       1.0  0.9562468159498678  0.5024845482731095  0.501893448796821  1.0000
  C   C16       1.0  0.8709992028636222  0.5054244499042255  0.5033010979669542  1.0000
  C   C17       1.0  0.8313296014886191  0.5504826432226011  0.5335945550076105  1.0000
  C   C18       1.0  0.7470949738225698  0.5521564948521488  0.5350414801960355  1.0000
  C   C19       1.0  0.7401639568595328  0.4671110835347675  0.4778876471221168  1.0000
  C   C20       1.0  0.8233197999126743  0.46288003559345736  0.4746020597752791  1.0000
  C   C21       1.0  0.4777901780956597  0.7248517163379661  0.49525584368876724  1.0000
  C   C22       1.0  0.5538195517820554  0.7595974005142736  0.493544714435359  1.0000
  C   C23       1.0  0.562142863469461  0.8366437694715361  0.49235956505940254  1.0000
  C   C24       1.0  0.4926600309375645  0.8822633343130662  0.4932720738648655  1.0000
  C   C25       1.0  0.41638918884111575  0.8474692408872855  0.49404653761866524  1.0000
  C   C26       1.0  0.4071470991294319  0.7696730717577015  0.49485869466452215  1.0000
  C   C27       1.0  0.4995254165554854  0.9611293153186866  0.4942809526998816  1.0000
  C   C28       1.0  0.5062328071897751  0.02912762596717041  0.4964036394442318  1.0000
  C   C29       1.0  0.5093338458302981  0.10809709496034263  0.4991174128920265  1.0000
  C   C30       1.0  0.5832253891020186  0.14690624502453184  0.5014643880634326  1.0000
  C   C31       1.0  0.5874686973115076  0.2250583612185225  0.5036252897130781  1.0000
  C   C32       1.0  0.51409267475875  0.2660551493721997  0.503661430805366  1.0000
  C   C33       1.0  0.44047325525147585  0.22706444262509953  0.5024316818772621  1.0000
  C   C34       1.0  0.43702752706614223  0.14981912278828702  0.49990878027275454  1.0000
  C   C35       1.0  0.4567436144032868  0.5001410379068078  0.7698656182604398  1.0000
  C   C36       1.0  0.6029525792705783  0.5017538452189496  0.7756112929814947  1.0000
  C   C37       1.0  0.6091792739195014  0.5007184289678223  0.7313624920323962  1.0000
  C   C38       1.0  0.5388254042348208  0.5000536748393074  0.7042593608146106  1.0000
  C   C39       1.0  0.5432623456365704  0.49906089844190404  0.6589603483096483  1.0000
  C   C40       1.0  0.3970757262790343  0.5006390971011572  0.6531973942573546  1.0000
  C   C41       1.0  0.3908519050311838  0.5004369435188352  0.697455892270199  1.0000
  C   C42       1.0  0.46120705781994076  0.5002469545845188  0.7245776700708293  1.0000
  C   C43       1.0  0.5262525437844018  0.5011437318873746  0.7949930522460635  1.0000
  C   C44       1.0  0.4737682219146747  0.4995627753454813  0.6338149711476151  1.0000
  C   C45       1.0  0.4993401518166111  0.5075879355320366  0.05872935799877151  1.0000
  C   C46       1.0  0.42791322231375517  0.49453383481106533  0.0814789274691137  1.0000
  C   C47       1.0  0.4261411942126045  0.4969993514563102  0.1260924883926506  1.0000
  C   C48       1.0  0.4973165946007328  0.5140304800561353  0.1493409728818449  1.0000
  C   C49       1.0  0.5680841005051533  0.5298120843733969  0.12627121442295675  1.0000
  C   C50       1.0  0.5709130124028831  0.5268677020078911  0.08139025269798593  1.0000
  C   C51       1.0  0.49853934356760743  0.5152167227311324  0.19489351085958626  1.0000
  C   C52       1.0  0.501029463261439  0.5151010792776418  0.23418195495749228  1.0000
  C   C53       1.0  0.5023969639766578  0.513514956699659  0.27973696654870395  1.0000
  C   C54       1.0  0.43160622264228715  0.5288993968413465  0.3029457542451156  1.0000
  C   C55       1.0  0.4289197872501802  0.5254108962082783  0.3478068510852809  1.0000
  C   C56       1.0  0.5006909915822249  0.5060316305230331  0.3703008566211281  1.0000
  C   C57       1.0  0.5721387224083047  0.4934183260815175  0.3474364341207092  1.0000
  C   C58       1.0  0.573753807317985  0.4963905206669423  0.3028402222371938  1.0000
  C   C59       1.0  0.753433122171728  0.5370794486595257  0.907030460164741  1.0000
  C   C60       1.0  0.8364787578217872  0.5443678433825315  0.9046961575683528  1.0000
  C   C61       1.0  0.8852131958475268  0.49536309083519825  0.9291396922714059  1.0000
  C   C62       1.0  0.8467283307507573  0.4412029362890664  0.9544627004765902  1.0000
  C   C63       1.0  0.7626001776862241  0.4366331619460412  0.9550034127351241  1.0000
  C   C64       1.0  0.9703863536459709  0.5000394015785047  0.9281429097701095  1.0000
  C   C65       1.0  0.043812238915535304  0.5036199306930841  0.927116632545918  1.0000
  C   C66       1.0  0.12903728218422827  0.5070747185112482  0.9257608795306922  1.0000
  C   C67       1.0  0.1682635592524875  0.5523605982233023  0.8955240153163901  1.0000
  C   C68       1.0  0.25248653140990746  0.5545985223155442  0.8941235996225316  1.0000
  C   C69       1.0  0.26026793651746516  0.46975653544048174  0.9512440967878038  1.0000
  C   C70       1.0  0.17715778162381918  0.46492585006029713  0.9544634544517125  1.0000
  C   C71       1.0  0.5230185224485524  0.7275624484145524  0.9330753468826388  1.0000
  C   C72       1.0  0.44698773590754115  0.7625406421247832  0.93501446596828  1.0000
  C   C73       1.0  0.4385389538614318  0.8396099593435551  0.9356419145405683  1.0000
  C   C74       1.0  0.5078724187900007  0.885117880569993  0.9339504315860625  1.0000
  C   C75       1.0  0.5841708466802944  0.8501636905786258  0.9330741380282319  1.0000
  C   C76       1.0  0.5935557553238411  0.7723083566016982  0.9327945175029912  1.0000
  C   C77       1.0  0.5006902066074517  0.9639624073678804  0.9325177041846333  1.0000
  C   C78       1.0  0.49327085900360157  0.031896692465124915  0.9302786882914945  1.0000
  C   C79       1.0  0.49002304331884977  0.11088738478981239  0.9277554550341665  1.0000
  C   C80       1.0  0.41616295082633303  0.15002403462639083  0.9257787987685762  1.0000
  C   C81       1.0  0.4120366964900484  0.22823511006283326  0.9240153530718731  1.0000
  C   C82       1.0  0.4854859637847682  0.26890247769100034  0.9240772622078738  1.0000
  C   C83       1.0  0.55905337430152  0.2296015959835387  0.9248939673257794  1.0000
  C   C84       1.0  0.5623698748626894  0.15232372052005158  0.9269469025936561  1.0000
  C   C85       1.0  0.2796207223436014  0.3758854490368648  0.4485266798071522  1.0000
  C   C86       1.0  0.7039850100240057  0.6009328254310091  0.5665674650788334  1.0000
  C   C87       1.0  0.32286017511201953  0.7384367834497639  0.4963964404597193  1.0000
  C   C88       1.0  0.6697581238757736  0.26056837854075343  0.5061974073150709  1.0000
  C   C89       1.0  0.6491845590355751  0.546278952996154  0.05977253956211832  1.0000
  C   C90       1.0  0.3505298521775444  0.5442321955826233  0.3695687506163169  1.0000
  C   C91       1.0  0.7204565953911625  0.3778964828981516  0.9805723824632795  1.0000
  C   C92       1.0  0.29523349756073003  0.6034449474178416  0.8626149751878317  1.0000
  C   C93       1.0  0.6779870636274125  0.7411148433798402  0.9308709483940094  1.0000
  C   C94       1.0  0.3297871472271297  0.2641223922264473  0.9217205266097397  1.0000
  N   N1        1.0  0.28292734347888177  0.48352470793133767  0.4973421709879987  1.0000
  N   N2        1.0  0.7026924447773341  0.5100458599819289  0.50733414149218  1.0000
  N   N3        1.0  0.7171361987859015  0.48501562026377354  0.9315061841796111  1.0000
  N   N4        1.0  0.2972996284906131  0.5128806246623229  0.9218466805198207  1.0000
  O   O1        1.0  0.5447771957155254  0.6112177661737449  0.5096037930331292  1.0000
  O   O2        1.0  0.4134462480597848  0.604837928488834  0.4893349637935672  1.0000
  O   O3        1.0  0.41522455449940304  0.5088547233058806  0.564260539193441  1.0000
  O   O4        1.0  0.550065262103665  0.4883718628930114  0.5699195985790697  1.0000
  O   O5        1.0  0.439662867135425  0.3784614168566663  0.5111177725785014  1.0000
  O   O6        1.0  0.5732771547766191  0.38747267975645633  0.4976681096336507  1.0000
  O   O7        1.0  0.5693360453637126  0.5119328015599793  0.43779244869694633  1.0000
  O   O8        1.0  0.4383488685835601  0.47586007207107883  0.4361508490190361  1.0000
  O   O9        1.0  0.45550982977469806  0.6140802587749121  0.9195805334792626  1.0000
  O   O10       1.0  0.5869648894459445  0.6070731057844229  0.9394510019147619  1.0000
  O   O11       1.0  0.5848345066935465  0.5113138235367674  0.8645512675330667  1.0000
  O   O12       1.0  0.44989664501888177  0.49161417593241225  0.8589557258853164  1.0000
  O   O13       1.0  0.5601878002493662  0.38103406026058206  0.9174032683757363  1.0000
  O   O14       1.0  0.426577711222528  0.390503176669526  0.9308271501542367  1.0000
  O   O15       1.0  0.43082329243977563  0.5144362780809716  0.9912420715498487  1.0000
  O   O16       1.0  0.5618884738992306  0.4782202370127352  0.9927400790659535  1.0000
  O   O17       1.0  0.3149581481950037  0.5006500956380862  0.7145801189158619  1.0000
  O   O18       1.0  0.6850207891273996  0.5005596539419913  0.7142141126108612  1.0000
