data_image0
_chemical_formula_structural       CaH32C38O8
_chemical_formula_sum              "Ca1 H32 C38 O8"
_cell_length_a       5.212372214075311
_cell_length_b       10.631101612771296
_cell_length_c       15.068747655860266
_cell_angle_alpha    83.23040757586703
_cell_angle_beta     83.70941425281576
_cell_angle_gamma    81.36507284662174

_space_group_name_H-M_alt    "P 1"
_space_group_IT_number       1

loop_
  _space_group_symop_operation_xyz
  'x, y, z'

loop_
  _atom_site_type_symbol
  _atom_site_label
  _atom_site_symmetry_multiplicity
  _atom_site_fract_x
  _atom_site_fract_y
  _atom_site_fract_z
  _atom_site_occupancy
  Ca  Ca1       1.0  0.9999910988640437  3.4159268408986598e-06  0.9999997330451793  1.0000
  H   H1        1.0  0.9661068426461554  0.7357783247195259  0.47870788895262023  1.0000
  H   H2        1.0  0.033855061767774  0.264218706112878  0.5212805468775132  1.0000
  H   H3        1.0  0.5465803809312247  0.25407758938152375  0.5935452662981007  1.0000
  H   H4        1.0  0.4534269331922757  0.745935578255505  0.4064451971066704  1.0000
  H   H5        1.0  0.7050039889758464  0.14174988684825962  0.7368279109070031  1.0000
  H   H6        1.0  0.29499314413985184  0.8582767777672444  0.2631703157095303  1.0000
  H   H7        1.0  0.020529203782054046  0.31837993263415143  0.8845521201941795  1.0000
  H   H8        1.0  0.979464335625977  0.6816342372658964  0.11543863646083005  1.0000
  H   H9        1.0  0.871218307185721  0.437731276219303  0.743627833190807  1.0000
  H   H10       1.0  0.12875745698939764  0.5622705180147491  0.2563631364506023  1.0000
  H   H11       1.0  0.53970715184969  0.5107384901357153  0.6473250751686167  1.0000
  H   H12       1.0  0.46025390025656776  0.48926626595430633  0.3526706944511986  1.0000
  H   H13       1.0  0.6648961527418679  0.6222127318425948  0.7688296437283386  1.0000
  H   H14       1.0  0.3350604761983219  0.3777786929446522  0.2311707008988506  1.0000
  H   H15       1.0  0.9775836526097378  0.898051217689549  0.7475283015810563  1.0000
  H   H16       1.0  0.02238421025605666  0.10194670338012204  0.2524552471970268  1.0000
  H   H17       1.0  0.8480359323805118  0.7867439897769016  0.6264559551270568  1.0000
  H   H18       1.0  0.1519522950808465  0.21325581228537518  0.37353085780628703  1.0000
  H   H19       1.0  0.6272888651845461  0.8190680240055528  0.9361949037394128  1.0000
  H   H20       1.0  0.3726734349954484  0.18094144135240953  0.06379379163227841  1.0000
  H   H21       1.0  0.41360121735641553  0.8713773846041307  0.5428466763518998  1.0000
  H   H22       1.0  0.5863627476946078  0.1286263285318938  0.4571411345714013  1.0000
  H   H23       1.0  0.2070298589743587  3.506157580800095e-05  0.49100862684160523  1.0000
  H   H24       1.0  0.7929376416211794  0.9999628994592131  0.5089789121689494  1.0000
  H   H25       1.0  0.33970487828330687  0.0174517698386083  0.5917116562743843  1.0000
  H   H26       1.0  0.6602559205038573  0.9825500234279191  0.4082744130819336  1.0000
  H   H27       1.0  0.7764213660802853  0.5363650129124196  0.9706783740625725  1.0000
  H   H28       1.0  0.22378147528723244  0.46361866915589206  0.029391553749619017  1.0000
  H   H29       1.0  0.6998634013385541  0.37763250886704475  0.9913948405335093  1.0000
  H   H30       1.0  0.30032184890830377  0.6223350648542977  0.00868490789356  1.0000
  H   H31       1.0  0.6689385522365044  0.47481023529475413  0.08058248549176032  1.0000
  H   H32       1.0  0.3312840481247505  0.5251610602045675  0.919498575942072  1.0000
  C   C1        1.0  0.9770312204491843  0.6318412470306143  0.48918827974472384  1.0000
  C   C2        1.0  0.022949048301583664  0.36815097582988443  0.5108033801087475  1.0000
  C   C3        1.0  0.0883722685478857  0.5658508587632981  0.5650029825190119  1.0000
  C   C4        1.0  0.9116117257110046  0.4341422941788764  0.43498716797924436  1.0000
  C   C5        1.0  0.10893511463077497  0.4304825966545849  0.5762204057319025  1.0000
  C   C6        1.0  0.8910304549128936  0.5695153709203852  0.4237671857817561  1.0000
  C   C7        1.0  0.19919651068055802  0.3544871524166098  0.6590607817038787  1.0000
  C   C8        1.0  0.8007832205161803  0.6455155452555489  0.3409260184273394  1.0000
  C   C9        1.0  0.43046389897624937  0.2674592537806575  0.65738260240245  1.0000
  C   C10       1.0  0.5695158123483283  0.7325482930381498  0.3426110892942519  1.0000
  C   C11       1.0  0.5191350666311224  0.20447601553850353  0.7370951957845622  1.0000
  C   C12       1.0  0.48084485049593423  0.7955372836231903  0.2628999928961734  1.0000
  C   C13       1.0  0.37223419343445846  0.22339420511753622  0.8193496192056885  1.0000
  C   C14       1.0  0.62775595806837  0.7766132224099279  0.18063516447181635  1.0000
  C   C15       1.0  0.13570307673707296  0.30563446943428124  0.8207270799457831  1.0000
  C   C16       1.0  0.8642894848113444  0.6943768175729659  0.17926195691065067  1.0000
  C   C17       1.0  0.05238776001440467  0.3716815646969139  0.7416046742751095  1.0000
  C   C18       1.0  0.9476029982493016  0.628322083523358  0.2583850617596681  1.0000
  C   C19       1.0  0.4693380584375575  0.16113965430145782  0.9058853774809068  1.0000
  C   C20       1.0  0.5306496789863857  0.838867833053094  0.09410477900965472  1.0000
  C   C21       1.0  0.17983754226852958  0.6381716117892823  0.6305546292070546  1.0000
  C   C22       1.0  0.8201431204302453  0.36181871142628114  0.3694385092669279  1.0000
  C   C23       1.0  0.4147183407776893  0.5948665175780833  0.6696282018554527  1.0000
  C   C24       1.0  0.585275462993117  0.4051390638334596  0.33036460582379595  1.0000
  C   C25       1.0  0.486542288355629  0.657269196748061  0.7370171385698115  1.0000
  C   C26       1.0  0.5134327711511304  0.3427278282700287  0.2629749199710291  1.0000
  C   C27       1.0  0.3265228038313595  0.7656321873222398  0.7662336100499445  1.0000
  C   C28       1.0  0.6734376238570832  0.23436294374428002  0.23375569186506343  1.0000
  C   C29       1.0  0.09978365004465668  0.8136879426545179  0.7242901708858724  1.0000
  C   C30       1.0  0.9001751643226612  0.1863062318077056  0.27569859276501774  1.0000
  C   C31       1.0  0.028809436276695372  0.7511618236916535  0.6567741851484996  1.0000
  C   C32       1.0  0.9711550574998853  0.24882471246735355  0.3432177278232872  1.0000
  C   C33       1.0  0.38299498372305857  0.8263427059032297  0.8440970059614018  1.0000
  C   C34       1.0  0.6169371876508549  0.17366791395072312  0.15590237826652506  1.0000
  C   C35       1.0  0.382392105488428  0.9758013740251175  0.5274418629660717  1.0000
  C   C36       1.0  0.6175897854119298  0.024198507605035502  0.4725510928252774  1.0000
  C   C37       1.0  0.6411253870970198  0.47585434285830525  0.009229042523735121  1.0000
  C   C38       1.0  0.3591180480250528  0.5241159974879964  0.9908588310736165  1.0000
  O   O1        1.0  0.2984808475789436  0.15342393089702  0.975048707062463  1.0000
  O   O2        1.0  0.7015204429191257  0.8465777316914257  0.024936924767352802  1.0000
  O   O3        1.0  0.7089410558647413  0.12207795287592665  0.9078364218690002  1.0000
  O   O4        1.0  0.29106696993751763  0.8779323519719142  0.09215492938906784  1.0000
  O   O5        1.0  0.22289676414386128  0.9120745378655432  0.8765515690626844  1.0000
  O   O6        1.0  0.7770488969486851  0.08793397658148902  0.12343235279853104  1.0000
  O   O7        1.0  0.6075443926301104  0.7816529284903382  0.8763378536071189  1.0000
  O   O8        1.0  0.3924219220881255  0.21835465078635252  0.12365487553385181  1.0000
