data_image0
_chemical_formula_structural       Ag2H26C22S2N4O8
_chemical_formula_sum              "Ag2 H26 C22 S2 N4 O8"
_cell_length_a       7.987742728412823
_cell_length_b       8.498874119209017
_cell_length_c       9.849091587097789
_cell_angle_alpha    68.756675528983
_cell_angle_beta     85.68980195684433
_cell_angle_gamma    85.5626640842719

_space_group_name_H-M_alt    "P 1"
_space_group_IT_number       1

loop_
  _space_group_symop_operation_xyz
  'x, y, z'

loop_
  _atom_site_type_symbol
  _atom_site_label
  _atom_site_symmetry_multiplicity
  _atom_site_fract_x
  _atom_site_fract_y
  _atom_site_fract_z
  _atom_site_occupancy
  Ag  Ag1       1.0  0.3232658342713677  0.5018345668606443  0.33312391595526947  1.0000
  Ag  Ag2       1.0  0.6767355241947469  0.49816430726428973  0.666876796187772  1.0000
  H   H1        1.0  0.5601971286577906  0.20852869403521626  0.289513144280896  1.0000
  H   H2        1.0  0.43980179455753887  0.7914689289805495  0.7104901502383426  1.0000
  H   H3        1.0  0.736772181423177  0.3818792151134291  0.07580385254122748  1.0000
  H   H4        1.0  0.2632214435470601  0.6181234580319811  0.9241961531012206  1.0000
  H   H5        1.0  0.8720539524320756  0.25645565453665853  0.8996845835446408  1.0000
  H   H6        1.0  0.12793708572569065  0.743548273927644  0.10031315998079285  1.0000
  H   H7        1.0  0.8219022559070053  0.9603238728335629  0.9273358637247142  1.0000
  H   H8        1.0  0.17809513561066123  0.039678797154557806  0.0726639017233524  1.0000
  H   H9        1.0  0.08499781086391069  0.15300463547696813  0.20689519316700705  1.0000
  H   H10       1.0  0.9150034763116107  0.846995497372632  0.7931041100378379  1.0000
  H   H11       1.0  0.0030336997875508947  0.3656360777832576  0.1576554333104525  1.0000
  H   H12       1.0  0.9969675873879708  0.6343640550663424  0.8423438698943997  1.0000
  H   H13       1.0  0.9326464386519929  0.18490176935873143  0.418482673556447  1.0000
  H   H14       1.0  0.06735484852352869  0.8150983634908758  0.5815166296483979  1.0000
  H   H15       1.0  0.15247874466018627  0.1403616265573362  0.44673855432070303  1.0000
  H   H16       1.0  0.8475212825092696  0.8596385018340627  0.5532598156405301  1.0000
  H   H17       1.0  0.8075857254097939  0.45475218065033834  0.4077128489632997  1.0000
  H   H18       1.0  0.19241562856606714  0.5452466879639672  0.5922868498713356  1.0000
  H   H19       1.0  0.9354128936410575  0.5551381852237044  0.24831724464452518  1.0000
  H   H20       1.0  0.06458846033480371  0.44486068339060125  0.7516824541901101  1.0000
  H   H21       1.0  0.16454780158699828  0.24324303754341514  0.6294251301107678  1.0000
  H   H22       1.0  0.8354534855885232  0.7567570953061848  0.37057417309408436  1.0000
  H   H23       1.0  0.94112538308417  0.2729202678728342  0.6313917147699328  1.0000
  H   H24       1.0  0.05887597089169111  0.7270786007414715  0.36860798406470263  1.0000
  H   H25       1.0  0.29539642283268813  0.332100120512102  0.08623157147445688  1.0000
  H   H26       1.0  0.7046061866589851  0.667898747049776  0.9137680472953846  1.0000
  C   C1        1.0  0.5894669061821672  0.9929432797001639  0.2209633155642053  1.0000
  C   C2        1.0  0.41053312996779556  0.007056859712498901  0.7790370810138469  1.0000
  C   C3        1.0  0.6173786630413147  0.15607074324139353  0.21032955212068316  1.0000
  C   C4        1.0  0.38262012208309654  0.8439294027343324  0.7896719378305761  1.0000
  C   C5        1.0  0.7191498496226743  0.2507061996663681  0.09117169012228027  1.0000
  C   C6        1.0  0.2808463531795198  0.7492952071388856  0.9088285510203633  1.0000
  C   C7        1.0  0.7933731206172466  0.17995214732520987  0.9916504666468383  1.0000
  C   C8        1.0  0.2066217553785492  0.8200505192571373  0.008348445622409838  1.0000
  C   C9        1.0  0.766229660989957  0.013773217722153704  0.006411166435014983  1.0000
  C   C10       1.0  0.23376773052770977  0.9862294522659667  0.9935885990130516  1.0000
  C   C11       1.0  0.6609473241056988  0.9202408718664543  0.12202858520567621  1.0000
  C   C12       1.0  0.3390539052499974  0.07976053623971072  0.877972348986205  1.0000
  C   C13       1.0  0.6068366479905407  0.7440638304905535  0.158020011492205  1.0000
  C   C14       1.0  0.3931645813651484  0.25593757761561164  0.8419809226996761  1.0000
  C   C15       1.0  0.09604590615563069  0.2723457502178093  0.22462110607943228  1.0000
  C   C16       1.0  0.9039553810198838  0.7276543826317978  0.7753781971254199  1.0000
  C   C17       1.0  0.058458599076004675  0.23622158781770258  0.3857705028020391  1.0000
  C   C18       1.0  0.9415427593901028  0.7637772863072316  0.6142302093410023  1.0000
  C   C19       1.0  0.9295830771391919  0.5133551119416213  0.3677221084277206  1.0000
  C   C20       1.0  0.07041702132084988  0.4866437577251191  0.6322776704717086  1.0000
  C   C21       1.0  0.06004616315920691  0.33550755562774265  0.5867821114789676  1.0000
  C   C22       1.0  0.9399539353008348  0.6644913140389975  0.41321766742046145  1.0000
  S   S1        1.0  0.4626338549757919  0.842573006952428  0.3513574221721427  1.0000
  S   S2        1.0  0.5373649211681126  0.15742712800203412  0.6486420411622902  1.0000
  N   N1        1.0  0.4987099994264667  0.6955136985776708  0.27802587198524975  1.0000
  N   N2        1.0  0.501291287749055  0.3044864342719364  0.7219734312195953  1.0000
  N   N3        1.0  0.06923278880344699  0.38699203102957835  0.42598884995028635  1.0000
  N   N4        1.0  0.9307672428562624  0.6130081028724561  0.5740105333193526  1.0000
  O   O1        1.0  0.6553925353442125  0.6506812452470143  0.0880951524074902  1.0000
  O   O2        1.0  0.3446151675012956  0.349316359380481  0.9119055550413647  1.0000
  O   O3        1.0  0.5340854368445775  0.7863508617285646  0.4942505505290526  1.0000
  O   O4        1.0  0.46591215956435406  0.21364802106429442  0.5057514151167837  1.0000
  O   O5        1.0  0.28619946402159246  0.8987451696288106  0.34714707089536745  1.0000
  O   O6        1.0  0.7138005631478634  0.1012549587625884  0.6528512990658726  1.0000
  O   O7        1.0  0.2614571217753364  0.3307342929906198  0.1859216310540859  1.0000
  O   O8        1.0  0.7385429811749589  0.6692645821867487  0.8140791611537563  1.0000
