data_image0
_chemical_formula_structural       Al2H12C27S6O12
_chemical_formula_sum              "Al2 H12 C27 S6 O12"
_cell_length_a       3.96345486407155
_cell_length_b       20.120370417216126
_cell_length_c       20.12042136767056
_cell_angle_alpha    119.99992255833087
_cell_angle_beta     89.99943077460864
_cell_angle_gamma    90.00060425319641

_space_group_name_H-M_alt    "P 1"
_space_group_IT_number       1

loop_
  _space_group_symop_operation_xyz
  'x, y, z'

loop_
  _atom_site_type_symbol
  _atom_site_label
  _atom_site_symmetry_multiplicity
  _atom_site_fract_x
  _atom_site_fract_y
  _atom_site_fract_z
  _atom_site_occupancy
  Al  Al1       1.0  0.0020697231436202002  0.5000012982941937  0.49999872958067465  1.0000
  Al  Al2       1.0  0.0037405780224304  0.16666808100193  0.8333332411348237  1.0000
  H   H1        1.0  0.463198954663291  0.17596256380213043  0.6137564973869302  1.0000
  H   H2        1.0  0.46321134921739576  0.9377946332346168  0.8240377654855423  1.0000
  H   H3        1.0  0.46319546965332153  0.3862432063051955  0.06220458028041525  1.0000
  H   H4        1.0  0.7160003444699543  0.5432525600889663  0.7314997936197616  1.0000
  H   H5        1.0  0.48747538703300125  0.5241008040482882  0.7961434049461715  1.0000
  H   H6        1.0  0.2714891923907175  0.5419066197363166  0.7289223092220213  1.0000
  H   H7        1.0  0.7159933220329223  0.6882507757011566  0.45674789053936143  1.0000
  H   H8        1.0  0.48747725787794144  0.7720471911625708  0.47589976487592633  1.0000
  H   H9        1.0  0.2714820757757721  0.6870194906930535  0.45809343034011374  1.0000
  H   H10       1.0  0.7159984400520688  0.26850005698725693  0.3117502436123374  1.0000
  H   H11       1.0  0.48748100490449536  0.20385575157762753  0.2279543261861718  1.0000
  H   H12       1.0  0.2714872972433326  0.2710764502425818  0.3129808810402963  1.0000
  C   C1        1.0  0.5024401106240929  0.44140522249713127  0.38206588930874824  1.0000
  C   C2        1.0  0.5024382399191439  0.44066175758135967  0.5585935111573049  1.0000
  C   C3        1.0  0.5024429052001126  0.617934601804343  0.5593352954651891  1.0000
  C   C4        1.0  0.5033279381965843  0.22528654852151675  0.7741296537250834  1.0000
  C   C5        1.0  0.5033182159076119  0.0488460659250335  0.7747155012678916  1.0000
  C   C6        1.0  0.5033260902184438  0.22586973393227766  0.9511546449873051  1.0000
  C   C7        1.0  0.49793634754670535  0.42993210504918994  0.6800044178331178  1.0000
  C   C8        1.0  0.4813529401118047  0.23729825580653593  0.6536811761148867  1.0000
  C   C9        1.0  0.5016236482319556  0.39826569644844767  0.6009297167557435  1.0000
  C   C10       1.0  0.5004336457278455  0.26809524716245636  0.7321819863997092  1.0000
  C   C11       1.0  0.5026369044574042  0.2956357007427144  0.6340995841691425  1.0000
  C   C12       1.0  0.5128178007713656  0.37022689795509206  0.6981258034185629  1.0000
  C   C13       1.0  0.4979323916939294  0.7500750199959256  0.5700679512025532  1.0000
  C   C14       1.0  0.48135808838655  0.9163836604206779  0.7627020575308522  1.0000
  C   C15       1.0  0.5016367168917739  0.7026669810200161  0.6017335738358511  1.0000
  C   C16       1.0  0.5004293337212362  0.9640898997650496  0.7319062033640054  1.0000
  C   C17       1.0  0.5026394131010435  0.8384657017010324  0.7043643603203122  1.0000
  C   C18       1.0  0.5128114020925383  0.8279024473677765  0.629774483537986  1.0000
  C   C19       1.0  0.49794157667928834  0.3199960710429862  0.24992568122883801  1.0000
  C   C20       1.0  0.48134976157838605  0.34631988522719576  0.0836152115904127  1.0000
  C   C21       1.0  0.5016362382951627  0.3990701066970601  0.2973331848256749  1.0000
  C   C22       1.0  0.5004256605197739  0.2678171938435199  0.035910716661710806  1.0000
  C   C23       1.0  0.5026353321228643  0.36590123017229104  0.16153467084360076  1.0000
  C   C24       1.0  0.5128189369087935  0.3018746677226217  0.17209794542993248  1.0000
  C   C25       1.0  0.49282797345156854  0.5141434633850323  0.737316021612898  1.0000
  C   C26       1.0  0.49282711179539973  0.7231763739954361  0.4858567320165507  1.0000
  C   C27       1.0  0.492830217038403  0.2626837112156862  0.276823948378123  1.0000
  S   S1        1.0  0.5145377732392833  0.2985527791307802  0.5500870023379675  1.0000
  S   S2        1.0  0.5361967599988378  0.3675352938334056  0.7823184732452829  1.0000
  S   S3        1.0  0.514563652199449  0.7515347553205842  0.7014460737977616  1.0000
  S   S4        1.0  0.5361720400012046  0.9147868445102957  0.632465969614451  1.0000
  S   S5        1.0  0.5145492460957399  0.44991413057069707  0.24846452281470732  1.0000
  S   S6        1.0  0.5361797974210205  0.2176810656813757  0.08521460649363634  1.0000
  O   O1        1.0  0.7361165463088498  0.5839503868100164  0.5747293422314641  1.0000
  O   O2        1.0  0.7361180166316289  0.49078229851753713  0.416048969976572  1.0000
  O   O3        1.0  0.7361089310587376  0.42526983494107634  0.5092175128749759  1.0000
  O   O4        1.0  0.26863964182354755  0.5842121227200181  0.5099521643321553  1.0000
  O   O5        1.0  0.2686305144476933  0.4900461780921005  0.5742555072010802  1.0000
  O   O6        1.0  0.26863274216167105  0.4257433364079687  0.4157868895083894  1.0000
  O   O7        1.0  0.7384361593404521  0.1767939749684472  0.9176943383579469  1.0000
  O   O8        1.0  0.738442717467059  0.2409029523199776  0.8232066742131892  1.0000
  O   O9        1.0  0.738435069648155  0.08230643955884882  0.7590988429560283  1.0000
  O   O10       1.0  0.2706666893002705  0.24149332733460926  0.9172502195776175  1.0000
  O   O11       1.0  0.2706597537371352  0.08275052120713147  0.8242416463226404  1.0000
  O   O12       1.0  0.2706688860095738  0.17575892155647202  0.7585064391879044  1.0000
