data_image0
_chemical_formula_structural       Zn2H14C42N6Cl10O8
_chemical_formula_sum              "Zn2 H14 C42 N6 Cl10 O8"
_cell_length_a       15.31580386205743
_cell_length_b       15.890974994248612
_cell_length_c       17.22115449173928
_cell_angle_alpha    86.42947983267099
_cell_angle_beta     90.0718948442742
_cell_angle_gamma    87.04985006234303

_space_group_name_H-M_alt    "P 1"
_space_group_IT_number       1

loop_
  _space_group_symop_operation_xyz
  'x, y, z'

loop_
  _atom_site_type_symbol
  _atom_site_label
  _atom_site_symmetry_multiplicity
  _atom_site_fract_x
  _atom_site_fract_y
  _atom_site_fract_z
  _atom_site_occupancy
  Zn  Zn1       1.0  0.49455245591125424  0.5885704433420643  0.501694611675255  1.0000
  Zn  Zn2       1.0  0.5054509058346212  0.41143263597248136  0.4983057588308452  1.0000
  H   H1        1.0  0.5802996004751863  0.8895534116868759  0.4258552522276771  1.0000
  H   H2        1.0  0.4197011765546321  0.11044905370742698  0.5741445750918998  1.0000
  H   H3        1.0  0.6039570868780116  0.28807045797132963  0.40440153797733547  1.0000
  H   H4        1.0  0.39604437514107366  0.7119313701400144  0.5955989037088327  1.0000
  H   H5        1.0  0.0763795551027115  0.6028338850058502  0.32108865297914235  1.0000
  H   H6        1.0  0.9236238773614643  0.39716731935743604  0.6789065934620877  1.0000
  H   H7        1.0  0.9157747136586848  0.604317719296489  0.32039837777654856  1.0000
  H   H8        1.0  0.08423013592955189  0.3956809605333759  0.6795946813546008  1.0000
  H   H9        1.0  0.584607866697219  0.5742625562467581  0.8968595770636721  1.0000
  H   H10       1.0  0.4153315825887702  0.42575348487724085  0.10315005798751996  1.0000
  H   H11       1.0  0.5689659354053163  0.6293690117730789  0.25442386610077955  1.0000
  H   H12       1.0  0.43100523265518115  0.3706380557200433  0.7455728529976111  1.0000
  H   H13       1.0  0.5835400975451178  0.7301035187914592  0.42270026932259686  1.0000
  H   H14       1.0  0.41645934138497853  0.26989958771093103  0.577298944439512  1.0000
  C   C1        1.0  0.4936122309883616  0.5166192886333505  0.3483469816333197  1.0000
  C   C2        1.0  0.5063784021395537  0.48339079961706205  0.6516553493031975  1.0000
  C   C3        1.0  0.9525755793077124  0.575117073787908  0.3699937193738306  1.0000
  C   C4        1.0  0.04742795990659232  0.4248816179292589  0.6299981797768834  1.0000
  C   C5        1.0  0.4886264441903593  0.5225599724321198  0.2610317283927585  1.0000
  C   C6        1.0  0.5113473931088919  0.47744642088042605  0.7389725722368252  1.0000
  C   C7        1.0  0.4430342838117057  0.46610210146285874  0.217610526857598  1.0000
  C   C8        1.0  0.556928533055924  0.5339030708946948  0.7824002450722316  1.0000
  C   C9        1.0  0.4496242021097316  0.46929757571162867  0.13721630783582128  1.0000
  C   C10       1.0  0.5503272693086884  0.5307127166246987  0.862793041239328  1.0000
  C   C11       1.0  0.5011924499708725  0.5285050782313903  0.09732389163948336  1.0000
  C   C12       1.0  0.4987584154826196  0.471503967962569  0.9026820422015259  1.0000
  C   C13       1.0  0.5424244572940253  0.5882819449532093  0.14021147871120118  1.0000
  C   C14       1.0  0.4575385668443275  0.41171820846765417  0.8597908562396055  1.0000
  C   C15       1.0  0.5358344435078308  0.5844773936803447  0.2209878997882341  1.0000
  C   C16       1.0  0.46413891118870504  0.41552522389557806  0.7790142847113299  1.0000
  C   C17       1.0  0.45912848997453887  0.23553703245106308  0.5382401715414458  1.0000
  C   C18       1.0  0.5408716041425236  0.7644660681076799  0.4617596222108771  1.0000
  C   C19       1.0  0.4608656949549754  0.1486705098422192  0.5361523970293971  1.0000
  C   C20       1.0  0.5391350266232706  0.851333213993655  0.46384852313610725  1.0000
  C   C21       1.0  0.5172234344743529  0.10852544795262278  0.4839237668710296  1.0000
  C   C22       1.0  0.48277802962124383  0.8914763780402027  0.516077255614462  1.0000
  C   C23       1.0  0.6700754812670767  0.500774375094558  0.4980168869454855  1.0000
  C   C24       1.0  0.3299263892145703  0.49923250626164156  0.5019815365226561  1.0000
  C   C25       1.0  0.5698227208869184  0.15913582370647109  0.4350123854559483  1.0000
  C   C26       1.0  0.43017936444032756  0.8408666319190414  0.5649880210447404  1.0000
  C   C27       1.0  0.5642964196625472  0.24667435415637579  0.44097570573792655  1.0000
  C   C28       1.0  0.43570498275194325  0.7533287366335769  0.5590246671955085  1.0000
  C   C29       1.0  0.1865045847647764  0.4627644187553344  0.5645528973748737  1.0000
  C   C30       1.0  0.8134970526462267  0.5372330238771496  0.4354384921565779  1.0000
  C   C31       1.0  0.23148876337175753  0.49875013006004554  0.5012390909158311  1.0000
  C   C32       1.0  0.7685139861796629  0.5012517094676809  0.49875612195814495  1.0000
  C   C33       1.0  0.18380172870200787  0.5348503987712191  0.4370936904546594  1.0000
  C   C34       1.0  0.8161995739230505  0.4651545966292402  0.5629036753530414  1.0000
  C   C35       1.0  0.0916119257169328  0.5367003450626981  0.4347800462298394  1.0000
  C   C36       1.0  0.9083901090429265  0.4633027630872916  0.5652145179011894  1.0000
  C   C37       1.0  0.04671700083538613  0.49962050422099935  0.5001857740369571  1.0000
  C   C38       1.0  0.9532870445544077  0.5003813382490421  0.4998065332221484  1.0000
  C   C39       1.0  0.09446465727990731  0.46175810126035083  0.566047855264692  1.0000
  C   C40       1.0  0.9055389096601871  0.5382399612360231  0.4339434974630618  1.0000
  C   C41       1.0  0.041730252647624914  0.5743112852330653  0.3703640716734283  1.0000
  C   C42       1.0  0.9582724927507797  0.4256905585316985  0.629629979601894  1.0000
  N   N1        1.0  0.5129382778478728  0.5318737190238778  0.0163547375133319  1.0000
  N   N2        1.0  0.48699874269422594  0.4681379434477363  0.9836481718169091  1.0000
  N   N3        1.0  0.5104821646476124  0.28307993371381457  0.4915129644296029  1.0000
  N   N4        1.0  0.48951792946945005  0.7169231668449284  0.5084868293227272  1.0000
  N   N5        1.0  0.5249877373072778  0.0204961110573834  0.4774361319261258  1.0000
  N   N6        1.0  0.47501432029417867  0.979506973788922  0.5225648209975231  1.0000
  Cl  Cl1       1.0  0.24656670426054458  0.42009421731857793  0.6444167272234862  1.0000
  Cl  Cl2       1.0  0.7534343437976148  0.5799019622233885  0.3555758934684547  1.0000
  Cl  Cl3       1.0  0.6401657281157681  0.11729248113000776  0.36874909043796567  1.0000
  Cl  Cl4       1.0  0.3598376460891616  0.8827105854734327  0.6312547648641169  1.0000
  Cl  Cl5       1.0  0.24051485178316773  0.5769723244148467  0.35830885292909187  1.0000
  Cl  Cl6       1.0  0.7594901927673873  0.42303643395212015  0.6416888825650771  1.0000
  Cl  Cl7       1.0  0.6246861712834715  0.6063067029832537  0.7383161457277649  1.0000
  Cl  Cl8       1.0  0.37528771792851495  0.39369963736636737  0.2617026748850505  1.0000
  Cl  Cl9       1.0  0.6034086350800082  0.6648213537099109  0.09438871402942789  1.0000
  Cl  Cl10      1.0  0.3965450674292939  0.33518203961862264  0.905605329176502  1.0000
  O   O1        1.0  0.4918252188371639  0.5856815944777124  0.38219883512124386  1.0000
  O   O2        1.0  0.5081696288999566  0.4143221595473462  0.6178032539249256  1.0000
  O   O3        1.0  0.5024040662728737  0.44271873240757026  0.3804492677049395  1.0000
  O   O4        1.0  0.49759532551168206  0.5572856240623311  0.6195533621004115  1.0000
  O   O5        1.0  0.6290738947804827  0.5715562501122945  0.5028557384649728  1.0000
  O   O6        1.0  0.3709288547709377  0.428445589415432  0.4971394744090032  1.0000
  O   O7        1.0  0.6378474901157463  0.4294559335260287  0.4929114314948462  1.0000
  O   O8        1.0  0.3621547483760068  0.5705433611659243  0.5070903084863259  1.0000
