data_image0
_chemical_formula_structural       Zn16H64C144O96
_chemical_formula_sum              "Zn16 H64 C144 O96"
_cell_length_a       13.729587971003916
_cell_length_b       19.664639324241314
_cell_length_c       19.664608828246305
_cell_angle_alpha    89.99791951302784
_cell_angle_beta     89.99991554283069
_cell_angle_gamma    89.99998122091624

_space_group_name_H-M_alt    "P 1"
_space_group_IT_number       1

loop_
  _space_group_symop_operation_xyz
  'x, y, z'

loop_
  _atom_site_type_symbol
  _atom_site_label
  _atom_site_symmetry_multiplicity
  _atom_site_fract_x
  _atom_site_fract_y
  _atom_site_fract_z
  _atom_site_occupancy
  Zn  Zn1       1.0  0.3799298322268996  0.9895784007569833  0.4672278472797161  1.0000
  Zn  Zn2       1.0  0.8799253314196421  0.010424691598998904  0.5327712067142656  1.0000
  Zn  Zn3       1.0  0.1299188878582456  0.032757525099846405  0.48957836260950693  1.0000
  Zn  Zn4       1.0  0.6299183572222233  0.9672466417433725  0.510422474272609  1.0000
  Zn  Zn5       1.0  0.3700784288646091  0.5104245072887751  0.967243446780117  1.0000
  Zn  Zn6       1.0  0.8700813148892763  0.48957553610394916  0.0327591770995781  1.0000
  Zn  Zn7       1.0  0.6200728075874906  0.46722978989839703  0.989575591581236  1.0000
  Zn  Zn8       1.0  0.12007411608281161  0.5327698024738368  0.0104247469893792  1.0000
  Zn  Zn9       1.0  9.93885009999998e-08  0.48787550384765416  0.4878782944858033  1.0000
  Zn  Zn10      1.0  0.4999975927852915  0.5121256417122171  0.5121216591168507  1.0000
  Zn  Zn11      1.0  0.7499945130562224  0.012117975129484598  0.9878797110326544  1.0000
  Zn  Zn12      1.0  0.2500021604808325  0.9878795533103361  0.012118459737777702  1.0000
  Zn  Zn13      1.0  0.2500025145872868  0.532524007420264  0.46747623745451256  1.0000
  Zn  Zn14      1.0  0.7499999857807609  0.46747708070787314  0.5325219332482903  1.0000
  Zn  Zn15      1.0  4.3281847582e-06  0.03253140701446711  0.032531457455299104  1.0000
  Zn  Zn16      1.0  0.4999984624678788  0.967467704446058  0.9674679876538762  1.0000
  H   H1        1.0  0.5883115274289424  0.9156961573745193  0.15127364823314343  1.0000
  H   H2        1.0  0.6543170278648206  0.9064952692643972  0.26890490332574063  1.0000
  H   H3        1.0  0.40204133953201904  0.6744600595745922  0.4069313151409661  1.0000
  H   H4        1.0  0.40086932174572354  0.6697641727972865  0.4991452871836728  1.0000
  H   H5        1.0  0.2843541442688958  0.0667460669644484  0.31377452493963187  1.0000
  H   H6        1.0  0.961488473938914  0.7358636905098025  0.4867031748103373  1.0000
  H   H7        1.0  0.0336703566363497  0.8516217174893866  0.4929991587213325  1.0000
  H   H8        1.0  0.5398105439414494  0.5083033829369654  0.8293296451619272  1.0000
  H   H9        1.0  0.08831273250293488  0.08430344236223422  0.8487231633335101  1.0000
  H   H10       1.0  0.1543162919048271  0.09350329825740292  0.731091331796023  1.0000
  H   H11       1.0  0.9020423910089689  0.3255404850637476  0.5930677161379168  1.0000
  H   H12       1.0  0.9008683806356929  0.3302384062278847  0.5008532367378323  1.0000
  H   H13       1.0  0.7843488882646664  0.933255521823476  0.6862220848153628  1.0000
  H   H14       1.0  0.4614866613137353  0.2641373489743443  0.5132968123300402  1.0000
  H   H15       1.0  0.5336694875371535  0.1483773862606199  0.5069987261509469  1.0000
  H   H16       1.0  0.039810804987773514  0.4916967364095086  0.1706707760104109  1.0000
  H   H17       1.0  0.33831990198650885  0.3487239558219954  0.4157210623962089  1.0000
  H   H18       1.0  0.40432337657895795  0.2310926673033791  0.4065127088499665  1.0000
  H   H19       1.0  0.1520152809577553  0.09310098879928572  0.1744746235519727  1.0000
  H   H20       1.0  0.15087397679960904  0.0008868228383392003  0.16975919461421543  1.0000
  H   H21       1.0  0.03429827543654081  0.18621941318556176  0.5667091202635746  1.0000
  H   H22       1.0  0.7114850467387015  0.0132625967662321  0.23586831072731232  1.0000
  H   H23       1.0  0.7836648051276638  0.006986789197320302  0.351629144336144  1.0000
  H   H24       1.0  0.2897951298484998  0.6706869209745892  0.0082537931661051  1.0000
  H   H25       1.0  0.8383200914468318  0.6512791461430539  0.5842754917837001  1.0000
  H   H26       1.0  0.9043198498564706  0.7689099109097556  0.593486828573333  1.0000
  H   H27       1.0  0.652018483444671  0.9068991047859143  0.8255241565480915  1.0000
  H   H28       1.0  0.6508720277626593  0.9991122539742322  0.830238569626083  1.0000
  H   H29       1.0  0.5342994360523434  0.8137822330179533  0.43329079802635556  1.0000
  H   H30       1.0  0.21148673703176255  0.9867369746331179  0.7641298996453543  1.0000
  H   H31       1.0  0.2836667368651149  0.9930153082382847  0.648369500226565  1.0000
  H   H32       1.0  0.7897887827424698  0.3293095812098628  0.9917473878316869  1.0000
  H   H33       1.0  0.16168137689549406  0.5842775414038357  0.6512750838269811  1.0000
  H   H34       1.0  0.09567854154663989  0.5934863628410341  0.7689065811395538  1.0000
  H   H35       1.0  0.3479830726901055  0.8255241891380722  0.9069004068524437  1.0000
  H   H36       1.0  0.34912721835197397  0.8302401197852948  0.9991136982961707  1.0000
  H   H37       1.0  0.46570056072866356  0.4332913647815247  0.8137822996026076  1.0000
  H   H38       1.0  0.7885133386177756  0.7641307671834525  0.9867381231739077  1.0000
  H   H39       1.0  0.71633202322095  0.6483721183464014  0.9930144778441915  1.0000
  H   H40       1.0  0.2102103903047663  0.9917467407080736  0.3293105827802948  1.0000
  H   H41       1.0  0.6616814453457351  0.4157220414238836  0.3487241948628253  1.0000
  H   H42       1.0  0.5956788626271816  0.40651221809321925  0.23109327403019367  1.0000
  H   H43       1.0  0.8479837935155174  0.17447280817120261  0.09310223982554791  1.0000
  H   H44       1.0  0.8491288644022389  0.16976043694989332  0.0008889471390958  1.0000
  H   H45       1.0  0.9656994449741773  0.5667081481349925  0.18621870028536594  1.0000
  H   H46       1.0  0.28851332316182265  0.2358682779667873  0.013261024982604404  1.0000
  H   H47       1.0  0.21633196691666973  0.3516289774647349  0.006986778679618103  1.0000
  H   H48       1.0  0.7102055993596534  0.008257407727960204  0.6706876288245667  1.0000
  H   H49       1.0  0.4116865164754627  0.15127672046668297  0.9156969245666531  1.0000
  H   H50       1.0  0.34568306131401266  0.26890783467815993  0.9064965722413733  1.0000
  H   H51       1.0  0.5979603275534444  0.40693183950811124  0.6744583012567347  1.0000
  H   H52       1.0  0.5991322325121048  0.4991456677969028  0.6697629149661709  1.0000
  H   H53       1.0  0.7156462413043415  0.3137761365281763  0.0667473603359312  1.0000
  H   H54       1.0  0.03851228278990249  0.48670189355163274  0.7358633966897018  1.0000
  H   H55       1.0  0.9663302427419893  0.4929977921395051  0.851621527600621  1.0000
  H   H56       1.0  0.4601886077370736  0.8293290926027835  0.5083034877004878  1.0000
  H   H57       1.0  0.9116883975003277  0.8487228049376939  0.08430006269176721  1.0000
  H   H58       1.0  0.8456842495314234  0.7310927229317699  0.09350149998896742  1.0000
  H   H59       1.0  0.09795730087088121  0.5930667409205629  0.3255405345106226  1.0000
  H   H60       1.0  0.0991336091325863  0.5008534208704489  0.3302369366390679  1.0000
  H   H61       1.0  0.21564771500211316  0.6862229253139491  0.9332549139854438  1.0000
  H   H62       1.0  0.5385117558592185  0.513296192003793  0.2641360088006479  1.0000
  H   H63       1.0  0.46632835863480426  0.5070007036060816  0.1483779460747456  1.0000
  H   H64       1.0  0.9601892172344576  0.1706719471890707  0.4916959922487437  1.0000
  C   C1        1.0  0.569334738317785  0.9454768348786048  0.38588393723486564  1.0000
  C   C2        1.0  0.2206752413494613  0.8895757806650978  0.4835158557594283  1.0000
  C   C3        1.0  0.41291008455578987  0.9597445221489881  0.1097928357414162  1.0000
  C   C4        1.0  0.39107607988566434  0.9680118587981001  0.23823308552084654  1.0000
  C   C5        1.0  0.4469030192404304  0.9513133634110603  0.18154980170500326  1.0000
  C   C6        1.0  0.42931241011700655  0.96350816013247  0.3041210588093435  1.0000
  C   C7        1.0  0.542737641864079  0.927780006075892  0.19490310227327265  1.0000
  C   C8        1.0  0.5239904057807792  0.9428428921990957  0.3176395794309812  1.0000
  C   C9        1.0  0.5797976810840383  0.9233129330115729  0.2601564328244877  1.0000
  C   C10       1.0  0.181595431460515  0.8187945275415558  0.4776385797493958  1.0000
  C   C11       1.0  0.19680714788746914  0.6962102823220064  0.46344982112519534  1.0000
  C   C12       1.0  0.36053239483231897  0.6851006562917237  0.45341922798101575  1.0000
  C   C13       1.0  0.0978908443370017  0.6842592382216994  0.4723996695277037  1.0000
  C   C14       1.0  0.05287420926718059  0.6158119291370596  0.47729398977390497  1.0000
  C   C15       1.0  0.23831529461438092  0.7612228621971229  0.4661712771768975  1.0000
  C   C16       1.0  0.28003502153509885  0.010810696730651204  0.3106674208829574  1.0000
  C   C17       1.0  0.0396509089972952  0.7431434612989067  0.48114734244921936  1.0000
  C   C18       1.0  0.0798778811501819  0.8075427565243347  0.48393695301834344  1.0000
  C   C19       1.0  0.0693320824622674  0.05452378629258452  0.6141118767917035  1.0000
  C   C20       1.0  0.720675098318388  0.11042531417552232  0.5164838707107792  1.0000
  C   C21       1.0  0.9129128271350169  0.0402539858923774  0.8902056758590221  1.0000
  C   C22       1.0  0.8910718139351204  0.0319876713439982  0.7617639229541526  1.0000
  C   C23       1.0  0.946901539239377  0.048686662408236714  0.8184481663546848  1.0000
  C   C24       1.0  0.9293097378622336  0.03649390384713771  0.6958764187914854  1.0000
  C   C25       1.0  0.042736031271879  0.0722196041079854  0.8050952817853843  1.0000
  C   C26       1.0  0.023988332979413895  0.05715926496552731  0.6823567897663098  1.0000
  C   C27       1.0  0.07979547780564639  0.07668717720934382  0.7398403874976085  1.0000
  C   C28       1.0  0.6815937862377625  0.18120657629039985  0.5223606784169308  1.0000
  C   C29       1.0  0.6968054154269152  0.3037882753787713  0.5365494214305856  1.0000
  C   C30       1.0  0.8605320927120346  0.3148998978777726  0.5465803545496827  1.0000
  C   C31       1.0  0.5978876684767158  0.31574137632171784  0.5275996748020972  1.0000
  C   C32       1.0  0.5528710117505469  0.38418920424285125  0.5227074349914673  1.0000
  C   C33       1.0  0.7383157833430687  0.23877619450881585  0.5338269055904235  1.0000
  C   C34       1.0  0.7800297328316644  0.9891914015677372  0.6893297018360869  1.0000
  C   C35       1.0  0.5396492358290673  0.25685716662994923  0.5188520618236154  1.0000
  C   C36       1.0  0.5798784290275307  0.1924578621586761  0.5160624098494964  1.0000
  C   C37       1.0  0.3193310088597272  0.11411143600787452  0.44548183518247714  1.0000
  C   C38       1.0  0.9706703747716146  0.016474683835284103  0.3895858983560956  1.0000
  C   C39       1.0  0.16291254263371974  0.3901981301915996  0.4597416160429121  1.0000
  C   C40       1.0  0.1410590312202515  0.26175931917008205  0.4679846519824268  1.0000
  C   C41       1.0  0.1968895529753638  0.3184430859664431  0.45130337418233074  1.0000
  C   C42       1.0  0.1793034619723102  0.1958756554746657  0.46349552811668115  1.0000
  C   C43       1.0  0.2927416926286668  0.3050931425659443  0.4277902594365344  1.0000
  C   C44       1.0  0.2739873188759248  0.18235225270721142  0.4428352580042016  1.0000
  C   C45       1.0  0.32979599281306093  0.23983801798922147  0.42332248293865865  1.0000
  C   C46       1.0  0.9315869737137916  0.0223474261778733  0.3188012865903148  1.0000
  C   C47       1.0  0.9468031427178616  0.03654823230682071  0.19621785533516345  1.0000
  C   C48       1.0  0.1105216828905995  0.04660160038714172  0.18510575399106705  1.0000
  C   C49       1.0  0.8478875888914245  0.02759177477872751  0.18425902089455803  1.0000
  C   C50       1.0  0.8028768432147189  0.0226913308309094  0.11581637823240949  1.0000
  C   C51       1.0  0.9883061410452925  0.03381930838780531  0.26123010987154066  1.0000
  C   C52       1.0  0.030004687066949  0.189312781985997  0.5107684671463559  1.0000
  C   C53       1.0  0.789645431373465  0.0188277751333885  0.2431452020894298  1.0000
  C   C54       1.0  0.829868712421252  0.016040381835758004  0.3075472250020327  1.0000
  C   C55       1.0  0.8193245963186868  0.8858906531759346  0.5545198238415949  1.0000
  C   C56       1.0  0.47067384778119964  0.9835294047553093  0.6104110281089135  1.0000
  C   C57       1.0  0.6629099309871763  0.6098029779344573  0.5402576613533869  1.0000
  C   C58       1.0  0.6410571053080005  0.7382428110326061  0.5320146478879196  1.0000
  C   C59       1.0  0.6968883466901088  0.6815580143318558  0.5486968852977797  1.0000
  C   C60       1.0  0.6793014957926147  0.8041254488379368  0.5365062750477705  1.0000
  C   C61       1.0  0.7927404304673829  0.6949099698193637  0.5722093928224938  1.0000
  C   C62       1.0  0.773985302762668  0.8176488298621507  0.5571654306507625  1.0000
  C   C63       1.0  0.8297939623694432  0.7601650858428501  0.5766791652935412  1.0000
  C   C64       1.0  0.4315881149757601  0.9776541287607542  0.681195680148889  1.0000
  C   C65       1.0  0.44680548854502433  0.9634487424099308  0.8037780787696038  1.0000
  C   C66       1.0  0.6105241577413878  0.9533969772277117  0.8148890006223085  1.0000
  C   C67       1.0  0.34789209034804  0.9724052226536206  0.8157380320741086  1.0000
  C   C68       1.0  0.30288192624683324  0.977304151328511  0.8841827552023888  1.0000
  C   C69       1.0  0.488309351194637  0.9661791823525191  0.7387667985434448  1.0000
  C   C70       1.0  0.5300050026811504  0.8106893737498951  0.48923043849840303  1.0000
  C   C71       1.0  0.2896478679838808  0.9811712697840705  0.7568524193172551  1.0000
  C   C72       1.0  0.3298727403929221  0.9839596708815466  0.692450863513095  1.0000
  C   C73       1.0  0.18067223779831212  0.5545193649931478  0.8858910110159075  1.0000
  C   C74       1.0  0.5293257018247105  0.6104148399037471  0.9835271517863478  1.0000
  C   C75       1.0  0.33709456098604557  0.5402606858060679  0.609801283496985  1.0000
  C   C76       1.0  0.3589450466474489  0.5320156372878773  0.7382413020630807  1.0000
  C   C77       1.0  0.3031131284816979  0.5486953413089425  0.6815574697018435  1.0000
  C   C78       1.0  0.32069692366785313  0.5365047389389944  0.8041240661632971  1.0000
  C   C79       1.0  0.207260997182388  0.5722078727719833  0.6949064550669277  1.0000
  C   C80       1.0  0.2260123442746931  0.557162905032861  0.8176490533650167  1.0000
  C   C81       1.0  0.1702044619766667  0.5766766446084973  0.7601611871065758  1.0000
  C   C82       1.0  0.5684113509475991  0.6811978319358971  0.9776543847247795  1.0000
  C   C83       1.0  0.5531960227202289  0.8037790329410016  0.9634510200250335  1.0000
  C   C84       1.0  0.3894766238042634  0.8148925832731492  0.9533988337468103  1.0000
  C   C85       1.0  0.6521086655979997  0.8157394139566353  0.972407451876407  1.0000
  C   C86       1.0  0.6971172784372399  0.8841834940697029  0.9773068683349637  1.0000
  C   C87       1.0  0.5116907836550482  0.7387688967363744  0.9661804732719548  1.0000
  C   C88       1.0  0.46999492597147713  0.4892314243433946  0.810688415757163  1.0000
  C   C89       1.0  0.7103522242208838  0.7568548728992822  0.9811739844568593  1.0000
  C   C90       1.0  0.6701274312439478  0.6924524252577698  0.9839613981794176  1.0000
  C   C91       1.0  0.680669145854644  0.4454817389495961  0.1141138419070202  1.0000
  C   C92       1.0  0.029327064460169094  0.38958477326999497  0.016476331352969005  1.0000
  C   C93       1.0  0.8370901511878585  0.4597403822685139  0.3901988316779139  1.0000
  C   C94       1.0  0.8589430892039615  0.46798339166564773  0.26175828212995367  1.0000
  C   C95       1.0  0.8031125158763073  0.4513026833948859  0.3184436975576689  1.0000
  C   C96       1.0  0.8206994775284712  0.46349684144900755  0.19587504882058232  1.0000
  C   C97       1.0  0.7072604237461775  0.42779017398053315  0.30509379379338253  1.0000
  C   C98       1.0  0.7260134796311631  0.4428356459090352  0.18235270176860047  1.0000
  C   C99       1.0  0.6702040283852142  0.4233224277149077  0.2398390998758586  1.0000
  C   C100      1.0  0.0684120059103961  0.3188007552191295  0.0223480411486534  1.0000
  C   C101      1.0  0.05319961839786201  0.19621955770147545  0.03655193003514511  1.0000
  C   C102      1.0  0.8894796228828453  0.1851064385887042  0.046604787241157915  1.0000
  C   C103      1.0  0.1521108290680004  0.18426067959799042  0.02759183665585851  1.0000
  C   C104      1.0  0.1971216692956119  0.11581760617561801  0.022693390907875303  1.0000
  C   C105      1.0  0.0116958114225056  0.2612302119723111  0.0338225194977682  1.0000
  C   C106      1.0  0.9699938298279134  0.5107691046585856  0.18931156263676036  1.0000
  C   C107      1.0  0.2103507369086941  0.2431452072416249  0.0188267697131081  1.0000
  C   C108      1.0  0.17012883313354618  0.3075466470277349  0.0160419400480762  1.0000
  C   C109      1.0  0.43066660650722355  0.38588459957623666  0.9454781448180185  1.0000
  C   C110      1.0  0.7793224079089284  0.4835156386844802  0.8895752588213172  1.0000
  C   C111      1.0  0.5870850426202026  0.10979281067337608  0.9597482984613354  1.0000
  C   C112      1.0  0.608922512818026  0.238233356040908  0.9680161426737046  1.0000
  C   C113      1.0  0.5530956680679324  0.181551212362436  0.9513156224193083  1.0000
  C   C114      1.0  0.5706853751008083  0.3041207427582719  0.9635089013954784  1.0000
  C   C115      1.0  0.4572632436301731  0.19490455254898362  0.9277822889166104  1.0000
  C   C116      1.0  0.47601103042096327  0.31764133614076684  0.9428426439209903  1.0000
  C   C117      1.0  0.4202038544004409  0.2601578052534279  0.9233142151850657  1.0000
  C   C118      1.0  0.8184059583954024  0.4776368215890231  0.8187938713543232  1.0000
  C   C119      1.0  0.8031951466456065  0.46344911152527857  0.6962119882300399  1.0000
  C   C120      1.0  0.6394699269558188  0.45341914556117063  0.6851009224531097  1.0000
  C   C121      1.0  0.9021136391314427  0.47239684972974777  0.6842573036628893  1.0000
  C   C122      1.0  0.9471288994221965  0.4772921510383341  0.6158124027097572  1.0000
  C   C123      1.0  0.7616847275366679  0.4661695724764455  0.7612231694940235  1.0000
  C   C124      1.0  0.7199661685092026  0.3106680175041916  0.010811900656868502  1.0000
  C   C125      1.0  0.9603513022181502  0.4811459980060136  0.7431420898926862  1.0000
  C   C126      1.0  0.9201227867369468  0.483936138096958  0.8075425273601838  1.0000
  C   C127      1.0  0.9306701167380496  0.6141128872284086  0.054525942330137404  1.0000
  C   C128      1.0  0.2793220561993408  0.5164854426584925  0.1104254243416207  1.0000
  C   C129      1.0  0.0870919479446712  0.890205772207516  0.0402530911332946  1.0000
  C   C130      1.0  0.1089309523241013  0.7617626791396291  0.03198776712888221  1.0000
  C   C131      1.0  0.05310186077058179  0.8184473783397336  0.04868529363167081  1.0000
  C   C132      1.0  0.07069092246720741  0.6958763182925409  0.03649352216257991  1.0000
  C   C133      1.0  0.9572644421995874  0.8050954708703913  0.07221668553395233  1.0000
  C   C134      1.0  0.9760130464918647  0.6823566488154571  0.057158853908738615  1.0000
  C   C135      1.0  0.9202050740298092  0.7398407010748188  0.07668632302014093  1.0000
  C   C136      1.0  0.3184047261612831  0.5223622166632751  0.18120677161901713  1.0000
  C   C137      1.0  0.3031943773586362  0.5365519643586368  0.30378714477859603  1.0000
  C   C138      1.0  0.1394698578786588  0.5465804423530756  0.31489939615360646  1.0000
  C   C139      1.0  0.4021099353751367  0.5275996266950075  0.3157407105623165  1.0000
  C   C140      1.0  0.4471257818129003  0.522706857629075  0.3841881077756853  1.0000
  C   C141      1.0  0.2616855534714233  0.5338294788306331  0.23877651480335524  1.0000
  C   C142      1.0  0.21996970773363236  0.6893295177638238  0.989190369244824  1.0000
  C   C143      1.0  0.4603499119201402  0.5188530076499165  0.25685688139927276  1.0000
  C   C144      1.0  0.420120805341206  0.5160618597325238  0.19245750241156406  1.0000
  O   O1        1.0  0.5158341652339757  0.960029909074706  0.4395664363366692  1.0000
  O   O2        1.0  0.3585971981742161  0.9817237894953976  0.349996073166075  1.0000
  O   O3        1.0  0.3106582891362208  0.8991704013403494  0.4696277414014248  1.0000
  O   O4        1.0  0.15992976112317336  0.9345210990496828  0.5021760066588287  1.0000
  O   O5        1.0  0.10628224668791118  0.5612380394319915  0.4653526865816104  1.0000
  O   O6        1.0  0.47666878581502914  0.9471547185517153  0.0644252335542816  1.0000
  O   O7        1.0  0.29605136976895347  0.9896155624634418  0.241521899914261  1.0000
  O   O8        1.0  0.33707719220198135  0.7564794937866708  0.4561039878795868  1.0000
  O   O9        1.0  0.965472593416834  0.6084272201904711  0.4929105425249747  1.0000
  O   O10       1.0  0.26849832608264274  0.6492836372773283  0.4505299622204788  1.0000
  O   O11       1.0  0.32520898824084543  0.9783506967781292  0.09994744511633512  1.0000
  O   O12       1.0  0.6583963996448716  0.93519832795274  0.39409120796355523  1.0000
  O   O13       1.0  0.0158323578610222  0.0399742841094053  0.5604279071072683  1.0000
  O   O14       1.0  0.8585917178596671  0.018280833363157  0.6500019857018773  1.0000
  O   O15       1.0  0.8106595779787042  0.10083321547226383  0.5303708753507126  1.0000
  O   O16       1.0  0.6599289501304355  0.0654779755706301  0.49782785059360896  1.0000
  O   O17       1.0  0.606280455169113  0.4387605390561689  0.5346476662030852  1.0000
  O   O18       1.0  0.9766757968647967  0.0528437748997703  0.9355696527254197  1.0000
  O   O19       1.0  0.7960478492104172  0.010388057743838903  0.758474697763468  1.0000
  O   O20       1.0  0.8370791141712317  0.24352106583803845  0.5438920590968763  1.0000
  O   O21       1.0  0.4654678209246724  0.3915712756879373  0.5070924917291252  1.0000
  O   O22       1.0  0.7684972727720948  0.350717446590423  0.5494686979724223  1.0000
  O   O23       1.0  0.8252131754384705  0.021643763185451803  0.9000521738796792  1.0000
  O   O24       1.0  0.15839594137506913  0.06480074717690343  0.6059040058945444  1.0000
  O   O25       1.0  0.2658202960737839  0.0604264914113415  0.46002825769455324  1.0000
  O   O26       1.0  0.10858101067190519  0.1499934846684639  0.481701692300831  1.0000
  O   O27       1.0  0.060657619126388305  0.03034468831626921  0.39916830393761427  1.0000
  O   O28       1.0  0.9099093525652792  0.9978358862942546  0.43453366468703797  1.0000
  O   O29       1.0  0.8562783548994801  0.0346554130839962  0.0612455082256105  1.0000
  O   O30       1.0  0.2266864911779152  0.43556607888871207  0.447159782090516  1.0000
  O   O31       1.0  0.04602338229562259  0.2584641917191917  0.48957329084060325  1.0000
  O   O32       1.0  0.08706642506167131  0.04389341793861231  0.2564853179962725  1.0000
  O   O33       1.0  0.7154823893353496  0.007055795476659898  0.10842423865040732  1.0000
  O   O34       1.0  0.0184883682116563  0.04948154114297411  0.14928657736223983  1.0000
  O   O35       1.0  0.0752165168052485  0.40004898737361577  0.47835309078512017  1.0000
  O   O36       1.0  0.4083926892086183  0.10589890123314662  0.43521069422030223  1.0000
  O   O37       1.0  0.7658146175023715  0.9395766270419442  0.5399780331369826  1.0000
  O   O38       1.0  0.6085834316136244  0.8500086530352533  0.5182956068843299  1.0000
  O   O39       1.0  0.5606605382750445  0.9696625456811032  0.6008285359526156  1.0000
  O   O40       1.0  0.40991483577094096  0.002168216242687  0.5654643413711613  1.0000
  O   O41       1.0  0.3562804149006808  0.9653415823278101  0.9387566213859344  1.0000
  O   O42       1.0  0.7266838741704545  0.5644345060343597  0.5528404467308691  1.0000
  O   O43       1.0  0.546025870542323  0.7415374517985571  0.5104261068527195  1.0000
  O   O44       1.0  0.5870697776876457  0.9561021138957745  0.7435099693413036  1.0000
  O   O45       1.0  0.2154881778076785  0.9929402152683338  0.8915765103094274  1.0000
  O   O46       1.0  0.5184907687900235  0.9505150234794898  0.8507103061251018  1.0000
  O   O47       1.0  0.5752132206970018  0.5999495982454874  0.5216478025027272  1.0000
  O   O48       1.0  0.9083862511461405  0.8941016418816614  0.564791890219773  1.0000
  O   O49       1.0  0.234179252736304  0.5399745120220205  0.9395760174561121  1.0000
  O   O50       1.0  0.3914193222936575  0.5183001568211482  0.8500078054151886  1.0000
  O   O51       1.0  0.43933685650138443  0.6008334363467256  0.9696582937317473  1.0000
  O   O52       1.0  0.5900809384600548  0.5654656417348107  0.0021659287636098  1.0000
  O   O53       1.0  0.6437194632022027  0.9387557836251618  0.9653458399978021  1.0000
  O   O54       1.0  0.27331993171419106  0.5528429832538111  0.5644343069779083  1.0000
  O   O55       1.0  0.4539763049964876  0.5104265613611149  0.7415369051815262  1.0000
  O   O56       1.0  0.4129303640328886  0.7435126307850268  0.9561085366294151  1.0000
  O   O57       1.0  0.7845109971878373  0.8915746400699548  0.9929423930216288  1.0000
  O   O58       1.0  0.48150997028950127  0.8507122496756166  0.9505183431929612  1.0000
  O   O59       1.0  0.4247905796159728  0.521651817649243  0.5999483418321107  1.0000
  O   O60       1.0  0.0916105591446339  0.5647899459582535  0.8941005429657238  1.0000
  O   O61       1.0  0.7341762673295947  0.460024545533372  0.0604277633756993  1.0000
  O   O62       1.0  0.8914190510930098  0.4817014072849659  0.14999276236204656  1.0000
  O   O63       1.0  0.9393383331631497  0.3991686252084037  0.030345784410450004  1.0000
  O   O64       1.0  0.0900845785033795  0.4345334489941237  0.9978349492121342  1.0000
  O   O65       1.0  0.14372239760342612  0.06124482034758222  0.034655491270612515  1.0000
  O   O66       1.0  0.7733154320225566  0.44715911652322404  0.4355663823467851  1.0000
  O   O67       1.0  0.9539758011289052  0.48957244574145176  0.25846308972705156  1.0000
  O   O68       1.0  0.9129340638229164  0.25648536852145304  0.043901162570193705  1.0000
  O   O69       1.0  0.284514696153316  0.10842644008003081  0.007058284798837601  1.0000
  O   O70       1.0  0.9815122516698338  0.149285733933624  0.04948772572689821  1.0000
  O   O71       1.0  0.9247890537388628  0.4783502473510454  0.4000501574778212  1.0000
  O   O72       1.0  0.5916074893304213  0.43521016138156204  0.10590541869850512  1.0000
  O   O73       1.0  0.4841678199789854  0.4395685073763715  0.96002866522295  1.0000
  O   O74       1.0  0.6414048745424665  0.3499966585110671  0.9817245144578026  1.0000
  O   O75       1.0  0.6893371805977039  0.46962861961517177  0.899167408371298  1.0000
  O   O76       1.0  0.8400648927182458  0.5021716541519865  0.9345231513754301  1.0000
  O   O77       1.0  0.8937209477524134  0.46535140851130324  0.561237953459603  1.0000
  O   O78       1.0  0.5233249593726583  0.06442684459670292  0.9471564813508736  1.0000
  O   O79       1.0  0.7039479191991518  0.2415226140711866  0.9896182944260872  1.0000
  O   O80       1.0  0.6629228490423316  0.456103886546501  0.7564798558772454  1.0000
  O   O81       1.0  0.0345326897198177  0.4929067114190957  0.6084302909862062  1.0000
  O   O82       1.0  0.7315040456057247  0.4505323689870836  0.649282772852665  1.0000
  O   O83       1.0  0.6747853992873942  0.09994534600107843  0.9783544467727128  1.0000
  O   O84       1.0  0.341604219493334  0.3940954732951951  0.93520171206562  1.0000
  O   O85       1.0  0.9841677442447008  0.5604289671414409  0.0399748583328119  1.0000
  O   O86       1.0  0.1414104817977062  0.65000089474826  0.0182813959970289  1.0000
  O   O87       1.0  0.1893361142943846  0.5303734994729156  0.10083285886359761  1.0000
  O   O88       1.0  0.34006464461608477  0.49782788766766833  0.0654764522400058  1.0000
  O   O89       1.0  0.3937220794768733  0.5346521891921157  0.43876159485544264  1.0000
  O   O90       1.0  0.0233318169173486  0.9355727700386824  0.052842431211829  1.0000
  O   O91       1.0  0.20395276407376173  0.7584739077596157  0.010387551674789101  1.0000
  O   O92       1.0  0.16292147519637726  0.543896713022349  0.24352094710040012  1.0000
  O   O93       1.0  0.5345267981912514  0.5070867982809164  0.3915706442693719  1.0000
  O   O94       1.0  0.23150389956415302  0.5494722830444445  0.3507174509350932  1.0000
  O   O95       1.0  0.17479161093570636  0.9000542337957  0.02164583548211141  1.0000
  O   O96       1.0  0.8416062551550992  0.6059071192031382  0.06480500929789912  1.0000
