data_image0
_chemical_formula_structural       Cu4H16C24N8Cl4
_chemical_formula_sum              "Cu4 H16 C24 N8 Cl4"
_cell_length_a       3.6625590742300127
_cell_length_b       12.495843307746235
_cell_length_c       14.749803923278167
_cell_angle_alpha    89.99943851940866
_cell_angle_beta     89.99958328118382
_cell_angle_gamma    96.06567247832635

_space_group_name_H-M_alt    "P 1"
_space_group_IT_number       1

loop_
  _space_group_symop_operation_xyz
  'x, y, z'

loop_
  _atom_site_type_symbol
  _atom_site_label
  _atom_site_symmetry_multiplicity
  _atom_site_fract_x
  _atom_site_fract_y
  _atom_site_fract_z
  _atom_site_occupancy
  Cu  Cu1       1.0  0.4933155484207885  0.9694517513467529  0.2530720543070686  1.0000
  Cu  Cu2       1.0  0.5066852842403123  0.5305526387041438  0.7530723751844448  1.0000
  Cu  Cu3       1.0  0.5066870244619538  0.03055681969930649  0.7469286080363844  1.0000
  Cu  Cu4       1.0  0.49331098010243574  0.4694535133179512  0.2469242193248036  1.0000
  H   H1        1.0  0.6680183027667397  0.7443875656894291  0.2753076831999905  1.0000
  H   H2        1.0  0.33197941294553596  0.7556173490707748  0.7753098798625899  1.0000
  H   H3        1.0  0.33198069268974006  0.2556185886796598  0.7246929791571475  1.0000
  H   H4        1.0  0.6680244806318499  0.24438720048132723  0.22469485034691417  1.0000
  H   H5        1.0  0.6968892744143318  0.6135449153552199  0.39939798254151526  1.0000
  H   H6        1.0  0.30313193631106117  0.8864504281521872  0.8994079645391793  1.0000
  H   H7        1.0  0.30308834617846975  0.38645478427427804  0.6006006459388757  1.0000
  H   H8        1.0  0.6968918320170303  0.11354850697637175  0.1006008335240836  1.0000
  H   H9        1.0  0.25670672130522104  0.8452366045885567  0.5786757838623159  1.0000
  H   H10       1.0  0.7433184806184768  0.6547466487773475  0.0786701106840155  1.0000
  H   H11       1.0  0.7432684501354957  0.15476389741133537  0.42132691246792586  1.0000
  H   H12       1.0  0.25669286311119777  0.34524020778736986  0.9213264838900272  1.0000
  H   H13       1.0  0.23221540508557567  0.9651818422656075  0.4430538466140916  1.0000
  H   H14       1.0  0.7677927238563594  0.5348105324206713  0.9430413964531681  1.0000
  H   H15       1.0  0.7677879243547208  0.03482109776282269  0.556948849677333  1.0000
  H   H16       1.0  0.23221268309067253  0.4651827552020079  0.05695045227441399  1.0000
  C   C1        1.0  0.5776698180694382  0.764140159760899  0.3430211357009085  1.0000
  C   C2        1.0  0.4223378273142657  0.7358590926666081  0.8430219564484033  1.0000
  C   C3        1.0  0.42231900928607063  0.23586035411791065  0.6569788487149139  1.0000
  C   C4        1.0  0.5776785938731949  0.2641422497043564  0.1569780279358639  1.0000
  C   C5        1.0  0.5953915970071222  0.6907319193969029  0.4131348970403367  1.0000
  C   C6        1.0  0.40462731628220167  0.8092656645253341  0.913140567737841  1.0000
  C   C7        1.0  0.40458715194129974  0.30927099931381713  0.5868623754752987  1.0000
  C   C8        1.0  0.5953940030261649  0.19073407302865059  0.0868634844987852  1.0000
  C   C9        1.0  0.48247830603781955  0.7192292681122651  0.5001191008487211  1.0000
  C   C10       1.0  0.5175433183272913  0.7807613972458607  0.0001196204431295  1.0000
  C   C11       1.0  0.5175031740446911  0.2807736529539254  0.499880883564586  1.0000
  C   C12       1.0  0.4824705640650961  0.21923270219446073  0.9998830758742726  1.0000
  C   C13       1.0  0.35032707708616323  0.8202131940166167  0.5124457594757672  1.0000
  C   C14       1.0  0.649695779990239  0.6797741007466981  0.012440069132615902  1.0000
  C   C15       1.0  0.649656005835901  0.17978651034920992  0.48755422494927103  1.0000
  C   C16       1.0  0.3503131146789825  0.3202135582265199  0.9875544915152475  1.0000
  C   C17       1.0  0.3386761758678601  0.8871286021124615  0.4378506034205857  1.0000
  C   C18       1.0  0.661334276322343  0.6128622303728191  0.9378404335472936  1.0000
  C   C19       1.0  0.6613189600378176  0.11287433079454699  0.5621527708543326  1.0000
  C   C20       1.0  0.33867113057377907  0.38713105722869995  0.0621548050558545  1.0000
  C   C21       1.0  0.5008334195260887  0.6489133314700127  0.5748749443030334  1.0000
  C   C22       1.0  0.49918361335154054  0.8510619169278256  0.074870171278917  1.0000
  C   C23       1.0  0.4991583313127066  0.35107994419332295  0.4251324978661373  1.0000
  C   C24       1.0  0.5008331926564936  0.14892494435205347  0.9251311691153461  1.0000
  N   N1        1.0  0.4538683505243811  0.8611368866610792  0.35445084130961396  1.0000
  N   N2        1.0  0.5461337713945865  0.6388630230922416  0.8544461139691677  1.0000
  N   N3        1.0  0.5461221692729339  0.13886845580146454  0.6455532109351125  1.0000
  N   N4        1.0  0.4538780337354141  0.3611407288554317  0.1455511585093348  1.0000
  N   N5        1.0  0.5126429576179204  0.5924673920140718  0.6380841426316408  1.0000
  N   N6        1.0  0.4873685860837042  0.9075279814309879  0.1380938400300735  1.0000
  N   N7        1.0  0.48735575591764757  0.40753795765456147  0.3619056721272997  1.0000
  N   N8        1.0  0.5126278705369813  0.09247092999053305  0.8619122461606565  1.0000
  Cl  Cl1       1.0  0.0332030122469931  0.08173603224219758  0.2873424293941937  1.0000
  Cl  Cl2       1.0  0.9668060239259828  0.4182697840947681  0.7873413029969925  1.0000
  Cl  Cl3       1.0  0.9668080362440037  0.9182733506892403  0.7126582329372583  1.0000
  Cl  Cl4       1.0  0.03320361422738209  0.5817355750295901  0.2126539355516925  1.0000
