data_image0
_chemical_formula_structural       Cu2H14C14S2N4
_chemical_formula_sum              "Cu2 H14 C14 S2 N4"
_cell_length_a       5.719656205717351
_cell_length_b       7.402277911447539
_cell_length_c       9.554393309875012
_cell_angle_alpha    97.51259137692561
_cell_angle_beta     99.99839423267612
_cell_angle_gamma    101.65758230230671

_space_group_name_H-M_alt    "P 1"
_space_group_IT_number       1

loop_
  _space_group_symop_operation_xyz
  'x, y, z'

loop_
  _atom_site_type_symbol
  _atom_site_label
  _atom_site_symmetry_multiplicity
  _atom_site_fract_x
  _atom_site_fract_y
  _atom_site_fract_z
  _atom_site_occupancy
  Cu  Cu1       1.0  0.6428003062021902  0.9982641949618267  0.667041593367138  1.0000
  Cu  Cu2       1.0  0.3571728495186973  0.0017394073260987926  0.3329483672396236  1.0000
  H   H1        1.0  0.8568684557584019  0.8023339454422425  0.916304092469467  1.0000
  H   H2        1.0  0.14315872784936087  0.19766546493628567  0.08369457396592143  1.0000
  H   H3        1.0  0.7432831787501186  0.0019385033973406845  0.9618124515146462  1.0000
  H   H4        1.0  0.2567209423301691  0.9980576835107159  0.03817560356753093  1.0000
  H   H5        1.0  0.7167597245862181  0.8217813615446161  0.06885903354480402  1.0000
  H   H6        1.0  0.2832586584108299  0.17822968107632417  0.9311375399505764  1.0000
  H   H7        1.0  0.340624559404489  0.5926385694230374  0.01599556090715032  1.0000
  H   H8        1.0  0.6593653745631798  0.4073656319648719  0.9840030994970448  1.0000
  H   H9        1.0  0.9338492127654732  0.4416215372186797  0.8503253217861159  1.0000
  H   H10       1.0  0.06614739533354444  0.5583752932026157  0.14967590078295956  1.0000
  H   H11       1.0  0.8436034643821131  0.542866396246232  0.6089267974991017  1.0000
  H   H12       1.0  0.1564197746592058  0.4571297175702753  0.3910794775248831  1.0000
  H   H13       1.0  0.16918334249664463  0.7673390844654192  0.5379480436637678  1.0000
  H   H14       1.0  0.8308168166858819  0.23265191114754905  0.4620546830951966  1.0000
  C   C1        1.0  0.17109310159458602  0.14956659883907267  0.6528569594822926  1.0000
  C   C2        1.0  0.8288889519607849  0.8504405665346012  0.34714154397011043  1.0000
  C   C3        1.0  0.46737097351923745  0.7556059934807351  0.8630478025617877  1.0000
  C   C4        1.0  0.5326458652302719  0.24439910220915803  0.1369530214427996  1.0000
  C   C5        1.0  0.29482184657336313  0.6261225031383618  0.9083372219323279  1.0000
  C   C6        1.0  0.705161974641065  0.37387505905532237  0.09165579889731391  1.0000
  C   C7        1.0  0.0692827332077783  0.5443859341313483  0.8174267702743023  1.0000
  C   C8        1.0  0.9307374886201955  0.45561924879488197  0.1825932077211263  1.0000
  C   C9        1.0  0.019543025185669225  0.5965546286193087  0.6824668043576878  1.0000
  C   C10       1.0  0.9804183798601612  0.4034294309404843  0.31752042996149754  1.0000
  C   C11       1.0  0.19997249584534418  0.7229817048897969  0.6425215725183123  1.0000
  C   C12       1.0  0.8000669738735552  0.2770290056996813  0.35747549484239016  1.0000
  C   C13       1.0  0.7084739842726788  0.8498312397121595  0.9586221788608925  1.0000
  C   C14       1.0  0.29154349222498877  0.15017123919104594  0.041375158945648104  1.0000
  S   S1        1.0  0.5541522657995087  0.7622830895056865  0.3684372128679812  1.0000
  S   S2        1.0  0.44582675321120746  0.23773125024463576  0.6315820566440495  1.0000
  N   N1        1.0  0.9721705589021851  0.0845597790292558  0.6680782055623524  1.0000
  N   N2        1.0  0.02779664178400766  0.9154331817285738  0.33192337232149083  1.0000
  N   N3        1.0  0.42002482532573987  0.8011331186642747  0.7293874938088578  1.0000
  N   N4        1.0  0.5799658156054549  0.19885882538270747  0.2706031132143067  1.0000
