data_image0
_chemical_formula_structural       Mn2H12C8O12
_chemical_formula_sum              "Mn2 H12 C8 O12"
_cell_length_a       7.146147041305264
_cell_length_b       7.563180158141136
_cell_length_c       7.5632545064778975
_cell_angle_alpha    111.99142478488612
_cell_angle_beta     103.6076791852858
_cell_angle_gamma    103.61143781382215

_space_group_name_H-M_alt    "P 1"
_space_group_IT_number       1

loop_
  _space_group_symop_operation_xyz
  'x, y, z'

loop_
  _atom_site_type_symbol
  _atom_site_label
  _atom_site_symmetry_multiplicity
  _atom_site_fract_x
  _atom_site_fract_y
  _atom_site_fract_z
  _atom_site_occupancy
  Mn  Mn1       1.0  0.7580192386006745  0.8566679511174087  0.1508604776029402  1.0000
  Mn  Mn2       1.0  0.258034669143953  0.15086107491053724  0.8566633504366266  1.0000
  H   H1        1.0  0.9578968571934399  0.5447388022287711  0.2851900015489691  1.0000
  H   H2        1.0  0.4578954996678561  0.2851940838826579  0.5447591774076201  1.0000
  H   H3        1.0  0.04578312219290129  0.5469352347364873  0.6049817535561601  1.0000
  H   H4        1.0  0.5457790904524701  0.6049837941965348  0.546941008445188  1.0000
  H   H5        1.0  0.38348831367299147  0.5800694360822121  0.8227050682977364  1.0000
  H   H6        1.0  0.8834976676361421  0.8227023485983055  0.5800801476734422  1.0000
  H   H7        1.0  0.3981691948633568  0.8144399338247935  0.9425781521462752  1.0000
  H   H8        1.0  0.8981763840471403  0.9425642890475815  0.8144436646209173  1.0000
  H   H9        1.0  0.9670022245177208  0.5670506909216826  0.9783555173205798  1.0000
  H   H10       1.0  0.4669996492430216  0.9783531564028676  0.5670436785553364  1.0000
  H   H11       1.0  0.9582409618587635  0.7174607829873241  0.8777963769936508  1.0000
  H   H12       1.0  0.4582566013344406  0.8778075779241875  0.7174682813462069  1.0000
  C   C1        1.0  0.9597329087178251  0.2504531647877499  0.09230782928285212  1.0000
  C   C2        1.0  0.45971300070222304  0.09230009005432999  0.2504435259406819  1.0000
  C   C3        1.0  0.9735830216112619  0.4065736897931557  0.29012108774434614  1.0000
  C   C4        1.0  0.47356004149475694  0.2901376986687297  0.40657132066488805  1.0000
  C   C5        1.0  0.02585978813516484  0.4085772401440479  0.4734335835011053  1.0000
  C   C6        1.0  0.5258584580272156  0.4734525534643907  0.40856862343107286  1.0000
  C   C7        1.0  0.0910852101803314  0.25666713003043634  0.5243401382323327  1.0000
  C   C8        1.0  0.5910844774816156  0.5243671078957988  0.2566971205190711  1.0000
  O   O1        1.0  0.0647949555858105  0.3191941368481891  0.002367127492377059  1.0000
  O   O2        1.0  0.5647785974206414  0.0023658276934313024  0.31921026270746466  1.0000
  O   O3        1.0  0.8456420430635846  0.06235425104149779  0.017734299453486837  1.0000
  O   O4        1.0  0.34562817409240404  0.017739530628986703  0.062352745428661614  1.0000
  O   O5        1.0  0.026924826842986214  0.06853656600718241  0.40261093564760136  1.0000
  O   O6        1.0  0.5269265130307872  0.4026509668446891  0.06855789223068598  1.0000
  O   O7        1.0  0.228139588431418  0.3329628679633458  0.7048082006828054  1.0000
  O   O8        1.0  0.7281385595308549  0.7048222067186103  0.3329824025241095  1.0000
  O   O9        1.0  0.4740998130957621  0.7267000270575964  0.8795032771964558  1.0000
  O   O10       1.0  0.9741089440182478  0.8794955357459386  0.7267014931312588  1.0000
  O   O11       1.0  0.9025503409768161  0.6638820295249841  0.9623395709958159  1.0000
  O   O12       1.0  0.40256063058134123  0.9623480720674279  0.6638887746307419  1.0000
