data_image0
_chemical_formula_structural       Cd2H16C20Br4N4Cl4
_chemical_formula_sum              "Cd2 H16 C20 Br4 N4 Cl4"
_cell_length_a       3.9508775898887953
_cell_length_b       11.829347501904962
_cell_length_c       14.463498885814339
_cell_angle_alpha    90.00043015085808
_cell_angle_beta     89.9988691991179
_cell_angle_gamma    88.47027297378717

_space_group_name_H-M_alt    "P 1"
_space_group_IT_number       1

loop_
  _space_group_symop_operation_xyz
  'x, y, z'

loop_
  _atom_site_type_symbol
  _atom_site_label
  _atom_site_symmetry_multiplicity
  _atom_site_fract_x
  _atom_site_fract_y
  _atom_site_fract_z
  _atom_site_occupancy
  Cd  Cd1       1.0  6.572524955569997e-05  7.959200566200002e-06  4.148219893799999e-06  1.0000
  Cd  Cd2       1.0  0.9999680560808387  0.49998208413241946  0.5000023090168353  1.0000
  H   H1        1.0  0.7489223343380403  0.896773896510908  0.8035732068909451  1.0000
  H   H2        1.0  0.7488679049444685  0.3967849861046774  0.6964261009106706  1.0000
  H   H3        1.0  0.25105775924099316  0.10322123163214063  0.1964292824490173  1.0000
  H   H4        1.0  0.2510663176645664  0.6032341572456161  0.30357085746179274  1.0000
  H   H5        1.0  0.9827893467433171  0.11714638149771162  0.5746912759648379  1.0000
  H   H6        1.0  0.9828071361029204  0.6171324781583963  0.925313355000547  1.0000
  H   H7        1.0  0.017236248122714005  0.882854321894591  0.4253139788512995  1.0000
  H   H8        1.0  0.017236193449875304  0.38286724640677516  0.07468152882999847  1.0000
  H   H9        1.0  0.2258745571155174  0.24989571268567806  0.6894280728986784  1.0000
  H   H10       1.0  0.22587275382343114  0.7498868022495486  0.810574557861244  1.0000
  H   H11       1.0  0.7741408888411031  0.7501067577711426  0.3105751077634621  1.0000
  H   H12       1.0  0.7741477460725222  0.2501164754752594  0.18941272069004353  1.0000
  H   H13       1.0  0.21997061758416694  0.19814555624783034  0.8586801998380549  1.0000
  H   H14       1.0  0.21996072392774832  0.6981452696430998  0.6413200732102523  1.0000
  H   H15       1.0  0.7800018801794978  0.8018496290280411  0.1413202153357602  1.0000
  H   H16       1.0  0.7800091471617848  0.30185754360721967  0.3586699710594132  1.0000
  C   C1        1.0  0.8552738475436357  0.9737343662708612  0.7755557278947547  1.0000
  C   C2        1.0  0.8552452983827834  0.47374045076680477  0.7244427810905162  1.0000
  C   C3        1.0  0.14472393810970632  0.02626316486094281  0.22444607000893055  1.0000
  C   C4        1.0  0.1447118070105802  0.5262709121727982  0.2755534858005503  1.0000
  C   C5        1.0  0.8508458668521116  0.9966985392277153  0.6809231065277002  1.0000
  C   C6        1.0  0.8508281895062028  0.49670373543015967  0.819083863223632  1.0000
  C   C7        1.0  0.14918238665994468  0.0032919998265085993  0.31908491383278187  1.0000
  C   C8        1.0  0.14916940577195703  0.5033090136850759  0.18092346589205724  1.0000
  C   C9        1.0  0.98304287236936  0.0972534376111867  0.6482294371813564  1.0000
  C   C10       1.0  0.9830557270470807  0.5972507193397405  0.8517660830014859  1.0000
  C   C11       1.0  0.0169548393272976  0.9027500116146501  0.3517723607405756  1.0000
  C   C12       1.0  0.0169875500059007  0.40275323239100663  0.14821981269883364  1.0000
  C   C13       1.0  0.11693435585564058  0.17122677434910122  0.7127357666361788  1.0000
  C   C14       1.0  0.11693417121312422  0.6712235515199582  0.7872704320678704  1.0000
  C   C15       1.0  0.883071025412221  0.8287706996772286  0.28727363659872646  1.0000
  C   C16       1.0  0.8830609136336635  0.3287875257042643  0.21272583471935744  1.0000
  C   C17       1.0  0.11461959286031491  0.1430593926711694  0.8061743501561336  1.0000
  C   C18       1.0  0.11460836531365  0.643063833459678  0.6938192442592308  1.0000
  C   C19       1.0  0.8853808412253061  0.8569288195166963  0.1938205337556055  1.0000
  C   C20       1.0  0.8853944213775123  0.3569387321603871  0.306168725733542  1.0000
  Br  Br1       1.0  0.48839452615441564  0.1630526208542875  0.029343386633620093  1.0000
  Br  Br2       1.0  0.48830786972882123  0.6630297826755153  0.4706779560655574  1.0000
  Br  Br3       1.0  0.5117448903018982  0.8369565253291358  0.9706770786036569  1.0000
  Br  Br4       1.0  0.5115639518366422  0.3369179742966608  0.5293190022584182  1.0000
  N   N1        1.0  0.9857796053838828  0.045861049682294194  0.8367694058233607  1.0000
  N   N2        1.0  0.9857580350335907  0.5458576741650419  0.6632257862081798  1.0000
  N   N3        1.0  0.0142334459573021  0.9541304490761605  0.16323377481181464  1.0000
  N   N4        1.0  0.014216931427725404  0.4541425646980671  0.33677117199618317  1.0000
  Cl  Cl1       1.0  0.6839027905618521  0.8989494518974581  0.6059317248928264  1.0000
  Cl  Cl2       1.0  0.6838797937167842  0.3989452444316938  0.894074862549395  1.0000
  Cl  Cl3       1.0  0.31612526236126837  0.10105715053435202  0.39407214714336186  1.0000
  Cl  Cl4       1.0  0.3161001096879091  0.6010651016674444  0.10592762683747738  1.0000
