data_image0
_chemical_formula_structural       Zn4H21C48N4Cl5O24
_chemical_formula_sum              "Zn4 H21 C48 N4 Cl5 O24"
_cell_length_a       9.685665547804387
_cell_length_b       10.972901891467913
_cell_length_c       21.929620135812893
_cell_angle_alpha    89.85022427590852
_cell_angle_beta     89.39917002425732
_cell_angle_gamma    90.06058316862833

_space_group_name_H-M_alt    "P 1"
_space_group_IT_number       1

loop_
  _space_group_symop_operation_xyz
  'x, y, z'

loop_
  _atom_site_type_symbol
  _atom_site_label
  _atom_site_symmetry_multiplicity
  _atom_site_fract_x
  _atom_site_fract_y
  _atom_site_fract_z
  _atom_site_occupancy
  Zn  Zn1       1.0  0.6484159618128585  0.5074499623645535  0.5009323185528417  1.0000
  Zn  Zn2       1.0  0.36278629460796447  0.5126820080589737  0.49261675134344085  1.0000
  Zn  Zn3       1.0  0.3562435788837206  0.4975095855528692  0.0015427002273398003  1.0000
  Zn  Zn4       1.0  0.6440584631050612  0.5040923250300081  0.9930724953007302  1.0000
  H   H1        1.0  0.1317870704116899  0.6631984569999643  0.5540207195671131  1.0000
  H   H2        1.0  0.1474826220263665  0.3544176295859173  0.4443067366204404  1.0000
  H   H3        1.0  0.868908517169146  0.6507265860736168  0.5558351765939308  1.0000
  H   H4        1.0  0.7244009887559811  0.9063642280041645  0.4932989069948805  1.0000
  H   H5        1.0  0.2857313069042533  0.8860979151783891  0.5230913144981743  1.0000
  H   H6        1.0  0.7097759565419394  0.1341433700327741  0.4980937203792665  1.0000
  H   H7        1.0  0.6527837424271894  0.36001223592367637  0.8649845779771469  1.0000
  H   H8        1.0  0.6403057561847872  0.31825576421569224  0.6394295296341783  1.0000
  H   H9        1.0  0.30366089617286457  0.45714363919632456  0.19265858170415132  1.0000
  H   H10       1.0  0.7438940244849306  0.5068149852317558  0.18528219815835467  1.0000
  H   H11       1.0  0.3115458767926426  0.46986903643115596  0.306621587105255  1.0000
  H   H12       1.0  0.8860018532491833  0.6079108316940561  0.9137365084419714  1.0000
  H   H13       1.0  0.8487971439132167  0.38643570613011485  0.06742972514657453  1.0000
  H   H14       1.0  0.14676956814255246  0.5987408785346916  0.9212208292500393  1.0000
  H   H15       1.0  0.3050659846239512  0.8874781072625452  0.9549674488256489  1.0000
  H   H16       1.0  0.7011862814839773  0.8823255066096892  0.0418269083711706  1.0000
  H   H17       1.0  0.3182947628630686  0.11487291938421147  0.9481463416339369  1.0000
  H   H18       1.0  0.4512255806965797  0.7696574673766321  0.6582207064046772  1.0000
  H   H19       1.0  0.4527338385767123  0.7812615552088144  0.8240362758986354  1.0000
  H   H20       1.0  0.7384784711709571  0.22757608203428242  0.9029708446249956  1.0000
  H   H21       1.0  0.93353450431924  0.23597869789889353  0.6669411127526956  1.0000
  C   C1        1.0  0.5088260586785438  0.7466021380350226  0.5013273602667356  1.0000
  C   C2        1.0  0.4950519952540375  0.5094251470931611  0.6154891862709422  1.0000
  C   C3        1.0  0.4918649756667505  0.27489409182180674  0.5046296963820964  1.0000
  C   C4        1.0  0.5194586551223352  0.505618113653142  0.3786542826323684  1.0000
  C   C5        1.0  0.49675360784994643  0.735394688614953  0.0034729985678155005  1.0000
  C   C6        1.0  0.4842517082731064  0.5233414527322963  0.8800513892838  1.0000
  C   C7        1.0  0.5156242690732143  0.26283642872855495  0.9858366991552431  1.0000
  C   C8        1.0  0.5170234938039187  0.47962813925505526  0.11387660775655921  1.0000
  C   C9        1.0  0.9404684116713896  0.41486632604547674  0.4697782858234023  1.0000
  C   C10       1.0  0.0756513211078342  0.5932787116883701  0.5293260832319575  1.0000
  C   C11       1.0  0.08486877153956839  0.42184924152688547  0.4682120562413702  1.0000
  C   C12       1.0  0.9323739770760753  0.5856779837996269  0.5306871336081118  1.0000
  C   C13       1.0  0.49014051311741014  0.13871513614711256  0.5092121726494697  1.0000
  C   C14       1.0  0.505096171263169  0.8827173483113665  0.5060295479163346  1.0000
  C   C15       1.0  0.37032606271073837  0.06743864987681997  0.5175928806511153  1.0000
  C   C16       1.0  0.6257209968300046  0.9521208626350982  0.5000465213709405  1.0000
  C   C17       1.0  0.378341372368169  0.9407559001757447  0.5162020493360091  1.0000
  C   C18       1.0  0.6172402509911308  0.07824107465187068  0.5022854681706052  1.0000
  C   C19       1.0  0.4815572495324004  0.5188587841322131  0.811732724362685  1.0000
  C   C20       1.0  0.5669309066122636  0.43102863756720194  0.7821578830135608  1.0000
  C   C21       1.0  0.3921972404653716  0.5912951322484048  0.7784709443513268  1.0000
  C   C22       1.0  0.6492559046935112  0.3487638290101884  0.8157763750872179  1.0000
  C   C23       1.0  0.724521185915421  0.2577627620964406  0.7878218941213007  1.0000
  C   C24       1.0  0.4840394093269609  0.5063255748743671  0.6838044221291428  1.0000
  C   C25       1.0  0.39389926061428326  0.5852517248679019  0.7136329229396028  1.0000
  C   C26       1.0  0.5667803693766656  0.4228706425905101  0.7172917701529401  1.0000
  C   C27       1.0  0.6438925792816049  0.3280920035533086  0.6889157202232141  1.0000
  C   C28       1.0  0.718309386594477  0.24528215343074325  0.7230120250055736  1.0000
  C   C29       1.0  0.5297719740984591  0.49672752345581017  0.31036143265815513  1.0000
  C   C30       1.0  0.5233902965842175  0.48048738981062644  0.18199976291046485  1.0000
  C   C31       1.0  0.6523017816338879  0.506605605941587  0.2753073851738392  1.0000
  C   C32       1.0  0.40101071322428794  0.4697517928990037  0.21619836192366657  1.0000
  C   C33       1.0  0.6487304964545616  0.49744027499028226  0.21175964179687415  1.0000
  C   C34       1.0  0.40553250408736824  0.47717008666106153  0.27918571448196167  1.0000
  C   C35       1.0  0.060182028846853086  0.4257180977378283  0.037895083421531715  1.0000
  C   C36       1.0  0.9369951369871358  0.5569298292143045  0.949708477194996  1.0000
  C   C37       1.0  0.9161818089265878  0.43260464927026004  0.034695460595429516  1.0000
  C   C38       1.0  0.0799999863916554  0.5518523812488849  0.9539638442045801  1.0000
  C   C39       1.0  0.5175704324351144  0.12661486342501857  0.9898447572537069  1.0000
  C   C40       1.0  0.5022745782800229  0.8715654977941653  0.9989907111377935  1.0000
  C   C41       1.0  0.625511122594979  0.0599090924110612  0.016369564070231508  1.0000
  C   C42       1.0  0.39393021376586285  0.9366320958368348  0.9724167988434331  1.0000
  C   C43       1.0  0.6178773174568944  0.9334483769367237  0.020847402977871406  1.0000
  C   C44       1.0  0.40215760387815175  0.06274701081381549  0.9682710849496348  1.0000
  C   C45       1.0  0.2962366206148985  0.6633884455474898  0.6771509692280733  1.0000
  C   C46       1.0  0.2952015217479129  0.6758945012412666  0.8120001605167179  1.0000
  C   C47       1.0  0.8203795946192258  0.17763988896016508  0.8230817880681517  1.0000
  C   C48       1.0  0.7780378013263131  0.1366539207512645  0.6898114204661567  1.0000
  N   N1        1.0  0.864918126599697  0.49715857620032705  0.5004823206251957  1.0000
  N   N2        1.0  0.1498093528976483  0.5113038053794057  0.4973523356687652  1.0000
  N   N3        1.0  0.14109891055275625  0.4871269359539595  0.9985468041395295  1.0000
  N   N4        1.0  0.8569985310098928  0.4985400868419915  0.9908792091711408  1.0000
  Cl  Cl1       1.0  0.8633270110076834  0.29904215154903097  0.43169512134835497  1.0000
  Cl  Cl2       1.0  0.20893901704366158  0.1297679432830918  0.5326464598867987  1.0000
  Cl  Cl3       1.0  0.8126485844382217  0.5360931697932757  0.3065840050959424  1.0000
  Cl  Cl4       1.0  0.13200059157998112  0.3366440414909561  0.09270696113400592  1.0000
  Cl  Cl5       1.0  0.7687459765205915  0.13033588683478567  0.04766871854908322  1.0000
  O   O1        1.0  0.6256631613423878  0.6950569527981614  0.4937497142980691  1.0000
  O   O2        1.0  0.39251987403704897  0.6924153664893211  0.5051040409723555  1.0000
  O   O3        1.0  0.3853088510940665  0.4888523120737744  0.5863497723786113  1.0000
  O   O4        1.0  0.614033108470849  0.5342668725677626  0.5937242602872888  1.0000
  O   O5        1.0  0.3865855786361365  0.32807202615828146  0.4828647954411666  1.0000
  O   O6        1.0  0.6026065436010625  0.32788911327886444  0.5211661186738894  1.0000
  O   O7        1.0  0.6275374116055871  0.485695415042251  0.40952995855695934  1.0000
  O   O8        1.0  0.40049894695725635  0.5302945301728454  0.40063526705996827  1.0000
  O   O9        1.0  0.3809442904942627  0.6838841190060946  0.9943323517705527  1.0000
  O   O10       1.0  0.6098793646060585  0.6811581951438795  0.015503250353575004  1.0000
  O   O11       1.0  0.5991527720124665  0.5502693083131118  0.9043079774538969  1.0000
  O   O12       1.0  0.3728616529719204  0.4953068630227477  0.907456277197447  1.0000
  O   O13       1.0  0.6240295668975762  0.31867365449637924  0.9664110467823763  1.0000
  O   O14       1.0  0.4037335816073835  0.3135624189848797  0.0019432313469139  1.0000
  O   O15       1.0  0.4000061983690486  0.5047479173018844  0.0911713860771499  1.0000
  O   O16       1.0  0.6268334156912374  0.4556891776694485  0.0834929617133255  1.0000
  O   O17       1.0  0.35240999532242506  0.7637876734603422  0.6499076261995428  1.0000
  O   O18       1.0  0.1741732730859837  0.6412403120830419  0.6718713648212573  1.0000
  O   O19       1.0  0.3544799500744844  0.7787851347811595  0.8347678003097841  1.0000
  O   O20       1.0  0.1730490979382679  0.6564010071038592  0.820236500946365  1.0000
  O   O21       1.0  0.8126645249143252  0.17717358123184815  0.8848444801275196  1.0000
  O   O22       1.0  0.9078028059467086  0.11590838448241667  0.7971193821367495  1.0000
  O   O23       1.0  0.8941790234036731  0.15717267942889623  0.6557955438403413  1.0000
  O   O24       1.0  0.718563603052587  0.039215415604502396  0.6878803735171959  1.0000
