data_image0
_chemical_formula_structural       Zn2H30C40N2O8
_chemical_formula_sum              "Zn2 H30 C40 N2 O8"
_cell_length_a       9.30396742006363
_cell_length_b       10.115165196627832
_cell_length_c       11.133446596925873
_cell_angle_alpha    83.08178843092533
_cell_angle_beta     75.66966994601952
_cell_angle_gamma    66.15171147127765

_space_group_name_H-M_alt    "P 1"
_space_group_IT_number       1

loop_
  _space_group_symop_operation_xyz
  'x, y, z'

loop_
  _atom_site_type_symbol
  _atom_site_label
  _atom_site_symmetry_multiplicity
  _atom_site_fract_x
  _atom_site_fract_y
  _atom_site_fract_z
  _atom_site_occupancy
  Zn  Zn1       1.0  0.5527243165070033  0.617160225025273  0.5022922803150396  1.0000
  Zn  Zn2       1.0  0.44726992041388774  0.38284049492685307  0.49770725959275813  1.0000
  H   H1        1.0  0.879252829303134  0.07397246960221081  0.2572652549347084  1.0000
  H   H2        1.0  0.12075475627594309  0.9260339911254505  0.7427443672892481  1.0000
  H   H3        1.0  0.12991978135351462  0.955800854235214  0.09752769191561585  1.0000
  H   H4        1.0  0.8700713464592625  0.04420735854832  0.902473670773304  1.0000
  H   H5        1.0  0.31442519852336664  0.08264313722509088  0.01368619964573979  1.0000
  H   H6        1.0  0.6855535812411733  0.9173695845759441  0.9862886949288737  1.0000
  H   H7        1.0  0.24882676101158552  0.3273848647787147  0.08789093720710645  1.0000
  H   H8        1.0  0.7511515146107046  0.6726284579845084  0.9120687360092962  1.0000
  H   H9        1.0  0.9972031216961528  0.44429370307539523  0.24677632599056654  1.0000
  H   H10       1.0  0.0027835010759745147  0.5557290009114338  0.7531852129055424  1.0000
  H   H11       1.0  0.5151888980136833  0.7984127319578037  0.12902033847122146  1.0000
  H   H12       1.0  0.48479534427377063  0.20159154738337998  0.8710035330920862  1.0000
  H   H13       1.0  0.48734435392894704  0.8485983281928711  0.9075505931678763  1.0000
  H   H14       1.0  0.5126255270342029  0.15142971211920295  0.09247613431920604  1.0000
  H   H15       1.0  0.34055142627548235  0.7377198926398376  0.8235106519727965  1.0000
  H   H16       1.0  0.659447321357135  0.26229965027238217  0.17649795779222904  1.0000
  H   H17       1.0  0.2103947420471144  0.5851647124999317  0.9601160294721683  1.0000
  H   H18       1.0  0.7896677699907787  0.4148081518773665  0.03987288940114544  1.0000
  H   H19       1.0  0.24591806149135936  0.5307260566584374  0.17933812985894093  1.0000
  H   H20       1.0  0.7541466925574272  0.4692200929933605  0.8206481267409345  1.0000
  H   H21       1.0  0.8752658156391891  0.6115230500858216  0.39791957808567  1.0000
  H   H22       1.0  0.12473987328600344  0.38846170451574125  0.6020986314839264  1.0000
  H   H23       1.0  0.037809529153598524  0.7537858661723575  0.401701854762699  1.0000
  H   H24       1.0  0.9621910078586355  0.24620804251905065  0.5983040973050466  1.0000
  H   H25       1.0  0.6203482338460091  0.050562696746986484  0.6453957096451506  1.0000
  H   H26       1.0  0.3796573392936793  0.9494245925795681  0.3546124188375472  1.0000
  H   H27       1.0  0.47738871337632083  0.8891928774410474  0.6345416470459002  1.0000
  H   H28       1.0  0.5226028988506429  0.11080888259888161  0.36546017043622214  1.0000
  H   H29       1.0  0.8508886912191259  0.1053178929843028  0.5871566621736194  1.0000
  H   H30       1.0  0.1491136591544234  0.8946740870104648  0.4128427719986547  1.0000
  C   C1        1.0  0.7704178171383235  0.33953947637454  0.3543734204659401  1.0000
  C   C2        1.0  0.22958244801138517  0.6604576940393797  0.6456314088311927  1.0000
  C   C3        1.0  0.9233230040511492  0.26605141250386305  0.26168560945332336  1.0000
  C   C4        1.0  0.07666408257173173  0.733968882793306  0.7383101902041816  1.0000
  C   C5        1.0  0.9612169528139346  0.12836229608322464  0.21940823622577457  1.0000
  C   C6        1.0  0.03878203915326155  0.871648683569013  0.780600164931194  1.0000
  C   C7        1.0  0.10122040817481093  0.06264900536042012  0.1303706335783019  1.0000
  C   C8        1.0  0.8987787201413231  0.9373553955128741  0.8696140426973502  1.0000
  C   C9        1.0  0.20469944750507815  0.1344157587736987  0.083180986931211  1.0000
  C   C10       1.0  0.7952838564447903  0.8655914948686029  0.9167942978864901  1.0000
  C   C11       1.0  0.16789181491267874  0.2717401221891436  0.12475066132888915  1.0000
  C   C12       1.0  0.8320881109027599  0.7282802793292118  0.87521882390849  1.0000
  C   C13       1.0  0.027939727063127907  0.3370761665804807  0.21378814627453835  1.0000
  C   C14       1.0  0.9720487259621965  0.6629480671689904  0.7861881408819614  1.0000
  C   C15       1.0  0.41187542349607753  0.6198964229127597  0.2943479028429864  1.0000
  C   C16       1.0  0.5881072660744239  0.3800793240683689  0.7056670988027492  1.0000
  C   C17       1.0  0.38183951823115336  0.6620281066427935  0.16641928827625932  1.0000
  C   C18       1.0  0.6181731734236352  0.337944979577621  0.8335921210873779  1.0000
  C   C19       1.0  0.44856625158901425  0.7529275773362728  0.09057239779316012  1.0000
  C   C20       1.0  0.5514346116329136  0.2470659424972439  0.9094434033887283  1.0000
  C   C21       1.0  0.4325076118754439  0.7804071962674115  0.967769346446609  1.0000
  C   C22       1.0  0.5674965002218074  0.2196000015338768  0.03225085284285711  1.0000
  C   C23       1.0  0.34853734252259033  0.7191083095388108  0.9204098309286053  1.0000
  C   C24       1.0  0.6514572721176535  0.2809210286170725  0.07959702927381337  1.0000
  C   C25       1.0  0.2773823965111007  0.6318306573366427  0.9968992313133923  1.0000
  C   C26       1.0  0.7226476066602532  0.36816656379514257  0.0030874477446828975  1.0000
  C   C27       1.0  0.29528290727088097  0.6024382960035056  0.11900070687880777  1.0000
  C   C28       1.0  0.7047490010655866  0.3975307561824691  0.8809933955688792  1.0000
  C   C29       1.0  0.824747650433331  0.7097620132187926  0.45120219081786683  1.0000
  C   C30       1.0  0.1752527276656935  0.29023022914801533  0.5488192191570107  1.0000
  C   C31       1.0  0.9134010222323072  0.7906262786306328  0.4539237257638433  1.0000
  C   C32       1.0  0.08659821619693282  0.2093708008734154  0.5460840307803992  1.0000
  C   C33       1.0  0.8417155632846376  0.9171338628749266  0.523978724591622  1.0000
  C   C34       1.0  0.1582835883057996  0.0828579857930833  0.4760259098259213  1.0000
  C   C35       1.0  0.6817213523748081  0.9526425544734707  0.5909512442128602  1.0000
  C   C36       1.0  0.3182717370764294  0.047363552859842194  0.40904807745065613  1.0000
  C   C37       1.0  0.6015365735132294  0.8649315710281441  0.5843270258148437  1.0000
  C   C38       1.0  0.39846637351377723  0.1350698254847273  0.4156777526606561  1.0000
  C   C39       1.0  0.9236948123636991  0.0107754742782902  0.5299188471660659  1.0000
  C   C40       1.0  0.07631259741030061  0.9892258616654741  0.47008496680915374  1.0000
  N   N1        1.0  0.6704788370804028  0.7461475562427323  0.51438201236666  1.0000
  N   N2        1.0  0.3295244432474577  0.2538451709580015  0.48562524362282034  1.0000
  O   O1        1.0  0.7476018353058439  0.46224914653802757  0.39086645961462824  1.0000
  O   O2        1.0  0.25238287804752696  0.5377838726518434  0.609106282655084  1.0000
  O   O3        1.0  0.6727806960800679  0.27545157945495896  0.38859857931282704  1.0000
  O   O4        1.0  0.3272361080023459  0.7245442830948718  0.6114306308277265  1.0000
  O   O5        1.0  0.4656285888623375  0.6939319493875403  0.34279303795621985  1.0000
  O   O6        1.0  0.5343226382901635  0.3060740970393638  0.657231563192191  1.0000
  O   O7        1.0  0.6159783481918809  0.4896140396406634  0.6555288787103353  1.0000
  O   O8        1.0  0.3840483771587557  0.5103487415652452  0.34446419803386874  1.0000
