data_image0
_chemical_formula_structural       Zn2H20C48N8O12
_chemical_formula_sum              "Zn2 H20 C48 N8 O12"
_cell_length_a       9.567240966608228
_cell_length_b       10.804809463862734
_cell_length_c       23.76422648665444
_cell_angle_alpha    89.81537844265077
_cell_angle_beta     89.63079521048414
_cell_angle_gamma    90.58332967390709

_space_group_name_H-M_alt    "P 1"
_space_group_IT_number       1

loop_
  _space_group_symop_operation_xyz
  'x, y, z'

loop_
  _atom_site_type_symbol
  _atom_site_label
  _atom_site_symmetry_multiplicity
  _atom_site_fract_x
  _atom_site_fract_y
  _atom_site_fract_z
  _atom_site_occupancy
  Zn  Zn1       1.0  0.6500520071594239  0.5019872561055789  0.4985266567597932  1.0000
  Zn  Zn2       1.0  0.35088690975866405  0.5012577842946085  0.49984282504429  1.0000
  H   H1        1.0  0.5859864439689773  0.8030483314450976  0.9461026707066724  1.0000
  H   H2        1.0  0.4728227905569967  0.18653387766039478  0.0530207297580247  1.0000
  H   H3        1.0  0.8992320654530489  0.699755510186321  0.5211802649845723  1.0000
  H   H4        1.0  0.1012268178099092  0.30403666014026237  0.474106908903174  1.0000
  H   H5        1.0  0.0941229237336145  0.6509862807817509  0.4306031046507002  1.0000
  H   H6        1.0  0.9064922558494362  0.3520251557610478  0.564072133555868  1.0000
  H   H7        1.0  0.9095740403390665  0.44445170372524945  0.4063347151608241  1.0000
  H   H8        1.0  0.0913404881845779  0.561592870682581  0.5887089819864642  1.0000
  H   H9        1.0  0.5814640831076404  0.8028563190899404  0.05278603595265001  1.0000
  H   H10       1.0  0.4745246439091631  0.1871463752719861  0.946368269147726  1.0000
  H   H11       1.0  0.2937387289567753  0.48066801682616495  0.21144123982825394  1.0000
  H   H12       1.0  0.3208875383661934  0.5771614839361374  0.7894204141090813  1.0000
  H   H13       1.0  0.7290633763807081  0.5180282924010129  0.3230214023974156  1.0000
  H   H14       1.0  0.7157103197734218  0.4220639242265775  0.6740444246713224  1.0000
  H   H15       1.0  0.7421835126446441  0.5112710975672526  0.2178199708089466  1.0000
  H   H16       1.0  0.7306262822027352  0.4179123952657874  0.7793016820472047  1.0000
  H   H17       1.0  0.41385548821474333  0.08007844033826217  0.5921747822818872  1.0000
  H   H18       1.0  0.5836764272368526  0.9218943377046215  0.4115362891782368  1.0000
  H   H19       1.0  0.6578615698930507  0.9323987897009968  0.5762330501801146  1.0000
  H   H20       1.0  0.34147792917119807  0.07054347002114977  0.4275466836106077  1.0000
  C   C1        1.0  0.5066665147306965  0.7382389273786955  0.5024854323910475  1.0000
  C   C2        1.0  0.4909038312476852  0.26442684520058174  0.4987651011871464  1.0000
  C   C3        1.0  0.3893745061984647  0.48811573144703135  0.23583623762075942  1.0000
  C   C4        1.0  0.40737331596402276  0.5420826652115592  0.764316690814141  1.0000
  C   C5        1.0  0.38215160166650725  0.49029303488826037  0.2949079118930058  1.0000
  C   C6        1.0  0.3984857463854042  0.5429648886208797  0.705318205447718  1.0000
  C   C7        1.0  0.5062357145709983  0.5013777316496685  0.32647452555156786  1.0000
  C   C8        1.0  0.5107900860574759  0.4986449706566843  0.6724965594632266  1.0000
  C   C9        1.0  0.634467826812248  0.5090950833970422  0.2980362615435014  1.0000
  C   C10       1.0  0.6295378912452635  0.4548668599191926  0.6999707102166611  1.0000
  C   C11       1.0  0.6416989823984381  0.5054975928636551  0.23957698019923165  1.0000
  C   C12       1.0  0.6379869321656174  0.45307048546403905  0.7584189783416377  1.0000
  C   C13       1.0  0.5184534267677493  0.4955079625441598  0.20887867937287302  1.0000
  C   C14       1.0  0.5261332330576708  0.496868690114482  0.7902512675775242  1.0000
  C   C15       1.0  0.5867232300583041  0.9638303511481678  0.5435142876889785  1.0000
  C   C16       1.0  0.41217656581925877  0.03846748646528649  0.4603035864270312  1.0000
  C   C17       1.0  0.4529670496476543  0.04392391106821238  0.5522459623334302  1.0000
  C   C18       1.0  0.5455447580034587  0.958574230785423  0.451516308871085  1.0000
  C   C19       1.0  0.4962713448299639  0.12651915918866755  0.5005590536812363  1.0000
  C   C20       1.0  0.5032888134933772  0.8760336195329895  0.5037081154701256  1.0000
  C   C21       1.0  0.6320124653040226  0.04677901617733939  0.49146680819661986  1.0000
  C   C22       1.0  0.3668484802532106  0.9555740666392364  0.5121861028426196  1.0000
  C   C23       1.0  0.504273686333427  0.5045007277288318  0.3897799347771169  1.0000
  C   C24       1.0  0.5067863139888117  0.49700550131284865  0.609103690690823  1.0000
  C   C25       1.0  0.04657077882725961  0.5851541561156918  0.4600855719913285  1.0000
  C   C26       1.0  0.9542535024332752  0.4188226737727589  0.5350299346940304  1.0000
  C   C27       1.0  0.950041983397327  0.612860184550463  0.510791428637269  1.0000
  C   C28       1.0  0.050767372768504515  0.3911673615654719  0.48435012655964743  1.0000
  C   C29       1.0  0.9553522600311624  0.4700103267158652  0.446591563759732  1.0000
  C   C30       1.0  0.045243809975382014  0.5342359900035801  0.5486350539284004  1.0000
  C   C31       1.0  0.509781023850593  0.38037700598096064  0.8779726598019552  1.0000
  C   C32       1.0  0.5447231955420548  0.6098768430098714  0.12110080028912765  1.0000
  C   C33       1.0  0.553548648638028  0.6105521169930767  0.8779165250134612  1.0000
  C   C34       1.0  0.5051833501906915  0.3791744676061127  0.12129728615454383  1.0000
  C   C35       1.0  0.5519507202640953  0.6079379737238425  0.9403382975915947  1.0000
  C   C36       1.0  0.5081023381978016  0.38149130403859016  0.0588670485368752  1.0000
  C   C37       1.0  0.5309641238660917  0.4948137593732793  0.9695902569539286  1.0000
  C   C38       1.0  0.5291581125800917  0.49460149510802137  0.029590589973715  1.0000
  C   C39       1.0  0.5109181678581792  0.38201620103613  0.9404026921210119  1.0000
  C   C40       1.0  0.5477476199492628  0.6076560498905151  0.058721663914163016  1.0000
  C   C41       1.0  0.5702482138499506  0.7175978007935625  0.9699295030164097  1.0000
  C   C42       1.0  0.4891639620507037  0.2719697436034138  0.029234190119240108  1.0000
  C   C43       1.0  0.5679028556576426  0.7174793886402139  0.029033849746312505  1.0000
  C   C44       1.0  0.490303736754484  0.2722692235781776  0.970107133496626  1.0000
  C   C45       1.0  0.24520348643638104  0.4837785457383956  0.3194581655129412  1.0000
  C   C46       1.0  0.2715858732031649  0.5901750707827205  0.6826338449111519  1.0000
  C   C47       1.0  0.7689544104991272  0.09500667336878617  0.48073518715472846  1.0000
  C   C48       1.0  0.23080376360751131  0.9051973784937811  0.5225710430622996  1.0000
  N   N1        1.0  0.5315648998973188  0.49568586842117646  0.8509165733744838  1.0000
  N   N2        1.0  0.5235914785520422  0.49453350299588533  0.14819123483727034  1.0000
  N   N3        1.0  0.8590394798741205  0.4977735909950524  0.4973602789812048  1.0000
  N   N4        1.0  0.14178922303187852  0.5060874422526422  0.49793463084096606  1.0000
  N   N5        1.0  0.12718828856241526  0.47974788669591806  0.3324214013199125  1.0000
  N   N6        1.0  0.16206468125945866  0.6305514305713513  0.671791169871021  1.0000
  N   N7        1.0  0.8820081116916119  0.13300997003939588  0.4723263983788044  1.0000
  N   N8        1.0  0.11937100070470315  0.8636376073991696  0.5309956889062661  1.0000
  O   O1        1.0  0.6209766912463551  0.6872975713798438  0.5158196801220144  1.0000
  O   O2        1.0  0.3751489460726632  0.3131492878315071  0.5123887944727272  1.0000
  O   O3        1.0  0.3948052664289889  0.6848181421570484  0.4867786900058564  1.0000
  O   O4        1.0  0.6023526038476206  0.32000132720146707  0.4835723609253151  1.0000
  O   O5        1.0  0.6175018278539285  0.5368657450448494  0.4135101141776191  1.0000
  O   O6        1.0  0.39253869002055103  0.526741279387387  0.5859640999981579  1.0000
  O   O7        1.0  0.3902404452107363  0.47381334561919863  0.413844831535954  1.0000
  O   O8        1.0  0.6187759975062548  0.4656298076177944  0.5841319859811877  1.0000
  O   O9        1.0  0.49022624138621756  0.28574573659354013  0.8505573987258614  1.0000
  O   O10       1.0  0.5588017536555087  0.7052519316923946  0.1485087201325896  1.0000
  O   O11       1.0  0.5720739750132752  0.705785989633469  0.8504630392202088  1.0000
  O   O12       1.0  0.4876988917644027  0.2838798361775685  0.1488207208065973  1.0000
