data_image0
_chemical_formula_structural       Al4H20C60O28F8
_chemical_formula_sum              "Al4 H20 C60 O28 F8"
_cell_length_a       6.662969861200293
_cell_length_b       19.35978778142462
_cell_length_c       22.057639146624542
_cell_angle_alpha    99.05507519289289
_cell_angle_beta     89.63719839332
_cell_angle_gamma    89.81820824681243

_space_group_name_H-M_alt    "P 1"
_space_group_IT_number       1

loop_
  _space_group_symop_operation_xyz
  'x, y, z'

loop_
  _atom_site_type_symbol
  _atom_site_label
  _atom_site_symmetry_multiplicity
  _atom_site_fract_x
  _atom_site_fract_y
  _atom_site_fract_z
  _atom_site_occupancy
  Al  Al1       1.0  0.8903780192153691  0.5002273347707415  0.5005367880434335  1.0000
  Al  Al2       1.0  0.3905349676920409  0.49968199302150407  0.49962662299884647  1.0000
  Al  Al3       1.0  0.3196386258460819  0.9996761224402635  0.0003533157866328988  1.0000
  Al  Al4       1.0  0.8196479285829882  0.00012802320711809357  0.9998182695562577  1.0000
  H   H1        1.0  0.8502259507803133  0.33657661054740373  0.7447769475929462  1.0000
  H   H2        1.0  0.35185041775283576  0.6631587335128444  0.2556145399586073  1.0000
  H   H3        1.0  0.40642363722941616  0.237588459192942  0.675068688938488  1.0000
  H   H4        1.0  0.9038086947189897  0.7623629984787216  0.3246271926499062  1.0000
  H   H5        1.0  0.17930011363498724  0.7354460173342191  0.5404698507609497  1.0000
  H   H6        1.0  0.741649197401955  0.2677460917986352  0.4561028787406443  1.0000
  H   H7        1.0  0.17309182268915185  0.8504053173402896  0.6102993608059037  1.0000
  H   H8        1.0  0.7453738752798102  0.1525024006544555  0.3865191063104731  1.0000
  H   H9        1.0  0.058627536774295705  0.6372624805061663  0.7908790198426487  1.0000
  H   H10       1.0  0.5683051800342299  0.3630667200680691  0.2084940334297727  1.0000
  H   H11       1.0  0.11588568595124832  0.9290303505294164  0.8218507114443625  1.0000
  H   H12       1.0  0.6432703381922167  0.0716523644911646  0.1772742670072631  1.0000
  H   H13       1.0  0.9915655943892078  0.5353532395339117  0.8939376475086789  1.0000
  H   H14       1.0  0.517059060576024  0.46508755366978255  0.104916412408862  1.0000
  H   H15       1.0  0.6928728400971735  0.11773802694884243  0.7248206960794548  1.0000
  H   H16       1.0  0.18870538669116144  0.8823702008991747  0.2748022294015442  1.0000
  H   H17       1.0  0.636800337523887  0.5181419919104898  0.5811145769287194  1.0000
  H   H18       1.0  0.14119874213758982  0.48057964045253937  0.4191837458980814  1.0000
  H   H19       1.0  0.5692557764738809  0.013918815608810977  0.9242901353579713  1.0000
  H   H20       1.0  0.06692556669110421  0.9854253977506033  0.07571443143839932  1.0000
  C   C1        1.0  0.6462995123843173  0.39373245870856277  0.4261552529166082  1.0000
  C   C2        1.0  0.136453553662939  0.6066446798769292  0.5733911419529323  1.0000
  C   C3        1.0  0.6391819844600023  0.5798829131088752  0.42606012260237247  1.0000
  C   C4        1.0  0.14265138145866274  0.42016618687016216  0.5741724522089983  1.0000
  C   C5        1.0  0.9661853582262695  0.2555815888249882  0.7909247458616804  1.0000
  C   C6        1.0  0.46698775646097357  0.7443269422568832  0.20945276063124402  1.0000
  C   C7        1.0  0.11378240118198593  0.2042478179404271  0.7954652734521093  1.0000
  C   C8        1.0  0.6132741183293718  0.7958211635955409  0.2047892543476451  1.0000
  C   C9        1.0  0.27499008294648775  0.19853063072618937  0.7522198701911619  1.0000
  C   C10       1.0  0.773369706119439  0.8015177233627783  0.24775133533926658  1.0000
  C   C11       1.0  0.2826163455220155  0.24242473256551028  0.7078501393472295  1.0000
  C   C12       1.0  0.7809313795305998  0.7575166376407838  0.292033508826954  1.0000
  C   C13       1.0  0.13035610179841234  0.29218531325495434  0.7040305839367563  1.0000
  C   C14       1.0  0.6298364064293694  0.707677056710459  0.29604021650150975  1.0000
  C   C15       1.0  0.970022316525885  0.29858625851183973  0.7465151830510947  1.0000
  C   C16       1.0  0.4707428195009555  0.7012328955294082  0.2537838010676978  1.0000
  C   C17       1.0  0.09627997375826422  0.1626429673391812  0.8421415284197593  1.0000
  C   C18       1.0  0.5954845623703592  0.8375052629786806  0.158223722240443  1.0000
  C   C19       1.0  0.1370395554546775  0.3353794092284232  0.6579319721937297  1.0000
  C   C20       1.0  0.6362252722327925  0.6645061077417651  0.3421497230125041  1.0000
  C   C21       1.0  0.14062743685889967  0.3729544128382755  0.6185773463016633  1.0000
  C   C22       1.0  0.639495635051837  0.6270260053100785  0.3815748627752811  1.0000
  C   C23       1.0  0.0754685407506912  0.12833685864620034  0.8834381670528799  1.0000
  C   C24       1.0  0.5740183045966135  0.8717668947529662  0.116958886419809  1.0000
  C   C25       1.0  0.15658267679074817  0.8016732313001144  0.6285504999792694  1.0000
  C   C26       1.0  0.7093149882431434  0.2004961279630137  0.3689801117485133  1.0000
  C   C27       1.0  0.1371533446315212  0.6761541599736988  0.6146407208578851  1.0000
  C   C28       1.0  0.6525075678008961  0.3248727398635368  0.3841748287324549  1.0000
  C   C29       1.0  0.0449394956636908  0.7638267364969523  0.914783132887969  1.0000
  C   C30       1.0  0.5385639773046975  0.23595128355297856  0.0854575209942894  1.0000
  C   C31       1.0  0.04005628739972881  0.6959409078155333  0.8803353212405938  1.0000
  C   C32       1.0  0.5413318871639134  0.30407287529017424  0.119498293989821  1.0000
  C   C33       1.0  0.06259244476593301  0.6896144985233051  0.8167148017838813  1.0000
  C   C34       1.0  0.5670553507477082  0.3105580231434076  0.1829096524678775  1.0000
  C   C35       1.0  0.088402588547055  0.7476950919564661  0.7860951112634994  1.0000
  C   C36       1.0  0.5939420142468422  0.252509359907215  0.21347337987709386  1.0000
  C   C37       1.0  0.09163482673872642  0.8158828199125382  0.8226335847462849  1.0000
  C   C38       1.0  0.5989911576051128  0.18425803405465052  0.1769986241487018  1.0000
  C   C39       1.0  0.11086001846176428  0.7422166508009129  0.7197605249888569  1.0000
  C   C40       1.0  0.6230675968126461  0.25830457206235746  0.2794861813874974  1.0000
  C   C41       1.0  0.13279613440346344  0.8043629583587517  0.6924758524415467  1.0000
  C   C42       1.0  0.668240700236872  0.1969745656037745  0.30590685739100826  1.0000
  C   C43       1.0  0.1311114055569789  0.8700442850021657  0.7324912518537589  1.0000
  C   C44       1.0  0.6714770421420723  0.13129044517659594  0.26593104641301585  1.0000
  C   C45       1.0  0.11322918130910861  0.8770771764022601  0.7944479261991831  1.0000
  C   C46       1.0  0.6369847440437368  0.12358124949034989  0.20468501671860648  1.0000
  C   C47       1.0  0.11367725030784472  0.6793641611647274  0.6773845100516028  1.0000
  C   C48       1.0  0.611855578135689  0.3208159568622976  0.32223942088992896  1.0000
  C   C49       1.0  0.15984038954783128  0.7382372647975829  0.5898957777235411  1.0000
  C   C50       1.0  0.7058417250716361  0.26394626556197665  0.40754869243850333  1.0000
  C   C51       1.0  0.0705059586626007  0.8224221826041643  0.8871387676896488  1.0000
  C   C52       1.0  0.5672812658992897  0.1773987512676314  0.11296500785823581  1.0000
  C   C53       1.0  0.5692987939532301  0.9183159452912832  0.072307793447365  1.0000
  C   C54       1.0  0.07028345208956209  0.08162661678591825  0.9279811906836386  1.0000
  C   C55       1.0  0.5677235768859816  0.10673453025913911  0.0733151969328105  1.0000
  C   C56       1.0  0.0718837283960525  0.8930743028789154  0.926857232187011  1.0000
  C   C57       1.0  0.0107341653299073  0.6333818284228556  0.9105816466895577  1.0000
  C   C58       1.0  0.5211431237916885  0.3667778072277983  0.088886175170181  1.0000
  C   C59       1.0  0.43264095863485613  0.14391067925236461  0.7536654892036553  1.0000
  C   C60       1.0  0.9299883404127344  0.8561353792301535  0.24612710683351932  1.0000
  O   O1        1.0  0.4674428117532018  0.5631014359200961  0.44454890640736994  1.0000
  O   O2        1.0  0.9722322163583713  0.44227701915847456  0.5595925762793995  1.0000
  O   O3        1.0  0.8153763049030402  0.41763258172442624  0.44541749183415646  1.0000
  O   O4        1.0  0.30609244136076097  0.5787884860389384  0.5588158481928788  1.0000
  O   O5        1.0  0.809593167157722  0.5588135535766555  0.44164499612234204  1.0000
  O   O6        1.0  0.3140541811470712  0.435946467579484  0.5546675828250687  1.0000
  O   O7        1.0  0.9658871350869378  0.5824658350826013  0.5561634399322841  1.0000
  O   O8        1.0  0.47571128042422833  0.4214595375495378  0.43958152852496823  1.0000
  O   O9        1.0  0.6390182263629499  0.5064021285537877  0.5367902714145956  1.0000
  O   O10       1.0  0.14082094786194693  0.4935017038220408  0.4634155607652701  1.0000
  O   O11       1.0  0.7389276988363987  0.08005496431263032  0.0588945808546839  1.0000
  O   O12       1.0  0.2425927654296132  0.9189450973516671  0.9416045559601899  1.0000
  O   O13       1.0  0.397927434493667  0.9373739933324573  0.0556689958312475  1.0000
  O   O14       1.0  0.8985004078167336  0.06299712547805565  0.9449490313482798  1.0000
  O   O15       1.0  0.39760315701074944  0.08026405592773501  0.058896636067437697  1.0000
  O   O16       1.0  0.9013270484612549  0.9203334201607734  0.9409511741852513  1.0000
  O   O17       1.0  0.23992326873428033  0.06173478618909913  0.9452018197101355  1.0000
  O   O18       1.0  0.7393680059901869  0.937617195345766  0.054619239789524  1.0000
  O   O19       1.0  0.569999364564609  0.9957939150314133  0.9628850569970382  1.0000
  O   O20       1.0  0.06870430921051002  0.003972806143544001  0.0373150713785435  1.0000
  O   O21       1.0  0.9872846676266606  0.6332192280654853  0.9654979908738355  1.0000
  O   O22       1.0  0.011862181849984702  0.5725089592135504  0.8691068470631934  1.0000
  O   O23       1.0  0.5002943192937082  0.366932067155922  0.033963117589515  1.0000
  O   O24       1.0  0.5297804277526695  0.4278204141684511  0.1299908772107585  1.0000
  O   O25       1.0  0.41734354972140153  0.09297499221133883  0.7795393025529551  1.0000
  O   O26       1.0  0.6009522254464342  0.15651536089866616  0.7213102851151733  1.0000
  O   O27       1.0  0.9148363672677391  0.9069369119706251  0.22008007804871002  1.0000
  O   O28       1.0  0.09728019099063091  0.8436725245533624  0.278511057768732  1.0000
  F   F1        1.0  0.8130940402740164  0.2626773706698843  0.8319075986841115  1.0000
  F   F2        1.0  0.31510562705321393  0.7371855930904092  0.16869323413724402  1.0000
  F   F3        1.0  0.14948999195917176  0.9284750503047052  0.7055794525807714  1.0000
  F   F4        1.0  0.7113727098257671  0.0735791173708051  0.292139102324839  1.0000
  F   F5        1.0  0.09408927593715082  0.6163081014686966  0.6974300779883861  1.0000
  F   F6        1.0  0.5622931139878276  0.38240460711370633  0.3030161744135428  1.0000
  F   F7        1.0  0.024879208696319204  0.7737032162869896  0.9764929428761348  1.0000
  F   F8        1.0  0.511277590893407  0.22591653630578895  0.024111318792030503  1.0000
