data_image0
_chemical_formula_structural       Mn2H16C16N12O8
_chemical_formula_sum              "Mn2 H16 C16 N12 O8"
_cell_length_a       4.883639143003582
_cell_length_b       8.588290314497105
_cell_length_c       12.139542284220441
_cell_angle_alpha    91.64699292943399
_cell_angle_beta     90.0001225471546
_cell_angle_gamma    89.9999319279056

_space_group_name_H-M_alt    "P 1"
_space_group_IT_number       1

loop_
  _space_group_symop_operation_xyz
  'x, y, z'

loop_
  _atom_site_type_symbol
  _atom_site_label
  _atom_site_symmetry_multiplicity
  _atom_site_fract_x
  _atom_site_fract_y
  _atom_site_fract_z
  _atom_site_occupancy
  Mn  Mn1       1.0  0.5000008926745423  0.49999940453050556  0.4999997927553395  1.0000
  Mn  Mn2       1.0  2.047648848700001e-06  2.3290011767998736e-06  0.9999992225960952  1.0000
  H   H1        1.0  0.041127599438524995  0.8225380333287546  0.5051070471234027  1.0000
  H   H2        1.0  0.5411270900958057  0.6774604756895851  0.994892765237708  1.0000
  H   H3        1.0  0.9588741859160879  0.17745961229993407  0.4948941627425967  1.0000
  H   H4        1.0  0.45887264759660706  0.3225394975168072  0.0051060196854067  1.0000
  H   H5        1.0  0.7572693613030878  0.7523231291976059  0.3185052918764129  1.0000
  H   H6        1.0  0.2572709626058796  0.7476782466835843  0.1814947650017089  1.0000
  H   H7        1.0  0.24273037639254372  0.2476780102906844  0.6814951637658667  1.0000
  H   H8        1.0  0.7427308227387145  0.25232289137925784  0.8185040431042054  1.0000
  H   H9        1.0  0.8376997526154356  0.045712094264636995  0.2728495450087607  1.0000
  H   H10       1.0  0.3377011652143267  0.4542882603704114  0.227153029007539  1.0000
  H   H11       1.0  0.1622958897746685  0.9542878803678576  0.7271508874498522  1.0000
  H   H12       1.0  0.6623006201314253  0.5457117128353203  0.7728457559164496  1.0000
  H   H13       1.0  0.5795786897976002  0.1812914652874795  0.3164231296996149  1.0000
  H   H14       1.0  0.07958015400067349  0.3187090551272717  0.1835792251215764  1.0000
  H   H15       1.0  0.4204169525935341  0.8187096749145224  0.6835781497095397  1.0000
  H   H16       1.0  0.9204216313472673  0.6812909187908502  0.8164203835710281  1.0000
  C   C1        1.0  0.2125426372799879  0.8417882077376148  0.4500350714127421  1.0000
  C   C2        1.0  0.7125439028424411  0.6582108671554536  0.04996490111967229  1.0000
  C   C3        1.0  0.7874571004212852  0.1582094378917347  0.5499661384523833  1.0000
  C   C4        1.0  0.2874578825054925  0.3417891067626683  0.9500347075729323  1.0000
  C   C5        1.0  0.5757285599155678  0.8023449499753353  0.3564098437153119  1.0000
  C   C6        1.0  0.07573006445105793  0.6976565432138953  0.1435908827678318  1.0000
  C   C7        1.0  0.42427117778121476  0.19765502465584459  0.6435905887450488  1.0000
  C   C8        1.0  0.9242717208946943  0.30234342999183633  0.8564079021561568  1.0000
  C   C9        1.0  0.6162357912818023  0.0670358977288359  0.2758035663100955  1.0000
  C   C10       1.0  0.11623723268128573  0.43296459843029567  0.2241979958714992  1.0000
  C   C11       1.0  0.3837578034561134  0.9329629120472017  0.7241968429657248  1.0000
  C   C12       1.0  0.8837625050133084  0.5670353754884871  0.7758016128202384  1.0000
  C   C13       1.0  0.4988619375992088  0.07239063714105498  0.1585563756619806  1.0000
  C   C14       1.0  0.9988621400482105  0.42760961256226426  0.3414446876747022  1.0000
  C   C15       1.0  0.5011357524464158  0.9276093382031689  0.8414448805661222  1.0000
  C   C16       1.0  0.0011396452975417997  0.5723903606434675  0.6585540972492794  1.0000
  N   N1        1.0  0.490273653570533  0.9494253248806716  0.34278516818832117  1.0000
  N   N2        1.0  0.9902736649934384  0.5505747364955909  0.1572150633732932  1.0000
  N   N3        1.0  0.5097240364740615  0.050573484894052  0.65721524108924  1.0000
  N   N4        1.0  0.009728120352313902  0.449425236710141  0.8427837215506954  1.0000
  N   N5        1.0  0.25690887328946843  0.9766613096102719  0.40169174296764254  1.0000
  N   N6        1.0  0.7569127243006764  0.5233389023570042  0.0983091141919985  1.0000
  N   N7        1.0  0.7430888167573074  0.023337500876841888  0.5983094900785346  1.0000
  N   N8        1.0  0.24309110869841524  0.4766610708480669  0.901689670732857  1.0000
  N   N9        1.0  0.4042890387548823  0.7303467352366438  0.4241146373603613  1.0000
  N   N10       1.0  0.9042881617455834  0.7696533813640087  0.0758855211831602  1.0000
  N   N11       1.0  0.5957106989418932  0.269653239394529  0.5758857950999925  1.0000
  N   N12       1.0  0.09571157594785971  0.23034775741188437  0.9241141106904962  1.0000
  O   O1        1.0  0.24711524983527516  0.038643505126437085  0.1469501461111093  1.0000
  O   O2        1.0  0.747115443468964  0.4613580704073499  0.3530499028568315  1.0000
  O   O3        1.0  0.7528844878581681  0.9613576336494559  0.853049485762547  1.0000
  O   O4        1.0  0.2528883895301278  0.5386419027977282  0.6469488820680239  1.0000
  O   O5        1.0  0.6597949603649553  0.11645244450485139  0.08397412104286418  1.0000
  O   O6        1.0  0.15979342727224832  0.3835468581096038  0.4160266311771537  1.0000
  O   O7        1.0  0.3402027296806693  0.8835475308393723  0.9160271351852387  1.0000
  O   O8        1.0  0.8402083580735038  0.616453115096128  0.583972153746835  1.0000
