data_image0
_chemical_formula_structural       Mn2H12C8O8
_chemical_formula_sum              "Mn2 H12 C8 O8"
_cell_length_a       4.927305116013684
_cell_length_b       6.050969450117473
_cell_length_c       9.697110197089971
_cell_angle_alpha    102.80085322563245
_cell_angle_beta     90.00026223862149
_cell_angle_gamma    89.99988573139937

_space_group_name_H-M_alt    "P 1"
_space_group_IT_number       1

loop_
  _space_group_symop_operation_xyz
  'x, y, z'

loop_
  _atom_site_type_symbol
  _atom_site_label
  _atom_site_symmetry_multiplicity
  _atom_site_fract_x
  _atom_site_fract_y
  _atom_site_fract_z
  _atom_site_occupancy
  Mn  Mn1       1.0  0.18749794850867124  0.2500040692681367  0.4999977420156014  1.0000
  Mn  Mn2       1.0  0.8124982289020581  0.7500074777626583  0.5000024281362059  1.0000
  H   H1        1.0  0.7235844638906813  0.2463320819519411  0.1297228531584906  1.0000
  H   H2        1.0  0.7235877801594128  0.25366541668045534  0.8702693090927198  1.0000
  H   H3        1.0  0.27641171353419486  0.7536625155064129  0.8702759921157793  1.0000
  H   H4        1.0  0.27641854476032535  0.7463342817841084  0.1297219953834414  1.0000
  H   H5        1.0  0.7338040207730145  0.9453493672793772  0.08264824997269932  1.0000
  H   H6        1.0  0.7338183792371779  0.5546402518207432  0.9173456820874576  1.0000
  H   H7        1.0  0.2661779501263339  0.05464521970544212  0.9173557500083334  1.0000
  H   H8        1.0  0.266189975228599  0.44534756873757436  0.0826511899269633  1.0000
  H   H9        1.0  0.0223515863053194  0.09796833275744635  0.1653430331488224  1.0000
  H   H10       1.0  0.022352201436639504  0.40202468553913934  0.8346571823453316  1.0000
  H   H11       1.0  0.9776303846034153  0.902017778393159  0.8346608198656824  1.0000
  H   H12       1.0  0.9776480350122227  0.597976684620072  0.165345698095706  1.0000
  C   C1        1.0  0.6832489849828748  0.08344964922886791  0.3031560267078177  1.0000
  C   C2        1.0  0.6832645642080166  0.41655972971059907  0.6968469740070375  1.0000
  C   C3        1.0  0.31674313343176413  0.91654664088297  0.6968440850886637  1.0000
  C   C4        1.0  0.3167539377726741  0.5834552089015121  0.30315263638935613  1.0000
  C   C5        1.0  0.8006167518440749  0.09529554022370952  0.16155282558408152  1.0000
  C   C6        1.0  0.8006234831779082  0.40469848978886364  0.8384441904403984  1.0000
  C   C7        1.0  0.1993692780516056  0.9046973603955523  0.8384468150412658  1.0000
  C   C8        1.0  0.19938284177520427  0.5952994992562426  0.16155409506500013  1.0000
  O   O1        1.0  0.8447393620771638  0.03885345599704242  0.398111976590819  1.0000
  O   O2        1.0  0.8447478943409833  0.4611507010871493  0.601887581367194  1.0000
  O   O3        1.0  0.1552446383140449  0.9611597753069534  0.6018935838522026  1.0000
  O   O4        1.0  0.1552624896490613  0.5388557491185255  0.3981180677206453  1.0000
  O   O5        1.0  0.43087172446587363  0.11388200506527112  0.3217284783843084  1.0000
  O   O6        1.0  0.430901415580891  0.3861225354770285  0.6782629484988689  1.0000
  O   O7        1.0  0.5691163349320051  0.8861193692913149  0.6782723401542938  1.0000
  O   O8        1.0  0.5691333224491543  0.6138788514346062  0.32173168442436406  1.0000
