data_image0
_chemical_formula_structural       Zn8H12C48Cl12O26
_chemical_formula_sum              "Zn8 H12 C48 Cl12 O26"
_cell_length_a       18.151577259139422
_cell_length_b       18.242173807732122
_cell_length_c       18.23171736034861
_cell_angle_alpha    61.50918065078948
_cell_angle_beta     61.390843078768114
_cell_angle_gamma    61.29807905714817

_space_group_name_H-M_alt    "P 1"
_space_group_IT_number       1

loop_
  _space_group_symop_operation_xyz
  'x, y, z'

loop_
  _atom_site_type_symbol
  _atom_site_label
  _atom_site_symmetry_multiplicity
  _atom_site_fract_x
  _atom_site_fract_y
  _atom_site_fract_z
  _atom_site_occupancy
  Zn  Zn1       1.0  0.9488511084746988  0.14466978957896257  0.9419621881926122  1.0000
  Zn  Zn2       1.0  0.9501789861389226  0.9697762749125545  0.9349224926652653  1.0000
  Zn  Zn3       1.0  0.943585402113456  0.9742971847552652  0.11269346069571687  1.0000
  Zn  Zn4       1.0  0.12186927395787005  0.972233168258775  0.9439151100680119  1.0000
  Zn  Zn5       1.0  0.5332978015697378  0.3860550831042033  0.5264811673279511  1.0000
  Zn  Zn6       1.0  0.5408616828862022  0.5602029920691294  0.5234001153074673  1.0000
  Zn  Zn7       1.0  0.3601939674825801  0.557422402402693  0.5296720827614436  1.0000
  Zn  Zn8       1.0  0.5282097523612563  0.5583969260334455  0.35406541787522633  1.0000
  H   H1        1.0  0.6773147776724784  0.2113480195097637  0.8916713487115402  1.0000
  H   H2        1.0  0.8152006078486522  0.3217070753942508  0.5661907570719223  1.0000
  H   H3        1.0  0.8998929031400066  0.2190374112411745  0.19019885042722273  1.0000
  H   H4        1.0  0.571278809113565  0.3149027264599411  0.2759119645098238  1.0000
  H   H5        1.0  0.1910989443736071  0.20996722225778797  0.6688821676141928  1.0000
  H   H6        1.0  0.29187612728753726  0.3190882464732994  0.7967604530171073  1.0000
  H   H7        1.0  0.6717642850529515  0.9298073490080155  0.18013495033227397  1.0000
  H   H8        1.0  0.8077230926448067  0.6030397984207739  0.2705533746314399  1.0000
  H   H9        1.0  0.19439888800370406  0.6941542861745943  0.8995411475682645  1.0000
  H   H10       1.0  0.3066996603152534  0.8279895989645494  0.5737086162672114  1.0000
  H   H11       1.0  0.19562823615962086  0.9304810702627506  0.19132519173258095  1.0000
  H   H12       1.0  0.26795262296253247  0.6050456650774548  0.29165118242881516  1.0000
  C   C1        1.0  0.8567749707747367  0.1508642706373564  0.8415533538756108  1.0000
  C   C2        1.0  0.8000536671794267  0.209475208346106  0.7826442540343309  1.0000
  C   C3        1.0  0.707760384528676  0.23481678461565283  0.8203801700875603  1.0000
  C   C4        1.0  0.6542779470850705  0.2905768963713129  0.7668159069677927  1.0000
  C   C5        1.0  0.6923697425084184  0.3220698563862285  0.6750921728884052  1.0000
  C   C6        1.0  0.7846741325442109  0.2973917979277658  0.637411080090907  1.0000
  C   C7        1.0  0.8381517610051291  0.24110279252141703  0.6909951162186873  1.0000
  C   C8        1.0  0.6348968277152451  0.3800153918910567  0.6168978813579784  1.0000
  C   C9        1.0  0.8487537236283985  0.15510691241589566  0.12176549323393707  1.0000
  C   C10       1.0  0.7896298824634799  0.2128976066509694  0.17941615573440128  1.0000
  C   C11       1.0  0.8279685002345829  0.23945977317475098  0.2091634472900311  1.0000
  C   C12       1.0  0.7741070752178842  0.29239135686943035  0.2633107540043584  1.0000
  C   C13       1.0  0.6815938327117551  0.3197910698840829  0.2877458386497195  1.0000
  C   C14       1.0  0.6432136755923067  0.2937011417345873  0.2576091636320968  1.0000
  C   C15       1.0  0.6970705708675311  0.24023956808312616  0.20392959213231873  1.0000
  C   C16       1.0  0.6232908984923285  0.3771895315758655  0.34577578487613175  1.0000
  C   C17       1.0  0.13075588392705126  0.1525413452292312  0.8476594123274808  1.0000
  C   C18       1.0  0.1883812630202826  0.210215198109907  0.7885386308007442  1.0000
  C   C19       1.0  0.21314225171883552  0.23363861345580966  0.6971337261628962  1.0000
  C   C20       1.0  0.2659942620394844  0.28772829223473906  0.6418288070412573  1.0000
  C   C21       1.0  0.29461395531938445  0.3188103660269732  0.6771695150854243  1.0000
  C   C22       1.0  0.2698494679698912  0.2953435498593962  0.7685785886191496  1.0000
  C   C23       1.0  0.216952616305008  0.24136342762479762  0.823866470814977  1.0000
  C   C24       1.0  0.3520207236996384  0.37672291696916466  0.6189891021797395  1.0000
  C   C25       1.0  0.8514379470174519  0.8778711947942454  0.11323691497806726  1.0000
  C   C26       1.0  0.7939281397618528  0.8198158975145943  0.16956324705956405  1.0000
  C   C27       1.0  0.7018060060779588  0.8582711007551965  0.19918898622292847  1.0000
  C   C28       1.0  0.6479716529785763  0.8050977991879334  0.2538293275937634  1.0000
  C   C29       1.0  0.6855116601141588  0.7130347725177161  0.2800906688069489  1.0000
  C   C30       1.0  0.7776317976737561  0.6745854211241421  0.2504987502290064  1.0000
  C   C31       1.0  0.831438267860854  0.7277430601531305  0.19534977512092414  1.0000
  C   C32       1.0  0.6282465456118376  0.6549122508039102  0.3400664530291452  1.0000
  C   C33       1.0  0.1340530394832627  0.8732603891195295  0.8476251335570596  1.0000
  C   C34       1.0  0.19400125115365802  0.8154363487170642  0.7899189596817208  1.0000
  C   C35       1.0  0.21847422871095287  0.7237834178004618  0.8281978100657668  1.0000
  C   C36       1.0  0.27379182378885514  0.6698550335891439  0.7750232098954726  1.0000
  C   C37       1.0  0.30560836922020945  0.70683014619307  0.6832451093752071  1.0000
  C   C38       1.0  0.28211780322230606  0.7984483387193889  0.6450212702972422  1.0000
  C   C39       1.0  0.2263470273286716  0.8523833662979426  0.6981400593255811  1.0000
  C   C40       1.0  0.361995539732881  0.6497517179191163  0.6247215456750722  1.0000
  C   C41       1.0  0.12278020872629024  0.8828648139283429  0.12760670501052823  1.0000
  C   C42       1.0  0.17837452954041316  0.8232836344017754  0.18735655321999897  1.0000
  C   C43       1.0  0.21089134264944684  0.859315142380524  0.21349513878239884  1.0000
  C   C44       1.0  0.26343622900470365  0.8039776715901965  0.26803522028748716  1.0000
  C   C45       1.0  0.28453635363867863  0.7122967650762033  0.29633400085704426  1.0000
  C   C46       1.0  0.25185823827484904  0.6762726937260195  0.2703128416496271  1.0000
  C   C47       1.0  0.1987304330728178  0.731655684226766  0.21633651301617368  1.0000
  C   C48       1.0  0.3438520150663536  0.652560579206984  0.3524403210515317  1.0000
  Cl  Cl1       1.0  0.5400194387755234  0.32176471971583  0.814695960227148  1.0000
  Cl  Cl2       1.0  0.9524515902180966  0.21062553804827644  0.6434787622725511  1.0000
  Cl  Cl3       1.0  0.8224670999871719  0.32502221794464964  0.2995805437744536  1.0000
  Cl  Cl4       1.0  0.6487241728546495  0.20809921961207323  0.16716919954013323  1.0000
  Cl  Cl5       1.0  0.29607402224223733  0.31648032604909554  0.5286249829240077  1.0000
  Cl  Cl6       1.0  0.18688182181139726  0.21265345703472596  0.9370592309004167  1.0000
  Cl  Cl7       1.0  0.5338927791431374  0.8536350676477724  0.28973202155633965  1.0000
  Cl  Cl8       1.0  0.9455552572149202  0.679136118005907  0.16012192542481796  1.0000
  Cl  Cl9       1.0  0.3036928751270054  0.5563553700037501  0.8234539599091732  1.0000
  Cl  Cl10      1.0  0.19688606631830657  0.9658507518198006  0.6497950225899559  1.0000
  Cl  Cl11      1.0  0.30370064885345016  0.8492528696033901  0.2998703059212033  1.0000
  Cl  Cl12      1.0  0.158753316934103  0.6864213752673647  0.18416195355087706  1.0000
  O   O1        1.0  0.9911330405895667  0.014783862964996798  0.9830332058041408  1.0000
  O   O2        1.0  0.878253191523001  0.06814424151568231  0.8605990171264822  1.0000
  O   O3        1.0  0.8760136302476198  0.19083251016343894  0.8676202508061976  1.0000
  O   O4        1.0  0.6211201576310544  0.4624545064877807  0.5894801721036274  1.0000
  O   O5        1.0  0.6066002278125637  0.3398937158855801  0.6002639941705752  1.0000
  O   O6        1.0  0.8675307228166319  0.07250117514758608  0.16138727461687824  1.0000
  O   O7        1.0  0.8752547253793851  0.19452675318115104  0.039389405655484225  1.0000
  O   O8        1.0  0.597140817683851  0.45959287879212235  0.30622470024329823  1.0000
  O   O9        1.0  0.6055669929577975  0.3374662554605904  0.4282958872615197  1.0000
  O   O10       1.0  0.17077707084065705  0.0698244693767549  0.8677931374690644  1.0000
  O   O11       1.0  0.047615296012246205  0.1925431404893914  0.8705331745465942  1.0000
  O   O12       1.0  0.3116218915609608  0.4593618276920354  0.598208785615995  1.0000
  O   O13       1.0  0.43527933533574265  0.337095001439053  0.5980960878050045  1.0000
  O   O14       1.0  0.8696443189323944  0.9024285025176438  0.1553972469725408  1.0000
  O   O15       1.0  0.8748387066018356  0.897600144173488  0.030177442930309332  1.0000
  O   O16       1.0  0.6024191927183153  0.632612230178445  0.3024163393375046  1.0000
  O   O17       1.0  0.6126920475440301  0.6328380268492066  0.42220414790444505  1.0000
  O   O18       1.0  0.17254306560699462  0.8933427103379826  0.8746781817476261  1.0000
  O   O19       1.0  0.051147974936675805  0.895360036236127  0.864363432394406  1.0000
  O   O20       1.0  0.3195198541953915  0.624722094597729  0.6073323125976631  1.0000
  O   O21       1.0  0.44537364600478924  0.6336606194606558  0.5974081684400476  1.0000
  O   O22       1.0  0.1651892716161001  0.9059446049309018  0.0455915384937525  1.0000
  O   O23       1.0  0.039207081660855236  0.9047106253317453  0.1651037913147135  1.0000
  O   O24       1.0  0.3062046329216273  0.6335467524301989  0.43540881255906805  1.0000
  O   O25       1.0  0.42622367820518287  0.6264508444456068  0.3106253243530049  1.0000
  O   O26       1.0  0.49087057184837596  0.5159230777784102  0.48374831485508457  1.0000
