data_image0
_chemical_formula_structural       Cu4H64C90I4N8
_chemical_formula_sum              "Cu4 H64 C90 I4 N8"
_cell_length_a       7.01661502505476
_cell_length_b       19.766172208915158
_cell_length_c       19.75919895403123
_cell_angle_alpha    88.17703042425096
_cell_angle_beta     79.75704423626689
_cell_angle_gamma    79.78676577578696

_space_group_name_H-M_alt    "P 1"
_space_group_IT_number       1

loop_
  _space_group_symop_operation_xyz
  'x, y, z'

loop_
  _atom_site_type_symbol
  _atom_site_label
  _atom_site_symmetry_multiplicity
  _atom_site_fract_x
  _atom_site_fract_y
  _atom_site_fract_z
  _atom_site_occupancy
  Cu  Cu1       1.0  0.8747209645972587  0.054046432659880794  0.44601188428797656  1.0000
  Cu  Cu2       1.0  0.37484960768286146  0.9460035018497592  0.5540894959608876  1.0000
  Cu  Cu3       1.0  0.6787152457929438  0.44603152107003297  0.9459556933726886  1.0000
  Cu  Cu4       1.0  0.0708536015537575  0.5539853947825789  0.0540364080616129  1.0000
  H   H1        1.0  0.8808140012451419  0.20585675735601677  0.4298581841808868  1.0000
  H   H2        1.0  0.6336907816474093  0.31326664795592046  0.4408527687482433  1.0000
  H   H3        1.0  0.18568626269109262  0.18609219506300428  0.4970438627838263  1.0000
  H   H4        1.0  0.44921339631072504  0.08549911373652459  0.48413519774921104  1.0000
  H   H5        1.0  0.04307290720733189  0.27698197955982096  0.5619215969670962  1.0000
  H   H6        1.0  0.774901658113194  0.3759865644287643  0.5759148111044397  1.0000
  H   H7        1.0  0.1044939601482256  0.48187470310342906  0.41468556320241845  1.0000
  H   H8        1.0  0.3700252730684355  0.38228141071015637  0.39887012778772407  1.0000
  H   H9        1.0  0.5167639658924302  0.7941650284602273  0.570280405362496  1.0000
  H   H10       1.0  0.3880760015454286  0.6866957607626956  0.55932754595964  1.0000
  H   H11       1.0  0.8694127277056081  0.8138795390304238  0.5029111579005344  1.0000
  H   H12       1.0  0.019430187066504297  0.9144511925569743  0.5159019519609558  1.0000
  H   H13       1.0  0.8826660893427488  0.7230899453052542  0.4380947525517556  1.0000
  H   H14       1.0  0.7273366042217969  0.624147598314991  0.4239841361990955  1.0000
  H   H15       1.0  0.0013718294904377594  0.5180110380011627  0.585022962523027  1.0000
  H   H16       1.0  0.15144830194000022  0.6175688260229606  0.601025868232334  1.0000
  H   H17       1.0  0.6893424696309652  0.4298608871172007  0.7940229593546633  1.0000
  H   H18       1.0  0.9258256370474454  0.4409636142769031  0.6866174865474902  1.0000
  H   H19       1.0  0.31685330361315067  0.4972067914149035  0.8140425561583627  1.0000
  H   H20       1.0  0.06592828454300534  0.4841818712702234  0.9145729587715296  1.0000
  H   H21       1.0  0.3948880248203465  0.5621458586846799  0.7229705478774237  1.0000
  H   H22       1.0  0.6492728568377828  0.5761093909522614  0.6238983812119656  1.0000
  H   H23       1.0  0.48118059617205217  0.41489084128386355  0.5180852895096351  1.0000
  H   H24       1.0  0.2313517719180495  0.3990813588632989  0.6177491043229892  1.0000
  H   H25       1.0  0.9128578783989026  0.5702867612992717  0.2059392692452633  1.0000
  H   H26       1.0  0.05255100020875864  0.5593228268873033  0.3133964921103072  1.0000
  H   H27       1.0  0.6275064953151598  0.5026970979994373  0.18612390461179723  1.0000
  H   H28       1.0  0.4644429424222879  0.5156665664819897  0.08554496358156169  1.0000
  H   H29       1.0  0.6790696293061131  0.4379961256715602  0.2769722340090013  1.0000
  H   H30       1.0  0.8489596828490631  0.4240632199210665  0.3758323236497815  1.0000
  H   H31       1.0  0.4144209826018398  0.5852839671938098  0.4818513749017511  1.0000
  H   H32       1.0  0.24792976280408405  0.6010785032206626  0.3823808698744742  1.0000
  H   H33       1.0  0.8690078478338351  0.07036440930900768  0.29405674390657305  1.0000
  H   H34       1.0  0.11633832105635383  0.0591777260536475  0.18661861640541844  1.0000
  H   H35       1.0  0.5637229764366865  0.0025890518281457  0.31397637623683045  1.0000
  H   H36       1.0  0.29992523544315447  0.0157786397606046  0.4145402880025415  1.0000
  H   H37       1.0  0.7065579037631267  0.9377947876700856  0.22304928523612222  1.0000
  H   H38       1.0  0.9751075432539694  0.9238741409537565  0.12408114750909494  1.0000
  H   H39       1.0  0.6462276123487385  0.08493845276048968  0.01803437657312655  1.0000
  H   H40       1.0  0.38036206071748063  0.10079766346382969  0.11758194661391028  1.0000
  H   H41       1.0  0.23324090123654903  0.9297589311130136  0.7060294745366349  1.0000
  H   H42       1.0  0.36196167011449626  0.9409091177514808  0.813426148386938  1.0000
  H   H43       1.0  0.8803559301029436  0.997397233871304  0.686019499469495  1.0000
  H   H44       1.0  0.7302803401104755  0.9842586000713779  0.5854852881469695  1.0000
  H   H45       1.0  0.8677173878445997  0.06216072342806459  0.7769624445949717  1.0000
  H   H46       1.0  0.02349774223841913  0.07594052632268948  0.8758938619194723  1.0000
  H   H47       1.0  0.7493836970352415  0.9147666371749568  0.9818443040456017  1.0000
  H   H48       1.0  0.5986284579199295  0.8991382149483085  0.8823369395866791  1.0000
  H   H49       1.0  0.0607536151018239  0.7058038496412208  0.07042588317331422  1.0000
  H   H50       1.0  0.8247338802806253  0.8132177256137609  0.05934500183563064  1.0000
  H   H51       1.0  0.4337139780404087  0.68604990446876  0.002690880017311766  1.0000
  H   H52       1.0  0.6841622729040112  0.5854982875319051  0.015757913270910258  1.0000
  H   H53       1.0  0.35545559163055157  0.7768370903192332  0.9380742852911865  1.0000
  H   H54       1.0  0.10100379678471659  0.8757637246863221  0.9241024858655323  1.0000
  H   H55       1.0  0.26952652617342215  0.9818125899663386  0.08507870826853288  1.0000
  H   H56       1.0  0.5193467529898828  0.8822774176482464  0.10095610742682476  1.0000
  H   H57       1.0  0.8362682100429526  0.29427586972900593  0.9297591767934604  1.0000
  H   H58       1.0  0.6965045987545435  0.18683168348108126  0.9407776281250619  1.0000
  H   H59       1.0  0.12157576897993017  0.3139931754240024  0.99713663166893  1.0000
  H   H60       1.0  0.2845817441939573  0.4145529268489624  0.9841622588080412  1.0000
  H   H61       1.0  0.06980954300886572  0.2229421687776422  0.0620443863130831  1.0000
  H   H62       1.0  0.900916015040785  0.12381712486999416  0.07605103582199743  1.0000
  H   H63       1.0  0.33660816699783436  0.0181421493086944  0.9148465513792275  1.0000
  H   H64       1.0  0.502243524560882  0.11783050078186358  0.8989609741461351  1.0000
  C   C1        1.0  0.7242449710154801  0.203965282340441  0.4443284800701478  1.0000
  C   C2        1.0  0.5845673059610944  0.2639040162805272  0.4502895521844295  1.0000
  C   C3        1.0  0.38392242151202516  0.2601623474991825  0.4701887252479723  1.0000
  C   C4        1.0  0.33719694102554587  0.19418168529023916  0.4821616762185243  1.0000
  C   C5        1.0  0.48477895835078016  0.13689804712439718  0.4747154816655695  1.0000
  C   C6        1.0  0.2269551606293587  0.32116429910065847  0.47885028242681227  1.0000
  C   C7        1.0  0.056221104042251  0.3214300159268361  0.5283745682409915  1.0000
  C   C8        1.0  0.9036312392445321  0.3779682806268525  0.5364231352230746  1.0000
  C   C9        1.0  0.9154201248436353  0.43640817074718535  0.49507118895835583  1.0000
  C   C10       1.0  0.088182391110692  0.43661198087286107  0.4465713247567109  1.0000
  C   C11       1.0  0.24050090645822997  0.3803958200336197  0.43820499477605074  1.0000
  C   C12       1.0  0.3728393624226314  0.7960129200299376  0.5557945340584071  1.0000
  C   C13       1.0  0.2990820345713062  0.7360519050212415  0.5498324885424566  1.0000
  C   C14       1.0  0.11467034554777909  0.7398130792575868  0.5298734652827193  1.0000
  C   C15       1.0  0.014018897582104659  0.8057818143850355  0.5178531468983182  1.0000
  C   C16       1.0  0.09685930982072202  0.8630589761732425  0.5253116390084926  1.0000
  C   C17       1.0  0.027369923295630406  0.6788125413081687  0.5211311734835107  1.0000
  C   C18       1.0  0.906604021329315  0.6785958148314818  0.4715769639815689  1.0000
  C   C19       1.0  0.8185500895673953  0.6220763079879956  0.463456654756193  1.0000
  C   C20       1.0  0.8472515603961455  0.5635930037575462  0.5047418274681661  1.0000
  C   C21       1.0  0.9717456885403593  0.5633203468443212  0.5532155191579021  1.0000
  C   C22       1.0  0.05944577091433685  0.6195172107856736  0.5616913996706075  1.0000
  C   C23       1.0  0.8313590129969054  0.44436707440705453  0.7959648571934892  1.0000
  C   C24       1.0  0.9652278440259535  0.45041530683123193  0.7360299329835129  1.0000
  C   C25       1.0  0.14586827030365856  0.47034822342662597  0.7398381206829542  1.0000
  C   C26       1.0  0.1803705122750683  0.4823036975725968  0.8058674648293903  1.0000
  C   C27       1.0  0.04005249560776741  0.4747930775735723  0.8631320421373587  1.0000
  C   C28       1.0  0.2943546191140526  0.479034747333884  0.6788500744495211  1.0000
  C   C29       1.0  0.41544661900402946  0.5285784375424285  0.6785407370977269  1.0000
  C   C30       1.0  0.5601024531040864  0.5365990627231056  0.621975113926318  1.0000
  C   C31       1.0  0.5898299457953656  0.4952420054563829  0.5635529424897782  1.0000
  C   C32       1.0  0.4655135466632882  0.4467757653156425  0.5633510795218656  1.0000
  C   C33       1.0  0.32155378673296986  0.43839124116520595  0.6196130553762984  1.0000
  C   C34       1.0  0.07124337799259456  0.5557200414191853  0.2040640838721686  1.0000
  C   C35       1.0  0.15099141804645913  0.5497557813238954  0.2640217610337885  1.0000
  C   C36       1.0  0.35534502885123215  0.5297671110693186  0.2602482709842135  1.0000
  C   C37       1.0  0.4679661662367422  0.5177022384876436  0.19424452224204458  1.0000
  C   C38       1.0  0.3776383473677853  0.5251489011390472  0.13696108855663167  1.0000
  C   C39       1.0  0.4515726237131191  0.5211079891048485  0.32121314234781556  1.0000
  C   C40       1.0  0.6219527386440756  0.4715906455621661  0.32140322411726874  1.0000
  C   C41       1.0  0.718329841683989  0.4635546440524718  0.3778859134020536  1.0000
  C   C42       1.0  0.648498824514313  0.5048877890529794  0.436342532374681  1.0000
  C   C43       1.0  0.4756138445656076  0.5533794277052664  0.4365987850290054  1.0000
  C   C44       1.0  0.3792233769779685  0.5617551847841966  0.3804516458856498  1.0000
  C   C45       1.0  0.02550358811630819  0.055742134508832905  0.29596833424167107  1.0000
  C   C46       1.0  0.1653343163852057  0.0496410660609854  0.23600381731205292  1.0000
  C   C47       1.0  0.3658815798476098  0.029615823974808095  0.23981216779214518  1.0000
  C   C48       1.0  0.4123557759519373  0.017611461922960793  0.3058379513905649  1.0000
  C   C49       1.0  0.2646351358479677  0.025192627993582992  0.36310830430067403  1.0000
  C   C50       1.0  0.5230466463986331  0.0208803292860225  0.17882426966578174  1.0000
  C   C51       1.0  0.6936647728666472  0.9713718721915257  0.17860409667382973  1.0000
  C   C52       1.0  0.8464419736417456  0.963335823136013  0.12206819270328131  1.0000
  C   C53       1.0  0.834976095169324  0.0046478122461621986  0.06358618345275593  1.0000
  C   C54       1.0  0.6622074870603426  0.053075262251027794  0.06332977107592085  1.0000
  C   C55       1.0  0.5097490898677037  0.061477381882426074  0.11952857769941258  1.0000
  C   C56       1.0  0.37705426867022845  0.9443602644025476  0.7041010355774944  1.0000
  C   C57       1.0  0.4508444618279412  0.9504311889901231  0.7640348529183855  1.0000
  C   C58       1.0  0.6352186588252307  0.9704287048351715  0.7602193251870376  1.0000
  C   C59       1.0  0.7358003019184739  0.9824090058686394  0.6941865462117606  1.0000
  C   C60       1.0  0.6529205440770696  0.9748574406297901  0.6369264496061574  1.0000
  C   C61       1.0  0.7228268167769938  0.979083137024709  0.8211676379668872  1.0000
  C   C62       1.0  0.8438562210297391  0.0285618966758747  0.82139461568471  1.0000
  C   C63       1.0  0.9321824246872481  0.0364946589965314  0.8779013996607644  1.0000
  C   C64       1.0  0.9035179042645323  0.9951248372178367  0.9363482477725426  1.0000
  C   C65       1.0  0.7789183130646079  0.946679608745214  0.9365804981756155  1.0000
  C   C66       1.0  0.6909208807427796  0.9383915936597371  0.880398725044877  1.0000
  C   C67       1.0  0.9188788939174442  0.7039297190874547  0.05580226515050401  1.0000
  C   C68       1.0  0.7852066036917337  0.7638758495129351  0.04976644847938865  1.0000
  C   C69       1.0  0.604621842644235  0.7601296936624848  0.029775339543462547  1.0000
  C   C70       1.0  0.5700603531083247  0.6941597199885549  0.01772981798434607  1.0000
  C   C71       1.0  0.7101256964929731  0.6368898485384094  0.02521718799331295  1.0000
  C   C72       1.0  0.4562485031206833  0.8210956071393624  0.021078850261822876  1.0000
  C   C73       1.0  0.33502883308551634  0.8213016079981513  0.9715879206153988  1.0000
  C   C74       1.0  0.19038421673878472  0.8778152113624526  0.9635279026683606  1.0000
  C   C75       1.0  0.16077718260805798  0.9362925200154065  0.004792741934359393  1.0000
  C   C76       1.0  0.2851308493695087  0.9365390706188701  0.053244840599070566  1.0000
  C   C77       1.0  0.4291255712595331  0.8803549188459526  0.061657067731957164  1.0000
  C   C78       1.0  0.6778194610665544  0.2961488532406661  0.9442690666926624  1.0000
  C   C79       1.0  0.5980635779071335  0.23619124393420776  0.9502533366236321  1.0000
  C   C80       1.0  0.39371332621784894  0.23991269549406263  0.970213692032182  1.0000
  C   C81       1.0  0.2810991618109  0.30588257230315463  0.9822105176305058  1.0000
  C   C82       1.0  0.3714271554104584  0.36316961360976296  0.97473532597364  1.0000
  C   C83       1.0  0.2978377942652342  0.1788751874458683  0.978915373724334  1.0000
  C   C84       1.0  0.12745370580225307  0.17853077566344666  0.02847196737171489  1.0000
  C   C85       1.0  0.03157711399329336  0.1219261614213636  0.03654877226504281  1.0000
  C   C86       1.0  0.10191010633324954  0.06351545975160629  0.995195078811662  1.0000
  C   C87       1.0  0.27490749608237064  0.06338076854229507  0.9467134507582101  1.0000
  C   C88       1.0  0.3708275434943995  0.11965436822713826  0.938294283050908  1.0000
  C   C89       1.0  0.7502935412359124  0.5000305602778993  0.4999161221803234  1.0000
  C   C90       1.0  0.00035061935742659596  0.9998833428008348  0.9999836033839885  1.0000
  I   I1        1.0  0.6752692886921138  0.9496657214183981  0.44971903305126654  1.0000
  I   I2        1.0  0.07449810487576516  0.050296188845848584  0.5503244519932338  1.0000
  I   I3        1.0  0.8745742507851303  0.4496809724568178  0.05034599813159692  1.0000
  I   I4        1.0  0.3748937782093548  0.550386958982159  0.9496947658574372  1.0000
  N   N1        1.0  0.6773587454989284  0.14060073052328897  0.456141329715507  1.0000
  N   N2        1.0  0.2744788808474967  0.8593589300156024  0.5439367759127975  1.0000
  N   N3        1.0  0.8661948313640123  0.4561398884865254  0.8593789169448771  1.0000
  N   N4        1.0  0.18140604702455934  0.5438125704112621  0.14068217286296664  1.0000
  N   N5        1.0  0.07213827869581024  0.0439324336469866  0.3593749792011849  1.0000
  N   N6        1.0  0.4753383548739547  0.9561735951351336  0.6406884367152658  1.0000
  N   N7        1.0  0.8839138433759572  0.6405727203611348  0.04393150821670124  1.0000
  N   N8        1.0  0.5676650035066969  0.35949965039532117  0.9561063279847206  1.0000
