data_image0
_chemical_formula_structural       Zn2H44C64N20O8
_chemical_formula_sum              "Zn2 H44 C64 N20 O8"
_cell_length_a       9.466349117978181
_cell_length_b       11.9827637942389
_cell_length_c       14.149
_cell_angle_alpha    78.0483348893372
_cell_angle_beta     88.74548562447372
_cell_angle_gamma    88.79735068952871

_space_group_name_H-M_alt    "P 1"
_space_group_IT_number       1

loop_
  _space_group_symop_operation_xyz
  'x, y, z'

loop_
  _atom_site_type_symbol
  _atom_site_label
  _atom_site_symmetry_multiplicity
  _atom_site_fract_x
  _atom_site_fract_y
  _atom_site_fract_z
  _atom_site_occupancy
  Zn  Zn1       1.0  0.15566560637380178  0.44122220964763414  0.8237259906673486  1.0000
  Zn  Zn2       1.0  0.8443332170471083  0.5587786332586759  0.17628016893435464  1.0000
  H   H1        1.0  0.3192573117219624  0.3153988202853881  0.017645832539244587  1.0000
  H   H2        1.0  0.680748029245045  0.6845934911805216  0.9823603143205945  1.0000
  H   H3        1.0  0.2445001175158765  0.6644900050131781  0.9083395245872126  1.0000
  H   H4        1.0  0.7554903595626145  0.3355057190288946  0.09167189560551492  1.0000
  H   H5        1.0  0.07644737052604708  0.5194478398534486  0.344161627030239  1.0000
  H   H6        1.0  0.9235588848391175  0.48055129676478  0.6558426026687485  1.0000
  H   H7        1.0  0.0291638140101185  0.3410963719254525  0.1187105788540421  1.0000
  H   H8        1.0  0.9708348849607944  0.6589104429891393  0.881288174319302  1.0000
  H   H9        1.0  0.3932516710825809  0.5318133095746163  0.22656581396067574  1.0000
  H   H10       1.0  0.6067408836922326  0.4681841207555379  0.7734445697836706  1.0000
  H   H11       1.0  0.4415166123124337  0.6774202560890643  0.32286646897389204  1.0000
  H   H12       1.0  0.5584673294413848  0.322584852537446  0.6771398672496218  1.0000
  H   H13       1.0  0.3968321746990995  0.943148177199916  0.06741418618398134  1.0000
  H   H14       1.0  0.6031699430520022  0.0568466936981125  0.9325823710845285  1.0000
  H   H15       1.0  0.35195776946959256  0.7983611021082596  0.971285473819897  1.0000
  H   H16       1.0  0.6480582444361573  0.2016260904934057  0.0287143468189512  1.0000
  H   H17       1.0  0.6818248231790918  0.896635617262831  0.5435145358699314  1.0000
  H   H18       1.0  0.3181761134952765  0.1033652256434792  0.45648311161232163  1.0000
  H   H19       1.0  0.471079452180561  0.9300046401139356  0.44100718185051585  1.0000
  H   H20       1.0  0.52891213486037  0.0699885244960186  0.5589940695038322  1.0000
  H   H21       1.0  0.7031448439651697  0.8074240512491428  0.21621204156114254  1.0000
  H   H22       1.0  0.2968434131884266  0.1925767916571743  0.7837836713581511  1.0000
  H   H23       1.0  0.9152412160936478  0.7792472630277488  0.31641433069121666  1.0000
  H   H24       1.0  0.08475021094014322  0.22075357987856142  0.68357709521365  1.0000
  H   H25       1.0  0.570162107985432  0.0984690319957764  0.2764905251781187  1.0000
  H   H26       1.0  0.4298368221069068  0.9015266920462892  0.7235031021025619  1.0000
  H   H27       1.0  0.44360740728925663  0.2818361337371229  0.2681520734260161  1.0000
  H   H28       1.0  0.5564041134309932  0.7181638560251429  0.7318392077741223  1.0000
  H   H29       1.0  0.05666304154031109  0.1262363110777898  0.20873242266407738  1.0000
  H   H30       1.0  0.9433419082981301  0.8737747695570093  0.7912647840565725  1.0000
  H   H31       1.0  0.1843992987101757  0.9434612810627314  0.2123085528269328  1.0000
  H   H32       1.0  0.8155899439558709  0.0565429744197417  0.7876886674463179  1.0000
  H   H33       1.0  0.5671977183742243  0.6446851192599681  0.5932928883846245  1.0000
  H   H34       1.0  0.43279976396281233  0.355329373950994  0.4067087765637112  1.0000
  H   H35       1.0  0.29111408796944  0.3792344699622348  0.5522734843605761  1.0000
  H   H36       1.0  0.70887709016435  0.6207783169606387  0.44772574512689534  1.0000
  H   H37       1.0  0.1491727050689775  0.0790361170441685  0.8563692072985347  1.0000
  H   H38       1.0  0.8508292526749841  0.9209664321502232  0.14363519361371146  1.0000
  H   H39       1.0  0.8812337249276254  0.1316972860802181  0.0921258792644508  1.0000
  H   H40       1.0  0.11876925388592244  0.868306969402262  0.9078803277316893  1.0000
  H   H41       1.0  0.8986968227313809  0.9401707044990105  0.5899737698527615  1.0000
  H   H42       1.0  0.10130937929807261  0.05983099155133691  0.41001658324046997  1.0000
  H   H43       1.0  0.23985059159067387  0.7256066846333553  0.5502530551160733  1.0000
  H   H44       1.0  0.7601401521663861  0.2743762422481097  0.4497401094030735  1.0000
  C   C1        1.0  0.3157097003289095  0.40719882531757184  0.010932741735430799  1.0000
  C   C2        1.0  0.6842955873023868  0.5927960455804566  0.9890736637932276  1.0000
  C   C3        1.0  0.2773401864263647  0.5842193885425857  0.9530693827616474  1.0000
  C   C4        1.0  0.7226587436659743  0.4157763354994799  0.04694050008479421  1.0000
  C   C5        1.0  0.0908182596917797  0.4572980028003784  0.29863858101710866  1.0000
  C   C6        1.0  0.9091889456286921  0.5427062526820947  0.7013604964323363  1.0000
  C   C7        1.0  0.061769688538568304  0.36749008910246767  0.1842563538282818  1.0000
  C   C8        1.0  0.9382343469017086  0.6325141663800053  0.8157420632894841  1.0000
  C   C9        1.0  0.3681103937309871  0.6558826347898545  0.09362825970607959  1.0000
  C   C10       1.0  0.6318927806468437  0.3441122361081739  0.9063781767772809  1.0000
  C   C11       1.0  0.3941163425378349  0.6218984950856523  0.192414092222549  1.0000
  C   C12       1.0  0.6058826053330719  0.3780963758123761  0.807591699406494  1.0000
  C   C13       1.0  0.4205824737687962  0.7037986166733532  0.24598058342248658  1.0000
  C   C14       1.0  0.5794185695770081  0.2961971073687195  0.7540236143594186  1.0000
  C   C15       1.0  0.4221676696181333  0.8201026248331188  0.2020005699151355  1.0000
  C   C16       1.0  0.5778227719032145  0.1798948054970282  0.7980027771466283  1.0000
  C   C17       1.0  0.39546146553601597  0.8531602501094825  0.10267294970419266  1.0000
  C   C18       1.0  0.6045427476899761  0.1468354739325903  0.8973290813544779  1.0000
  C   C19       1.0  0.3691246646588837  0.7714427013464231  0.04858699757232189  1.0000
  C   C20       1.0  0.6308817507134279  0.2285487569754494  0.9514171628839492  1.0000
  C   C21       1.0  0.8144936854451643  0.8417289731125308  0.4342236362116624  1.0000
  C   C22       1.0  0.18550306027942304  0.1582701635057049  0.5657687178001112  1.0000
  C   C23       1.0  0.6884765955980967  0.8821193714158895  0.4700445379732727  1.0000
  C   C24       1.0  0.3115244477477006  0.1178763526261761  0.5299504718801558  1.0000
  C   C25       1.0  0.5694324657817162  0.8997299706972655  0.4127706751178978  1.0000
  C   C26       1.0  0.43056526545532137  0.1002725784971261  0.5872288403576532  1.0000
  C   C27       1.0  0.5749784949110649  0.8771762548459705  0.31925501273828877  1.0000
  C   C28       1.0  0.4250108366478358  0.1228237349162953  0.6807443678872644  1.0000
  C   C29       1.0  0.6991188120969909  0.8311167143943338  0.2864680187859037  1.0000
  C   C30       1.0  0.30086733180314706  0.1688841285119835  0.713526311560635  1.0000
  C   C31       1.0  0.8188342588583454  0.8140973439329358  0.34305375895782214  1.0000
  C   C32       1.0  0.1811581892450391  0.1859052052614558  0.6569401797946597  1.0000
  C   C33       1.0  0.3861887641281285  0.0069394736243922  0.2465630884396361  1.0000
  C   C34       1.0  0.6138079282607478  0.9930622224259622  0.7534330580595991  1.0000
  C   C35       1.0  0.4577203189699475  0.1042396982848572  0.2607773422227027  1.0000
  C   C36       1.0  0.5422775011599441  0.8957585851893343  0.7392236268414366  1.0000
  C   C37       1.0  0.386233042311602  0.2075315535408677  0.2572336655721159  1.0000
  C   C38       1.0  0.6137741452303018  0.7924735550856497  0.7427567813476088  1.0000
  C   C39       1.0  0.2414785705182894  0.21436609044828714  0.2387872109754667  1.0000
  C   C40       1.0  0.7585296203146328  0.7856415776103418  0.7612055994269085  1.0000
  C   C41       1.0  0.1701173201730768  0.12040336527375932  0.22029370111124544  1.0000
  C   C42       1.0  0.829884548678031  0.8796034496408325  0.7797042988663135  1.0000
  C   C43       1.0  0.24178257526303074  0.0173427120526952  0.2236274260327278  1.0000
  C   C44       1.0  0.7582151559739998  0.9826598371416965  0.7763713826791019  1.0000
  C   C45       1.0  0.3388690532319387  0.5240121604694465  0.6715300702731426  1.0000
  C   C46       1.0  0.661124309269603  0.475997213877271  0.32847184601070006  1.0000
  C   C47       1.0  0.03694291439775551  0.2447474028700043  0.942299146360682  1.0000
  C   C48       1.0  0.9630611921568075  0.7552534400363058  0.057706229090527486  1.0000
  C   C49       1.0  0.5375505685823185  0.5821308919317545  0.5518278218863202  1.0000
  C   C50       1.0  0.4624502258634847  0.4178767761268817  0.4481686306761716  1.0000
  C   C51       1.0  0.42004242636251377  0.5136618169716414  0.5813520097089648  1.0000
  C   C52       1.0  0.5799573114565533  0.4863458510869876  0.418645871858331  1.0000
  C   C53       1.0  0.3827533564188101  0.43175742966374037  0.528734961703961  1.0000
  C   C54       1.0  0.6172389316774343  0.5682527978270144  0.47126116658243683  1.0000
  C   C55       1.0  0.0843093680647726  0.0439070580377816  0.9193944922641607  1.0000
  C   C56       1.0  0.9156978905914103  0.9560946380125729  0.08061422120866978  1.0000
  C   C57       1.0  0.0171625537459832  0.11825429543605992  0.9713901165638106  1.0000
  C   C58       1.0  0.982850059158139  0.8817439880381315  0.028615583163492914  1.0000
  C   C59       1.0  0.9326244308510425  0.0732057306722638  0.052035699395929697  1.0000
  C   C60       1.0  0.0673849232800379  0.9267968185221278  0.9479728337572269  1.0000
  C   C61       1.0  0.9686601477403444  0.8791299546984277  0.5650526134691347  1.0000
  C   C62       1.0  0.03134299108034361  0.1208666224876822  0.4349415093008915  1.0000
  C   C63       1.0  0.13914142381851494  0.7713403240615762  0.5418429706142406  1.0000
  C   C64       1.0  0.8608471889065186  0.2286434559639261  0.4581493687309077  1.0000
  N   N1        1.0  0.0952125071842644  0.8445921245120189  0.5995426243706206  1.0000
  N   N2        1.0  0.9047897350168341  0.1553967743777278  0.4004479108153943  1.0000
  N   N3        1.0  0.04791473322716661  0.7588502953105234  0.47451740781615837  1.0000
  N   N4        1.0  0.9520768715923396  0.24114201615538633  0.5254726846834998  1.0000
  N   N5        1.0  0.2612115305875164  0.48130376980838463  0.9330562741955077  1.0000
  N   N6        1.0  0.7387915726760355  0.5186945136657997  0.06695097835542897  1.0000
  N   N7        1.0  0.3642853241399919  0.458442922102563  0.07748246043480121  1.0000
  N   N8        1.0  0.6357252821821008  0.541550242507391  0.9225220461458506  1.0000
  N   N9        1.0  0.3381233096473508  0.5716124790580039  0.03996571167733255  1.0000
  N   N10       1.0  0.6618809569143594  0.4283806855519501  0.9600431283498096  1.0000
  N   N11       1.0  0.013444791997926602  0.4578491338504591  0.21779458280064995  1.0000
  N   N12       1.0  0.986553045910533  0.542148296479688  0.7822093626833749  1.0000
  N   N13       1.0  0.18428469096957661  0.3722472202715821  0.3163959912184353  1.0000
  N   N14       1.0  0.8157215110598771  0.6277544757787652  0.6836014295120876  1.0000
  N   N15       1.0  0.16389042758850542  0.3158279517376954  0.2432020822297218  1.0000
  N   N16       1.0  0.8361167243962555  0.6841788631768964  0.756793013306158  1.0000
  N   N17       1.0  0.9375602925719804  0.828382387744938  0.4906822693993148  1.0000
  N   N18       1.0  0.06243965858994471  0.1716150425852163  0.5093103369103389  1.0000
  N   N19       1.0  0.45667671757120604  0.9009439946667186  0.2575587453315151  1.0000
  N   N20       1.0  0.543313688392999  0.0990551419515171  0.7424414759453911  1.0000
  O   O1        1.0  0.1140853225150309  0.2774927774275895  0.865214928774833  1.0000
  O   O2        1.0  0.8859283292372593  0.7225063591906391  0.1347955534562502  1.0000
  O   O3        1.0  0.9821392544522993  0.3102381519851747  0.9920547492096006  1.0000
  O   O4        1.0  0.0178637599183915  0.6897643972092169  0.007947515934105783  1.0000
  O   O5        1.0  0.25393902485254227  0.4396123268434522  0.7025617678856904  1.0000
  O   O6        1.0  0.7460490545153391  0.5603970475032582  0.29743810549372535  1.0000
  O   O7        1.0  0.3564219565885551  0.6060922954496633  0.7120002716818307  1.0000
  O   O8        1.0  0.6435851420604876  0.3939170788970543  0.28800073663269643  1.0000
