data_image0
_chemical_formula_structural       Cu2H8C20N12O4
_chemical_formula_sum              "Cu2 H8 C20 N12 O4"
_cell_length_a       7.057748254108737
_cell_length_b       7.057707234968496
_cell_length_c       12.14601752208476
_cell_angle_alpha    92.94540744149849
_cell_angle_beta     92.94663070741271
_cell_angle_gamma    109.11722082530557

_space_group_name_H-M_alt    "P 1"
_space_group_IT_number       1

loop_
  _space_group_symop_operation_xyz
  'x, y, z'

loop_
  _atom_site_type_symbol
  _atom_site_label
  _atom_site_symmetry_multiplicity
  _atom_site_fract_x
  _atom_site_fract_y
  _atom_site_fract_z
  _atom_site_occupancy
  Cu  Cu1       1.0  1.1470733106501127e-05  3.657811227199871e-06  0.9999983323721438  1.0000
  Cu  Cu2       1.0  0.999998723900653  3.191579089900091e-06  0.4999962098020063  1.0000
  H   H1        1.0  0.9532488424281595  0.358571001422085  0.0828493031052275  1.0000
  H   H2        1.0  0.6414104925693069  0.046744402895520024  0.41715359962417864  1.0000
  H   H3        1.0  0.04676200712816576  0.6414270587377755  0.9171534644078462  1.0000
  H   H4        1.0  0.3585780397403298  0.9532462347610462  0.5828508405140695  1.0000
  H   H5        1.0  0.15510789933314587  0.4236827155317471  0.025235560124258392  1.0000
  H   H6        1.0  0.5763110847552113  0.8448929763768406  0.4747723574323572  1.0000
  H   H7        1.0  0.8448996907463666  0.5763183536038669  0.9747663773036449  1.0000
  H   H8        1.0  0.42367932323433877  0.1550946901414179  0.5252353467465767  1.0000
  C   C1        1.0  0.6063244253589773  0.3936950586053313  0.7500107844101577  1.0000
  C   C2        1.0  0.39367719217305114  0.60631357655911  0.2499928423978517  1.0000
  C   C3        1.0  0.48232319115211914  0.5176829513973827  0.7500129444749248  1.0000
  C   C4        1.0  0.5176739762056002  0.4823166449812391  0.2499886739859676  1.0000
  C   C5        1.0  0.7666353658895064  0.4310827271888726  0.6779318186375746  1.0000
  C   C6        1.0  0.5689235627807961  0.2333778037601775  0.8220792924927948  1.0000
  C   C7        1.0  0.23336809255739877  0.5689273290193669  0.3220661321864  1.0000
  C   C8        1.0  0.43107649365997963  0.7666262652188534  0.17792005329547317  1.0000
  C   C9        1.0  0.8468591307540408  0.6168288785883432  0.6321813689350719  1.0000
  C   C10       1.0  0.3832003896791604  0.15311038816079053  0.8678202945713521  1.0000
  C   C11       1.0  0.15312813796597172  0.3831707708115887  0.3678216322145004  1.0000
  C   C12       1.0  0.6168027390650295  0.8468816310394872  0.1321788105620669  1.0000
  C   C13       1.0  0.7105145742680181  0.1433188579150695  0.8539107831784207  1.0000
  C   C14       1.0  0.8566602350511728  0.28949477902413884  0.6460729514830064  1.0000
  C   C15       1.0  0.2895073075364394  0.856695566868133  0.14608119198845768  1.0000
  C   C16       1.0  0.14332671779821754  0.7105168333301608  0.3539245984629956  1.0000
  C   C17       1.0  0.3777901899678682  0.5461627042235263  0.8410349165297362  1.0000
  C   C18       1.0  0.45382277190631737  0.6221980105227658  0.6589866351653838  1.0000
  C   C19       1.0  0.6222181954222847  0.4538278831379685  0.1589708779679739  1.0000
  C   C20       1.0  0.5461556621492392  0.37778805383324965  0.341010824791546  1.0000
  N   N1        1.0  0.921333861683536  0.770341059033413  0.5942454999283058  1.0000
  N   N2        1.0  0.22967274214754235  0.07866765921730938  0.905759405752569  1.0000
  N   N3        1.0  0.07867155916748912  0.22967496649390276  0.40574937015006174  1.0000
  N   N4        1.0  0.7703286100839507  0.9213318570975415  0.0942373826838505  1.0000
  N   N5        1.0  0.8187827632418064  0.0568922900324722  0.8822784531020673  1.0000
  N   N6        1.0  0.9431047348327439  0.18121118399867697  0.6177016271676621  1.0000
  N   N7        1.0  0.1812177503169466  0.9431132378277881  0.11771765065769559  1.0000
  N   N8        1.0  0.05690234104173442  0.8187927961387871  0.3822929643692845  1.0000
  N   N9        1.0  0.2913916058628772  0.5798167848891538  0.9155446882922219  1.0000
  N   N10       1.0  0.42017259109009336  0.7085990053632115  0.584482045082872  1.0000
  N   N11       1.0  0.7086194643498942  0.42019034952225104  0.0844616218029657  1.0000
  N   N12       1.0  0.5798073048894992  0.2913870992019482  0.41551874855010595  1.0000
  O   O1        1.0  0.08147627334351883  0.33262269771987  0.0790809491618774  1.0000
  O   O2        1.0  0.667356646453868  0.9185158466723208  0.420919868253506  1.0000
  O   O3        1.0  0.9185306711626565  0.6673722973621498  0.9209166913719002  1.0000
  O   O4        1.0  0.33262910710094223  0.08147485550961162  0.579088615848427  1.0000
