data_image0
_chemical_formula_structural       Zn2H26C46N4O18
_chemical_formula_sum              "Zn2 H26 C46 N4 O18"
_cell_length_a       9.801941994903808
_cell_length_b       10.954665884021363
_cell_length_c       15.260295369362847
_cell_angle_alpha    87.97952237299643
_cell_angle_beta     88.91387670904835
_cell_angle_gamma    89.93327218537914

_space_group_name_H-M_alt    "P 1"
_space_group_IT_number       1

loop_
  _space_group_symop_operation_xyz
  'x, y, z'

loop_
  _atom_site_type_symbol
  _atom_site_label
  _atom_site_symmetry_multiplicity
  _atom_site_fract_x
  _atom_site_fract_y
  _atom_site_fract_z
  _atom_site_occupancy
  Zn  Zn1       1.0  0.3657606377783438  0.511505860966565  0.509309448035836  1.0000
  Zn  Zn2       1.0  0.6536689819517605  0.514452466724606  0.4943759009613586  1.0000
  H   H1        1.0  0.4083868987521413  0.3415918852933473  0.2399199634386946  1.0000
  H   H2        1.0  0.1934258923180252  0.882270045852451  0.5151340685743977  1.0000
  H   H3        1.0  0.24757779350269965  0.9000162329950926  0.4021065154636574  1.0000
  H   H4        1.0  0.8613733416585986  0.39208595251665906  0.6848877340129818  1.0000
  H   H5        1.0  0.5509352369031149  0.7098995612750514  0.2175343072279432  1.0000
  H   H6        1.0  0.5658032428302278  0.8083578348099393  0.9078483199890286  1.0000
  H   H7        1.0  0.41042476650634535  0.2015323474440152  0.9459935684168528  1.0000
  H   H8        1.0  0.7399639779557035  0.9027165522992392  0.5444187671566496  1.0000
  H   H9        1.0  0.8300843841572174  0.08800005107644891  0.5803182733629202  1.0000
  H   H10       1.0  0.8945308197728749  0.09050389923621788  0.4282406715598485  1.0000
  H   H11       1.0  0.9319911205977077  0.2345940415263499  0.47408349111093173  1.0000
  H   H12       1.0  0.7825819825126316  0.21743310296447052  0.4119620105992325  1.0000
  H   H13       1.0  0.1840572348347678  0.21612595927585693  0.5654761788759473  1.0000
  H   H14       1.0  0.24545152388289893  0.24889087978336016  0.3955568789320552  1.0000
  H   H15       1.0  0.9918249110335606  0.5232066744224255  0.28580933559160127  1.0000
  H   H16       1.0  0.744573531775572  0.48104398658175285  0.2529280809746766  1.0000
  H   H17       1.0  0.7393406634988082  0.38541817288942337  0.3497189890727271  1.0000
  H   H18       1.0  0.8475967801854837  0.3464519460068445  0.2593897742323961  1.0000
  H   H19       1.0  0.25639951386973786  0.6705438468105598  0.37574281073995053  1.0000
  H   H20       1.0  0.2353992715975792  0.347667780126713  0.6988995450564275  1.0000
  H   H21       1.0  0.1283060865675978  0.6752962626286418  0.6919201751324665  1.0000
  H   H22       1.0  0.7858474336540056  0.6553674991126002  0.6525915902511914  1.0000
  H   H23       1.0  0.536741295451037  0.8683420486475059  0.14257605906424692  1.0000
  H   H24       1.0  0.5413672066466688  0.6955577538122172  0.6832298731432545  1.0000
  H   H25       1.0  0.4941289359614629  0.18471762657525662  0.8264338104975835  1.0000
  H   H26       1.0  0.34983086011327197  0.19050561494661625  0.18399547346817263  1.0000
  C   C1        1.0  0.5337370382657199  0.7448283075277756  0.5119687022877386  1.0000
  C   C2        1.0  0.44549701789411233  0.4086876703823846  0.10578901925626383  1.0000
  C   C3        1.0  0.5443768661607535  0.7330085668925863  0.03736966477612921  1.0000
  C   C4        1.0  0.5439532513871939  0.7261937283475532  0.9476129166193489  1.0000
  C   C5        1.0  0.5142331363903807  0.6153988299712482  0.9059285734552986  1.0000
  C   C6        1.0  0.4883117414933267  0.507685873163197  0.959314753515379  1.0000
  C   C7        1.0  0.46906134349541867  0.3929293874925364  0.9191932553645401  1.0000
  C   C8        1.0  0.43228531469023324  0.2895986389673482  0.9736605562515876  1.0000
  C   C9        1.0  0.4175037418511423  0.2960938672975573  0.0631152813223608  1.0000
  C   C10       1.0  0.5111187134272298  0.6084752690000813  0.8129675489092918  1.0000
  C   C11       1.0  0.49838177029356245  0.49435719202124073  0.7744862627275566  1.0000
  C   C12       1.0  0.49741939890108  0.49178235021902594  0.6752398806370365  1.0000
  C   C13       1.0  0.482013852012791  0.38645258768291074  0.826358235548412  1.0000
  C   C14       1.0  0.40942097672152045  0.9438516536336506  0.49526949488210203  1.0000
  C   C15       1.0  0.5286955139266638  0.8798631973207874  0.5138426146689028  1.0000
  C   C16       1.0  0.6445541731228275  0.950293882042864  0.5303350684041136  1.0000
  C   C17       1.0  0.6458964320218143  0.07874951660022589  0.525326791238875  1.0000
  C   C18       1.0  0.5217868473777969  0.1435545211917955  0.5072968109785165  1.0000
  C   C19       1.0  0.40772378630749984  0.0705529225585337  0.49588086841167484  1.0000
  C   C20       1.0  0.25382998313738636  0.07408329000004699  0.4738940737281397  1.0000
  C   C21       1.0  0.2621049583283579  0.9316636429322853  0.4687581240015106  1.0000
  C   C22       1.0  0.9321842461175793  0.4872212494101618  0.5605590395607722  1.0000
  C   C23       1.0  0.5078753737805143  0.2787070546254284  0.5015017929387326  1.0000
  C   C24       1.0  0.9543376386842652  0.5096261524086572  0.4124844356196036  1.0000
  C   C25       1.0  0.0932549496757105  0.5514766188580538  0.4249246269310661  1.0000
  C   C26       1.0  0.072456867915399  0.5000458879954477  0.5696907357025867  1.0000
  C   C27       1.0  0.06811805109437329  0.48076731384279003  0.6689137808717478  1.0000
  C   C28       1.0  0.9045236258211488  0.47881599365937433  0.658306016757571  1.0000
  C   C29       1.0  0.4868194033491164  0.527774377422311  0.33370693493765213  1.0000
  C   C30       1.0  0.4400068945707716  0.41849697268456504  0.19727580405754716  1.0000
  C   C31       1.0  0.4804504883196259  0.5258436768822392  0.23601194821264226  1.0000
  C   C32       1.0  0.5181855086794583  0.6285946093187178  0.18474487662474104  1.0000
  C   C33       1.0  0.5130163307444633  0.627134773367402  0.0928491134615044  1.0000
  C   C34       1.0  0.48185203286840306  0.5145100732816985  0.0524764952158563  1.0000
  C   C35       1.0  0.849344127402482  0.17138110486367714  0.4590938517798122  1.0000
  C   C36       1.0  0.1646473494829621  0.11987419705683071  0.5484492810804369  1.0000
  C   C37       1.0  0.2308305116354816  0.14866318376138568  0.3896393086599518  1.0000
  C   C38       1.0  0.8051955072928934  0.4222523518569615  0.29675446053201443  1.0000
  C   C39       1.0  0.169185223420115  0.6163484663148823  0.35362340976737994  1.0000
  C   C40       1.0  0.12265602317831538  0.3565127701213058  0.7032066133972138  1.0000
  C   C41       1.0  0.1262045980691227  0.5821072982444448  0.7240262219219034  1.0000
  C   C42       1.0  0.8290969906935928  0.5858401801132371  0.6991436546963926  1.0000
  C   C43       1.0  0.5729900755707502  0.8546021465583419  0.07401051003448342  1.0000
  C   C44       1.0  0.5214729256976156  0.717571414858476  0.752921450415947  1.0000
  C   C45       1.0  0.4791618018029027  0.26770204620481053  0.7838165766133187  1.0000
  C   C46       1.0  0.3708890106198766  0.18331327327996405  0.1125202882002441  1.0000
  N   N1        1.0  0.8668681660681655  0.49227961135809295  0.4848980314859617  1.0000
  N   N2        1.0  0.15417037474341558  0.5388956616489297  0.5038778756310052  1.0000
  N   N3        1.0  0.7704861055417708  0.14009231907491676  0.5394341031449414  1.0000
  N   N4        1.0  0.9184573693619738  0.49038476476869164  0.3305864792506981  1.0000
  O   O1        1.0  0.4214087547440003  0.6912451771330977  0.4974305164887484  1.0000
  O   O2        1.0  0.6486151678288294  0.6917623801218226  0.5241763432617148  1.0000
  O   O3        1.0  0.38151192416916757  0.5147434081849555  0.6415358418555925  1.0000
  O   O4        1.0  0.6093300922795563  0.478193384607046  0.6336879793632022  1.0000
  O   O5        1.0  0.3918896842478787  0.3238004068995224  0.5208424962122679  1.0000
  O   O6        1.0  0.6122352304999054  0.34019589780170617  0.4747849255242613  1.0000
  O   O7        1.0  0.38509296597278103  0.48169852342277875  0.376732963299098  1.0000
  O   O8        1.0  0.5922834442950206  0.5725966837698664  0.3672748537995076  1.0000
  O   O9        1.0  0.07883699672025558  0.05685680701812149  0.5870814581179502  1.0000
  O   O10       1.0  0.20434649685618209  0.10457730160363349  0.3196491100082214  1.0000
  O   O11       1.0  0.1344919710803296  0.6193640881858543  0.2759946203147052  1.0000
  O   O12       1.0  0.0486614044143892  0.275062343402979  0.7316732588807184  1.0000
  O   O13       1.0  0.16570444246658408  0.5628249729762301  0.7981425355946784  1.0000
  O   O14       1.0  0.8211083486384751  0.5958068273779276  0.7782296460321234  1.0000
  O   O15       1.0  0.6301677830506094  0.9377601661079709  0.03226734571415341  1.0000
  O   O16       1.0  0.5087225368214447  0.8246314632712028  0.7724883349823417  1.0000
  O   O17       1.0  0.4642470443645266  0.2578203389305571  0.704521388921883  1.0000
  O   O18       1.0  0.35322949568235623  0.08559503814362301  0.07777093440279971  1.0000
