data_image0
_chemical_formula_structural       Fe2Ni2H12C24N16F4
_chemical_formula_sum              "Fe2 Ni2 H12 C24 N16 F4"
_cell_length_a       6.8523070957491115
_cell_length_b       6.937918203839649
_cell_length_c       15.04752603170157
_cell_angle_alpha    90.00167291878415
_cell_angle_beta     89.92459747561566
_cell_angle_gamma    90.00011186508996

_space_group_name_H-M_alt    "P 1"
_space_group_IT_number       1

loop_
  _space_group_symop_operation_xyz
  'x, y, z'

loop_
  _atom_site_type_symbol
  _atom_site_label
  _atom_site_symmetry_multiplicity
  _atom_site_fract_x
  _atom_site_fract_y
  _atom_site_fract_z
  _atom_site_occupancy
  Fe  Fe1       1.0  0.012594775945942197  0.9999880383000885  0.5114874691479514  1.0000
  Fe  Fe2       1.0  0.013074630141900898  0.5000020263176452  0.9885064333915281  1.0000
  Ni  Ni1       1.0  0.5106436423729406  0.49998443156215433  0.5019359838687123  1.0000
  Ni  Ni2       1.0  0.5110790765250782  6.194158139299995e-06  0.9981454958039747  1.0000
  H   H1        1.0  0.596947770070976  0.9999974284777126  0.3943696606926892  1.0000
  H   H2        1.0  0.4016542908551912  0.4999944730612995  0.898313913242866  1.0000
  H   H3        1.0  0.4007710603261216  0.9999887078955823  0.6017785993833016  1.0000
  H   H4        1.0  0.596804131134739  0.5000219040454822  0.1055936743269328  1.0000
  H   H5        1.0  0.17130251790710818  0.9999851394224635  0.3039551847019765  1.0000
  H   H6        1.0  0.8203835861932589  0.5000332824454078  0.8138970966923367  1.0000
  H   H7        1.0  0.8188323823465851  1.494906266689999e-05  0.6859340584829992  1.0000
  H   H8        1.0  0.17061343003861404  0.4999846972222528  0.1960297301014791  1.0000
  H   H9        1.0  0.05092347100441691  1.0121630907599998e-05  0.14330156461262078  1.0000
  H   H10       1.0  0.9343136294822543  0.5000504379245713  0.6542914968287832  1.0000
  H   H11       1.0  0.9314727272342651  2.56946138393e-05  0.845589376091759  1.0000
  H   H12       1.0  0.0493063055273666  0.4999733212765988  0.35667764433450333  1.0000
  C   C1        1.0  0.6958124049482278  0.6864751160829241  0.5223991831575531  1.0000
  C   C2        1.0  0.3241884016731333  0.813667432773613  0.014574008586080798  1.0000
  C   C3        1.0  0.3238317335729591  0.6863189547697387  0.4854719717250261  1.0000
  C   C4        1.0  0.696353180862232  0.8134921052263736  0.9776655557540721  1.0000
  C   C5        1.0  0.3238450071374217  0.31364520380282807  0.4854679659347738  1.0000
  C   C6        1.0  0.6963358978402497  0.18652881830838197  0.977662394037864  1.0000
  C   C7        1.0  0.6958256683755409  0.31349579816672707  0.5224024853523588  1.0000
  C   C8        1.0  0.3241638331526032  0.18633227612804862  0.014562871716392997  1.0000
  C   C9        1.0  0.6993808437681679  0.9999931372529786  0.3389236209966241  1.0000
  C   C10       1.0  0.29550521001218755  0.499999855732419  0.84480894804566  1.0000
  C   C11       1.0  0.2941436527147373  0.9999943720020142  0.6552322495452002  1.0000
  C   C12       1.0  0.6988773955731133  0.5000093630770408  0.1610490549949404  1.0000
  C   C13       1.0  0.017030228910421403  0.9999915061601143  0.2873914102869505  1.0000
  C   C14       1.0  0.974122411155683  0.5000201494623012  0.7966820541337185  1.0000
  C   C15       1.0  0.9723943817391429  8.602648698299997e-06  0.7032390377870357  1.0000
  C   C16       1.0  0.0162494541146643  0.4999920440430685  0.2125917018306254  1.0000
  C   C17       1.0  0.6405893301895419  0.9999846124601462  0.250184958883672  1.0000
  C   C18       1.0  0.34895668222682014  0.5000074304340457  0.7557339450761303  1.0000
  C   C19       1.0  0.3469019813947653  1.1940943451999953e-06  0.7443543700155502  1.0000
  C   C20       1.0  0.639572906632992  0.4999988821015933  0.24977630457330235  1.0000
  C   C21       1.0  0.9506127039391927  0.9999982356217882  0.19971822673500125  1.0000
  C   C22       1.0  0.0382916367904258  0.5000284070953923  0.7090852236821091  1.0000
  C   C23       1.0  0.03583490494203549  1.3395195011899993e-05  0.7908420318631711  1.0000
  C   C24       1.0  0.9493073381960143  0.4999808995420522  0.3002604958268122  1.0000
  N   N1        1.0  0.8174150232291949  0.8048597959957462  0.5287914793368813  1.0000
  N   N2        1.0  0.20206943366009966  0.6949687464188302  0.015278718577100397  1.0000
  N   N3        1.0  0.20171326396829412  0.8049954655095632  0.48471967201598426  1.0000
  N   N4        1.0  0.8179782371571135  0.6951295961894671  0.9712380906829452  1.0000
  N   N5        1.0  0.2017193207923142  0.19495944661350248  0.48471928273489334  1.0000
  N   N6        1.0  0.8179696267441016  0.3048987053421682  0.9712339657361893  1.0000
  N   N7        1.0  0.817416696258789  0.1951307857279403  0.5287950809772113  1.0000
  N   N8        1.0  0.20205499314241845  0.3050232436028678  0.015269280986075296  1.0000
  N   N9        1.0  0.890831927628099  0.9999882947638666  0.3554393738302792  1.0000
  N   N10       1.0  0.10280852690200247  0.500005789527357  0.8652657776294673  1.0000
  N   N11       1.0  0.1016197431880315  0.9999947688850241  0.6346915804555167  1.0000
  N   N12       1.0  0.8904360758607268  0.5000035435693136  0.1445413992015645  1.0000
  N   N13       1.0  0.7586823083974322  0.9999958221712149  0.1815777695832992  1.0000
  N   N14       1.0  0.2292031455034049  0.5000210049827416  0.6878540664997388  1.0000
  N   N15       1.0  0.22661230878497923  8.693667169299998e-06  0.81217273848128  1.0000
  N   N16       1.0  0.7572545797535996  0.49998532454554107  0.318389168827693  1.0000
  F   F1        1.0  0.44666795739166787  0.9999735241425612  0.2312934972200082  1.0000
  F   F2        1.0  0.5426768349363655  0.5000029614860607  0.7359925321513854  1.0000
  F   F3        1.0  0.5404790750277826  1.0868324011399997e-05  0.7641936021681204  1.0000
  F   F4        1.0  0.4455577163452559  0.5000105315503304  0.2686525498875554  1.0000
