data_image0
_chemical_formula_structural       Dy2H26C36O28
_chemical_formula_sum              "Dy2 H26 C36 O28"
_cell_length_a       9.367072838176746
_cell_length_b       10.441667619892886
_cell_length_c       11.092498969429089
_cell_angle_alpha    77.62511571993464
_cell_angle_beta     70.51275557122385
_cell_angle_gamma    92.5595932390745

_space_group_name_H-M_alt    "P 1"
_space_group_IT_number       1

loop_
  _space_group_symop_operation_xyz
  'x, y, z'

loop_
  _atom_site_type_symbol
  _atom_site_label
  _atom_site_symmetry_multiplicity
  _atom_site_fract_x
  _atom_site_fract_y
  _atom_site_fract_z
  _atom_site_occupancy
  Dy  Dy1       1.0  0.766243470891638  0.03039339465092181  0.49809749118092117  1.0000
  Dy  Dy2       1.0  0.23375079382029176  0.9696003745670154  0.501903085288454  1.0000
  H   H1        1.0  0.0139660596801292  0.625658988048528  0.32980034770091027  1.0000
  H   H2        1.0  0.9860471399085996  0.3743529904015688  0.6701943256837026  1.0000
  H   H3        1.0  0.9423708587714759  0.5297806905262237  0.16965488140061058  1.0000
  H   H4        1.0  0.057631938207514076  0.47022916842728074  0.830336778340218  1.0000
  H   H5        1.0  0.6714117593430089  0.340113237000118  0.1688423438814226  1.0000
  H   H6        1.0  0.3286004749027213  0.6598790678712023  0.8311543665474087  1.0000
  H   H7        1.0  0.35506874857306053  0.5403586670128462  0.03708566547865644  1.0000
  H   H8        1.0  0.6449272611831772  0.4596302310032385  0.9629153061454048  1.0000
  H   H9        1.0  0.2875917653998811  0.7443913749533382  0.30293286222595833  1.0000
  H   H10       1.0  0.7124109585817492  0.25559673536864114  0.697066371592946  1.0000
  H   H11       1.0  0.7311713982306997  0.7326367108703522  0.42953104287863647  1.0000
  H   H12       1.0  0.2688396683707523  0.26734470857910253  0.5704688717144178  1.0000
  H   H13       1.0  0.6853725421815255  0.8428013098282394  0.3350234237750768  1.0000
  H   H14       1.0  0.31465217866746537  0.15719129485605524  0.6649724397980705  1.0000
  H   H15       1.0  0.6810122748654736  0.7648001885138528  0.7109726463973017  1.0000
  H   H16       1.0  0.3189982629805215  0.2352084719427907  0.28903509729999394  1.0000
  H   H17       1.0  0.7914710897324113  0.850469717003513  0.7505519091027466  1.0000
  H   H18       1.0  0.20854274375307819  0.14954818683720822  0.24944151145219703  1.0000
  H   H19       1.0  0.9367967321449341  0.2759032450785739  0.3005543359816656  1.0000
  H   H20       1.0  0.06319030808956681  0.7241079005821903  0.6994505213378229  1.0000
  H   H21       1.0  0.0425370907269667  0.21801823854348612  0.3808434128968725  1.0000
  H   H22       1.0  0.9574680961935299  0.7819927190102478  0.6191455745493073  1.0000
  H   H23       1.0  0.5201183607625027  0.20926523356199317  0.5076091142793401  1.0000
  H   H24       1.0  0.4798917949899035  0.7907289131986844  0.49239054933912735  1.0000
  H   H25       1.0  0.6509284764138243  0.28783592713278244  0.5309234443266745  1.0000
  H   H26       1.0  0.34908898546184725  0.7121524608029192  0.46907792300584805  1.0000
  C   C1        1.0  0.07840970781108335  0.8873443430409229  0.3189762332461043  1.0000
  C   C2        1.0  0.921602582931385  0.11266964384473971  0.6810156250341349  1.0000
  C   C3        1.0  0.0322598804440517  0.8287604312002372  0.22294401298786679  1.0000
  C   C4        1.0  0.9677282457888978  0.17124998226454122  0.7770516556032305  1.0000
  C   C5        1.0  0.0015168752952945043  0.6914672884526213  0.24394194084047877  1.0000
  C   C6        1.0  0.9984902439648025  0.3085514030822055  0.7560532175196215  1.0000
  C   C7        1.0  0.9597652709601617  0.6371379758609665  0.1540330436921309  1.0000
  C   C8        1.0  0.040214299002094805  0.36286697792098727  0.8459777349966231  1.0000
  C   C9        1.0  0.9450766865580533  0.7183296031461596  0.04141810721021957  1.0000
  C   C10       1.0  0.054911863418212206  0.2816853262352765  0.9585937562429616  1.0000
  C   C11       1.0  0.9676705146252473  0.8563632883408661  0.023864290258479966  1.0000
  C   C12       1.0  0.0323120606718632  0.1436593416904017  0.9761478493652476  1.0000
  C   C13       1.0  0.016189981354649833  0.9109389451964564  0.11160096625342658  1.0000
  C   C14       1.0  0.9837979130731755  0.08909086427224372  0.8884029701366173  1.0000
  C   C15       1.0  0.9222614245973804  0.6613806043729867  0.933100334303269  1.0000
  C   C16       1.0  0.07771359563338362  0.33863436938105457  0.06689727617347066  1.0000
  C   C17       1.0  0.061679700145781204  0.05390906482920601  0.08394947104809349  1.0000
  C   C18       1.0  0.9383167261999505  0.9461159400742719  0.9160583577455338  1.0000
  C   C19       1.0  0.6070821342195386  0.08071506825718441  0.2816715068293263  1.0000
  C   C20       1.0  0.39291813267259806  0.919271111339569  0.7183242569203471  1.0000
  C   C21       1.0  0.6034209417726261  0.1472807414173546  0.14929119426672335  1.0000
  C   C22       1.0  0.3965872781427464  0.8526949302808334  0.8507006416178837  1.0000
  C   C23       1.0  0.633017411928492  0.2850542100182524  0.1099613477888255  1.0000
  C   C24       1.0  0.3669877821458273  0.7149251565647464  0.8900369773498721  1.0000
  C   C25       1.0  0.5557130054566031  0.0760999121141666  0.072583280659714  1.0000
  C   C26       1.0  0.4442877476839442  0.9238803087866078  0.9274161334141053  1.0000
  C   C27       1.0  0.5366385251970058  0.929701641655214  0.11196580935436634  1.0000
  C   C28       1.0  0.46335178482956246  0.07028702318451963  0.8880395063742766  1.0000
  C   C29       1.0  0.4668300861999272  0.8549443193561714  0.042781986030767855  1.0000
  C   C30       1.0  0.5331518117068795  0.14504002880594416  0.9572318798217618  1.0000
  C   C31       1.0  0.4323687239990406  0.7160116914878928  0.08403207473220677  1.0000
  C   C32       1.0  0.567619640684718  0.28397991383494053  0.9159714488319677  1.0000
  C   C33       1.0  0.3840967752466541  0.647489292059028  0.006268419002431371  1.0000
  C   C34       1.0  0.6159054294853021  0.35250464372454365  0.9937326083513227  1.0000
  C   C35       1.0  0.43106871760221577  0.6317152579957721  0.2133196918406526  1.0000
  C   C36       1.0  0.568939492458213  0.36826093494720885  0.7866909887454836  1.0000
  O   O1        1.0  0.9825099081564163  0.9373121440007997  0.40142988759020415  1.0000
  O   O2        1.0  0.017515672386103593  0.06269914669716309  0.5985641477436658  1.0000
  O   O3        1.0  0.2122938141931101  0.8766535858488711  0.3237672403899409  1.0000
  O   O4        1.0  0.787697767981726  0.12334638632158602  0.6762176322876666  1.0000
  O   O5        1.0  0.0497165177939252  0.6611412402538265  0.8416196562583876  1.0000
  O   O6        1.0  0.9502604897785434  0.33888168953859593  0.15837505203394628  1.0000
  O   O7        1.0  0.7914245600154999  0.6225286109945503  0.9400729546066342  1.0000
  O   O8        1.0  0.20855513909170043  0.37749887913247454  0.05993820698758159  1.0000
  O   O9        1.0  0.1342526149262682  0.0944620029851677  0.14706062056843894  1.0000
  O   O10       1.0  0.8657382766960852  0.9055634349138376  0.8529243330348133  1.0000
  O   O11       1.0  0.7344921957333596  0.0703951531152001  0.29693031114719287  1.0000
  O   O12       1.0  0.26552147560592937  0.9296000811460702  0.703068170361277  1.0000
  O   O13       1.0  0.4782509246172495  0.047898474449112924  0.3745378786610445  1.0000
  O   O14       1.0  0.5217510598181505  0.9520827229171399  0.6254628167924778  1.0000
  O   O15       1.0  0.5870404546228374  0.8707123761636242  0.19631398246701784  1.0000
  O   O16       1.0  0.4129419593853854  0.12927629975630595  0.8036836238985925  1.0000
  O   O17       1.0  0.33097938930634996  0.6585456475651341  0.32277468658330827  1.0000
  O   O18       1.0  0.6690104034733367  0.3414381238605417  0.6772298585503973  1.0000
  O   O19       1.0  0.4989551747294315  0.5354408195818152  0.2222941556545733  1.0000
  O   O20       1.0  0.5010263700794726  0.46455058587002185  0.7777113145197062  1.0000
  O   O21       1.0  0.6808185037258098  0.8122743915275593  0.4268466062893451  1.0000
  O   O22       1.0  0.3192010476436025  0.1877121989302424  0.5731499932338692  1.0000
  O   O23       1.0  0.769163843114015  0.8328065431310991  0.6735361605873463  1.0000
  O   O24       1.0  0.23084912867516036  0.1672033935716044  0.32646165233665403  1.0000
  O   O25       1.0  0.9345943117147331  0.2241548697042434  0.39163371249080814  1.0000
  O   O26       1.0  0.06540586752321081  0.7758518489016383  0.6083637590840422  1.0000
  O   O27       1.0  0.6320190781064384  0.22115588351223184  0.48582453394522646  1.0000
  O   O28       1.0  0.3679914472444993  0.7788312725759072  0.5141808034220005  1.0000
