data_image0
_chemical_formula_structural       Cd2H24C30N6O14
_chemical_formula_sum              "Cd2 H24 C30 N6 O14"
_cell_length_a       8.18022641659206
_cell_length_b       10.260224140721034
_cell_length_c       11.391940845564774
_cell_angle_alpha    69.81600055327112
_cell_angle_beta     69.68314508119046
_cell_angle_gamma    68.41624655192231

_space_group_name_H-M_alt    "P 1"
_space_group_IT_number       1

loop_
  _space_group_symop_operation_xyz
  'x, y, z'

loop_
  _atom_site_type_symbol
  _atom_site_label
  _atom_site_symmetry_multiplicity
  _atom_site_fract_x
  _atom_site_fract_y
  _atom_site_fract_z
  _atom_site_occupancy
  Cd  Cd1       1.0  0.15511046818481591  0.07996302719928393  0.06210390930292681  1.0000
  Cd  Cd2       1.0  0.8448903258724486  0.9200385422423027  0.9378959924042928  1.0000
  H   H1        1.0  0.46888125069940406  0.04908384583153241  0.1355152241346218  1.0000
  H   H2        1.0  0.5311189878258203  0.9509155656454885  0.8644854672494232  1.0000
  H   H3        1.0  0.4050766032844565  0.2756542088825071  0.6195914008678257  1.0000
  H   H4        1.0  0.5949217595883738  0.7243430666810228  0.38040953078548506  1.0000
  H   H5        1.0  0.4020485600831877  0.6468829749517084  0.22693207213104216  1.0000
  H   H6        1.0  0.5979526090790589  0.35311751234716127  0.7730680596162642  1.0000
  H   H7        1.0  0.4385659119325567  0.2216486118142741  0.21767568019501474  1.0000
  H   H8        1.0  0.5614352572296896  0.7783518754845886  0.7823244515522914  1.0000
  H   H9        1.0  0.8631705622056601  0.4218128128153324  0.9730671969651539  1.0000
  H   H10       1.0  0.13683153759360778  0.5781887503053795  0.02693237514541379  1.0000
  H   H11       1.0  0.9007812947171276  0.238168852878161  0.536259241338733  1.0000
  H   H12       1.0  0.09921634670242693  0.7618305555104075  0.46374298824282784  1.0000
  H   H13       1.0  0.729430448215254  0.14920458963665345  0.6309811928031978  1.0000
  H   H14       1.0  0.27056848456795984  0.8507948281612417  0.3690198281774996  1.0000
  H   H15       1.0  0.005710752215122707  0.2513026726858811  0.2853092919213225  1.0000
  H   H16       1.0  0.9942891112051202  0.7486978209338562  0.714691169422636  1.0000
  H   H17       1.0  0.6672619306468304  0.9869709938510955  0.5387643782391719  1.0000
  H   H18       1.0  0.33273695900135186  0.013028471137388904  0.46123400572889744  1.0000
  H   H19       1.0  0.8277642866138636  0.4881938270849847  0.41336587971693445  1.0000
  H   H20       1.0  0.17223238103363062  0.5118045526723307  0.5866342724887373  1.0000
  H   H21       1.0  0.8308047592261899  0.9029575490037803  0.30622036466490943  1.0000
  H   H22       1.0  0.1691943252273944  0.09704514036178583  0.6937778785904669  1.0000
  H   H23       1.0  0.47094208947338967  0.8928644115519475  0.15825343349654028  1.0000
  H   H24       1.0  0.5290594404154946  0.1071350093343995  0.841746049286641  1.0000
  C   C1        1.0  0.44723470698719603  0.37365927582034436  0.5656897005634959  1.0000
  C   C2        1.0  0.5527649328709502  0.6263380248827064  0.4343091434847322  1.0000
  C   C3        1.0  0.6640704217272742  0.30640962431409957  0.08976029790802899  1.0000
  C   C4        1.0  0.3359290234529484  0.6935919986389436  0.910237296383215  1.0000
  C   C5        1.0  0.7220358921291706  0.6721195043625556  0.0444240950479582  1.0000
  C   C6        1.0  0.277966957880068  0.32787989447272997  0.9555759371427825  1.0000
  C   C7        1.0  0.47849131107298604  0.5513983871276907  0.1899784251488937  1.0000
  C   C8        1.0  0.5215081772422677  0.44860318863477044  0.8100218061549853  1.0000
  C   C9        1.0  0.6450353449390179  0.5455212127763005  0.09791951510162289  1.0000
  C   C10       1.0  0.3549658529799161  0.4544792430621742  0.9020823746541068  1.0000
  C   C11       1.0  0.49962958679822134  0.31002656951501717  0.18406902487278384  1.0000
  C   C12       1.0  0.5003724986227027  0.6899750093358891  0.815929668233579  1.0000
  C   C13       1.0  0.7362642945896242  0.4236701989191759  0.047677900679715834  1.0000
  C   C14       1.0  0.2637351793472861  0.5763313925734723  0.9523214516199516  1.0000
  C   C15       1.0  0.4090283477496328  0.43325637231727404  0.23106706849208083  1.0000
  C   C16       1.0  0.5909737520496352  0.566745190803438  0.7689325036184868  1.0000
  C   C17       1.0  0.7750422487283829  0.22152742996908614  0.5376625450858512  1.0000
  C   C18       1.0  0.22495218254007915  0.778469880287247  0.46233849635320456  1.0000
  C   C19       1.0  0.9360342218216648  0.16821717619038176  0.32071107549898403  1.0000
  C   C20       1.0  0.06396526649358941  0.8317843995720724  0.6792891558048949  1.0000
  C   C21       1.0  0.7579759269306268  0.18273348155265987  0.02681673971156321  1.0000
  C   C22       1.0  0.24202392211126522  0.8172670277972713  0.9731828426281837  1.0000
  C   C23       1.0  0.6322918140946783  0.36533008139510076  0.5164674128097317  1.0000
  C   C24       1.0  0.3677058129465324  0.6346693427236618  0.48353393776761766  1.0000
  C   C25       1.0  0.7583768597229722  0.029713190435074904  0.450486736773577  1.0000
  C   C26       1.0  0.2416229605622321  0.9702873503752514  0.5495110875577467  1.0000
  C   C27       1.0  0.6840457460806916  0.49288425474199493  0.45058135120613224  1.0000
  C   C28       1.0  0.31595395129083664  0.5071129830402726  0.5494210088589426  1.0000
  C   C29       1.0  0.8406078586343503  0.9890789948939943  0.33569003703322386  1.0000
  C   C30       1.0  0.15939160092421642  0.0109226123288551  0.6643084362622318  1.0000
  N   N1        1.0  0.22778921620744094  0.44222224970214813  0.31979950582733346  1.0000
  N   N2        1.0  0.7722106472128019  0.5577782439175891  0.6802009555166322  1.0000
  N   N3        1.0  0.951116094065455  0.07636477246827411  0.2559004571239285  1.0000
  N   N4        1.0  0.048885616250480275  0.9236378885253489  0.744098005942348  1.0000
  N   N5        1.0  0.8209226492405861  0.14287033559260462  0.43907110879660377  1.0000
  N   N6        1.0  0.17907535290560622  0.8571280063834481  0.560930471820832  1.0000
  O   O1        1.0  0.9183050437646684  0.16979519862587011  0.9554224976466372  1.0000
  O   O2        1.0  0.08169424974518336  0.8302031527595023  0.04457787436992788  1.0000
  O   O3        1.0  0.3860762402293433  0.986265407152736  0.176981447773322  1.0000
  O   O4        1.0  0.6139236088125558  0.013735102197195207  0.8230181345664319  1.0000
  O   O5        1.0  0.8399857717043847  0.679808901432537  0.9368888733910054  1.0000
  O   O6        1.0  0.16001670319986516  0.3201915795454653  0.06311092875964874  1.0000
  O   O7        1.0  0.6653083950406826  0.7687355527850246  0.1078475906499604  1.0000
  O   O8        1.0  0.33469446934689984  0.23126383032006007  0.8921533205449845  1.0000
  O   O9        1.0  0.667709240896265  0.09491812108502981  0.04599223228425587  1.0000
  O   O10       1.0  0.33229156753934325  0.9050834326263556  0.9540085484271827  1.0000
  O   O11       1.0  0.1256185260628726  0.563834015480822  0.33052654291256545  1.0000
  O   O12       1.0  0.8743813086006752  0.4361665095993104  0.669472160422977  1.0000
  O   O13       1.0  0.1855705069676645  0.32719754146559415  0.3776471522511996  1.0000
  O   O14       1.0  0.8144293420742346  0.6728029678843445  0.6223524300885471  1.0000
