data_image0
_chemical_formula_structural       Hg2H20C28S4N12
_chemical_formula_sum              "Hg2 H20 C28 S4 N12"
_cell_length_a       7.645375887342629
_cell_length_b       8.181754611632655
_cell_length_c       15.280790333032108
_cell_angle_alpha    92.45893067005882
_cell_angle_beta     90.02848193365521
_cell_angle_gamma    117.91623765298449

_space_group_name_H-M_alt    "P 1"
_space_group_IT_number       1

loop_
  _space_group_symop_operation_xyz
  'x, y, z'

loop_
  _atom_site_type_symbol
  _atom_site_label
  _atom_site_symmetry_multiplicity
  _atom_site_fract_x
  _atom_site_fract_y
  _atom_site_fract_z
  _atom_site_occupancy
  Hg  Hg1       1.0  0.4323818588266094  0.9997522146156327  0.2501947141523502  1.0000
  Hg  Hg2       1.0  0.5676237040806597  0.000249162948442504  0.7498042721771085  1.0000
  H   H1        1.0  0.3897228465529565  0.33470789150158003  0.3865925999378704  1.0000
  H   H2        1.0  0.05436703162178703  0.6651406827254362  0.11336766578521922  1.0000
  H   H3        1.0  0.6102559856603378  0.6652662015371007  0.6134170333651171  1.0000
  H   H4        1.0  0.9456299631407319  0.3348880132504846  0.8866200160790998  1.0000
  H   H5        1.0  0.12191244000081984  0.37990689325714294  0.46017984269185064  1.0000
  H   H6        1.0  0.7410946783958181  0.6201034030923579  0.0398658130369824  1.0000
  H   H7        1.0  0.8780392466076989  0.6200417210573904  0.539818900267001  1.0000
  H   H8        1.0  0.2589169652160805  0.3799571732827403  0.9601225460845273  1.0000
  H   H9        1.0  0.7179240362139085  0.8082179366623166  0.3866337404149292  1.0000
  H   H10       1.0  0.9103273254494865  0.1917422282930019  0.11357660760903342  1.0000
  H   H11       1.0  0.2820720894504091  0.19172538941102596  0.6133621671320242  1.0000
  H   H12       1.0  0.0896998054961814  0.8083022251348666  0.8864385873549028  1.0000
  H   H13       1.0  0.0009770086131695116  0.785551354958592  0.31782187296851566  1.0000
  H   H14       1.0  0.216400722927979  0.21434444166104066  0.18214952868402892  1.0000
  H   H15       1.0  0.9990350244795252  0.2144211402882448  0.6821739438955208  1.0000
  H   H16       1.0  0.7836151724545245  0.7856723381579297  0.8178645100501996  1.0000
  H   H17       1.0  0.7791836564543715  0.24753505162174597  0.512023128137564  1.0000
  H   H18       1.0  0.5309753576846462  0.7524427908969926  0.9881380192570577  1.0000
  H   H19       1.0  0.22077802979340785  0.7524074180548154  0.4879661905030801  1.0000
  H   H20       1.0  0.4690447798670618  0.24763213167073417  0.0118614184168209  1.0000
  C   C1        1.0  0.23810461516350762  0.2227469375507951  0.3868527510222465  1.0000
  C   C2        1.0  0.014960688265851792  0.7771161199447079  0.11315274212321211  1.0000
  C   C3        1.0  0.7618744650804173  0.7772250456809358  0.6131489351149639  1.0000
  C   C4        1.0  0.9850412962953712  0.2229120864193774  0.8868408142246907  1.0000
  C   C5        1.0  0.08836668261939448  0.24785402496029715  0.4268788182298806  1.0000
  C   C6        1.0  0.8399507238865451  0.7520704175072835  0.0732027050770085  1.0000
  C   C7        1.0  0.9116066217570448  0.7521011904901372  0.5731241322348739  1.0000
  C   C8        1.0  0.160056235629547  0.2479729539017583  0.9267921396760743  1.0000
  C   C9        1.0  0.896253034629119  0.09844507202156189  0.4271754591588604  1.0000
  C   C10       1.0  0.7975784417657367  0.9015137069850354  0.07299244608680773  1.0000
  C   C11       1.0  0.10371780146731878  0.9015026080804558  0.5728180075412156  1.0000
  C   C12       1.0  0.20243683525124825  0.09853581987736251  0.9270118254998537  1.0000
  C   C13       1.0  0.8632724165151018  0.9289292849961085  0.3864865898259923  1.0000
  C   C14       1.0  0.9346540912138862  0.0709865188424033  0.11366636407753823  1.0000
  C   C15       1.0  0.13671553229137604  0.07102122663628312  0.6135063420484741  1.0000
  C   C16       1.0  0.06536664198960557  0.9290529994283573  0.8863414199835875  1.0000
  C   C17       1.0  0.020963105747412773  0.9162014484005424  0.34828592811091863  1.0000
  C   C18       1.0  0.10529011762153571  0.0836809553671856  0.1517538929373856  1.0000
  C   C19       1.0  0.9790374201862307  0.08376634271890988  0.6517162404125261  1.0000
  C   C20       1.0  0.8947222229801712  0.9163417935772246  0.8482551550919412  1.0000
  C   C21       1.0  0.7406527485333712  0.1174822384012302  0.4743364383414744  1.0000
  C   C22       1.0  0.6228739286425126  0.8825199951398873  0.02578951218861651  1.0000
  C   C23       1.0  0.2593143353913375  0.8824527157032659  0.5256597714555937  1.0000
  C   C24       1.0  0.3771530817605964  0.1175451385873814  0.9742108275772098  1.0000
  C   C25       1.0  0.7342774301186309  0.4062243890318129  0.314343297150927  1.0000
  C   C26       1.0  0.327050276992047  0.5932928802091268  0.1861684731364903  1.0000
  C   C27       1.0  0.26572770480992614  0.5937499931806941  0.6856630765427243  1.0000
  C   C28       1.0  0.6729631981369124  0.406726923389769  0.813826043671817  1.0000
  S   S1        1.0  0.6733299461599246  0.3156537044827203  0.21242328569862684  1.0000
  S   S2        1.0  0.35614941598556993  0.6837400783340258  0.2880908759426077  1.0000
  S   S3        1.0  0.3266872208837058  0.684352556583903  0.7875837648928794  1.0000
  S   S4        1.0  0.643855036797021  0.31625647665237006  0.7118993949216235  1.0000
  N   N1        1.0  0.2050766819439858  0.05966886835999218  0.348264498481413  1.0000
  N   N2        1.0  0.14550734184973635  0.9401150365320419  0.1517460599899607  1.0000
  N   N3        1.0  0.7949182253565396  0.9403086028831352  0.6517380734108401  1.0000
  N   N4        1.0  0.8544954226720735  0.0599042681847024  0.8482543291459026  1.0000
  N   N5        1.0  0.5624308125769276  0.9808528588923907  0.4736739699260043  1.0000
  N   N6        1.0  0.5815893201493837  0.019162589457494095  0.026374093822582306  1.0000
  N   N7        1.0  0.4375344328123559  0.019081039149838778  0.5263182660186703  1.0000
  N   N8        1.0  0.418440474705527  0.9809159415718867  0.9736320448231268  1.0000
  N   N9        1.0  0.7809688798751607  0.47452822660631694  0.3857374874077096  1.0000
  N   N10       1.0  0.30588291059986267  0.5251382981783123  0.11478338816473153  1.0000
  N   N11       1.0  0.21904410265731403  0.5254409156201021  0.6142817670458458  1.0000
  N   N12       1.0  0.6941364032668744  0.4748931776734295  0.8852044122332006  1.0000
