data_image0
_chemical_formula_structural       Sm2H26C36O28
_chemical_formula_sum              "Sm2 H26 C36 O28"
_cell_length_a       9.302043248995513
_cell_length_b       10.484897936525027
_cell_length_c       11.112235073005063
_cell_angle_alpha    78.93343113140735
_cell_angle_beta     71.24377896355652
_cell_angle_gamma    93.55655342602277

_space_group_name_H-M_alt    "P 1"
_space_group_IT_number       1

loop_
  _space_group_symop_operation_xyz
  'x, y, z'

loop_
  _atom_site_type_symbol
  _atom_site_label
  _atom_site_symmetry_multiplicity
  _atom_site_fract_x
  _atom_site_fract_y
  _atom_site_fract_z
  _atom_site_occupancy
  Sm  Sm1       1.0  0.768317769131187  0.030273517581711908  0.5003512337616415  1.0000
  Sm  Sm2       1.0  0.23168805697127232  0.969725944148543  0.49964379098152994  1.0000
  H   H1        1.0  0.012999433341960315  0.6272642864892577  0.3196922303810156  1.0000
  H   H2        1.0  0.9869979984349585  0.37273107719404663  0.6802994419713927  1.0000
  H   H3        1.0  0.9388700567400291  0.5331283600649286  0.15836067665484435  1.0000
  H   H4        1.0  0.06113180309755959  0.4668660765037488  0.8416371646451071  1.0000
  H   H5        1.0  0.6707389513147178  0.343017866081297  0.1722378058856223  1.0000
  H   H6        1.0  0.32925192888458094  0.6569800720900505  0.8277650875486275  1.0000
  H   H7        1.0  0.36195250517803157  0.5412914431489995  0.029687765073795388  1.0000
  H   H8        1.0  0.6380422253256911  0.4587210435012424  0.9703278272992012  1.0000
  H   H9        1.0  0.2926149503179261  0.7407727566442263  0.2946531331085894  1.0000
  H   H10       1.0  0.7073738408383079  0.25922696558593133  0.7053572181222239  1.0000
  H   H11       1.0  0.7404254256973959  0.7426190609696449  0.4141688546758788  1.0000
  H   H12       1.0  0.2595677352665859  0.2573789532191242  0.5858334138801882  1.0000
  H   H13       1.0  0.6819072797017328  0.8487488073117507  0.3287924648330787  1.0000
  H   H14       1.0  0.3180914841791492  0.15124845445649976  0.6712057279986041  1.0000
  H   H15       1.0  0.6766877869180875  0.7578510527463961  0.7091885886123069  1.0000
  H   H16       1.0  0.3233052781850816  0.24214603140425345  0.2908102634845805  1.0000
  H   H17       1.0  0.7903053485063722  0.8413791737638905  0.7504974830730975  1.0000
  H   H18       1.0  0.2096933101117244  0.15861712068840464  0.24950000209017292  1.0000
  H   H19       1.0  0.9377087756824806  0.2817042616717275  0.3065490809381189  1.0000
  H   H20       1.0  0.062294332934222  0.7182911926475557  0.6934482526608863  1.0000
  H   H21       1.0  0.0463091751410474  0.22773497507283483  0.3840121215637283  1.0000
  H   H22       1.0  0.9536901213217205  0.772267148127078  0.6159878037494909  1.0000
  H   H23       1.0  0.5172426649839252  0.20997669621990417  0.510740050648309  1.0000
  H   H24       1.0  0.4827545298998217  0.7900271613350398  0.4892709441824865  1.0000
  H   H25       1.0  0.6472039097475034  0.28948053892722925  0.5374905247237153  1.0000
  H   H26       1.0  0.3527909743273483  0.7105125904397268  0.46251660991470095  1.0000
  C   C1        1.0  0.0858008565399544  0.8860813257041972  0.31333070414316927  1.0000
  C   C2        1.0  0.9141936772698642  0.11391874810680495  0.6866663467988233  1.0000
  C   C3        1.0  0.03155304036681627  0.8293505853150194  0.21871136040088865  1.0000
  C   C4        1.0  0.9684456276532528  0.17064574641511143  0.7812834159716149  1.0000
  C   C5        1.0  0.999665735984003  0.693129452370009  0.23611549030894713  1.0000
  C   C6        1.0  0.00034947071260659163  0.30687243445101603  0.7638649063044343  1.0000
  C   C7        1.0  0.9566169605251814  0.6397027533086899  0.1448858238567894  1.0000
  C   C8        1.0  0.04340620064188269  0.36029928773978526  0.8551005120552735  1.0000
  C   C9        1.0  0.9422768509558139  0.7204501449714799  0.0341022152775565  1.0000
  C   C10       1.0  0.057748919300237796  0.27955492374606195  0.9658820070405202  1.0000
  C   C11       1.0  0.96585376461055  0.857319626037736  0.020207379469056378  1.0000
  C   C12       1.0  0.03417829968770289  0.14268074717067242  0.979777750384223  1.0000
  C   C13       1.0  0.015273251830301093  0.9110932040349982  0.10950608718933817  1.0000
  C   C14       1.0  0.9847421434539283  0.0889105304363085  0.8904820452726772  1.0000
  C   C15       1.0  0.9198653771333837  0.6635210321002846  0.9243891940282513  1.0000
  C   C16       1.0  0.0801443914577149  0.3364728274728606  0.07559672322705784  1.0000
  C   C17       1.0  0.0620291253887046  0.05293252328085171  0.08588850155457814  1.0000
  C   C18       1.0  0.9379841790141654  0.9470624549122206  0.9140944772610955  1.0000
  C   C19       1.0  0.6136873594362839  0.085503451041312  0.27919549624229495  1.0000
  C   C20       1.0  0.38632391731043475  0.9144941045632823  0.7208082890619496  1.0000
  C   C21       1.0  0.6044303593173765  0.1501911035228503  0.15016759403647487  1.0000
  C   C22       1.0  0.3955493244500944  0.8498083767673636  0.8498407420557827  1.0000
  C   C23       1.0  0.6312608036824016  0.2870043082014818  0.11328865077130254  1.0000
  C   C24       1.0  0.3687103240849225  0.7129898830588107  0.8867318780064155  1.0000
  C   C25       1.0  0.5558805249476678  0.07744714781511422  0.0733742449825527  1.0000
  C   C26       1.0  0.444113258191031  0.9225566329915369  0.9266349783747504  1.0000
  C   C27       1.0  0.5401353506225703  0.9324637264640576  0.10951317158503572  1.0000
  C   C28       1.0  0.4598639458401975  0.06753839673585563  0.8904867537281762  1.0000
  C   C29       1.0  0.47093945060094466  0.856002391403699  0.03919887187254294  1.0000
  C   C30       1.0  0.5290587856703438  0.1440005616958899  0.9608092969902348  1.0000
  C   C31       1.0  0.43997588033574425  0.7180268782774419  0.07771246867457657  1.0000
  C   C32       1.0  0.5600229781102543  0.2819818414400289  0.9223026549894445  1.0000
  C   C33       1.0  0.38967292356571903  0.647808763664088  0.0003572233758361791  1.0000
  C   C34       1.0  0.6103163124178721  0.35220545514856383  0.9996622494596967  1.0000
  C   C35       1.0  0.44423176170512585  0.6367093063012136  0.20411797069423443  1.0000
  C   C36       1.0  0.5557573972216048  0.363304057029005  0.795892668100571  1.0000
  O   O1        1.0  0.9967964992582736  0.9358151821329131  0.4005974149336071  1.0000
  O   O2        1.0  0.0032092779960208972  0.0641735528710967  0.5993985423205432  1.0000
  O   O3        1.0  0.22195452381317435  0.8733260966719454  0.31269212080626124  1.0000
  O   O4        1.0  0.7780486430536585  0.12668012165142534  0.6873015714909914  1.0000
  O   O5        1.0  0.04823915497554759  0.659590804544017  0.8370792756242126  1.0000
  O   O6        1.0  0.9517754972012326  0.3404061338637234  0.16290570901944082  1.0000
  O   O7        1.0  0.7886035624530479  0.627895659196696  0.9262719378824402  1.0000
  O   O8        1.0  0.2113909225086132  0.37209368788806785  0.07372604557053108  1.0000
  O   O9        1.0  0.1338727388884067  0.0918435384694263  0.15202275403940757  1.0000
  O   O10       1.0  0.8661361863047434  0.9081531104872058  0.8479710162417721  1.0000
  O   O11       1.0  0.7438372400112386  0.07695310982926172  0.2908826421155696  1.0000
  O   O12       1.0  0.25614543758135977  0.9230525734486934  0.7091058389222555  1.0000
  O   O13       1.0  0.4868909943396389  0.0510795918801605  0.37311776355571175  1.0000
  O   O14       1.0  0.5131003902384209  0.9489131128120153  0.6269128816564306  1.0000
  O   O15       1.0  0.5920897530393674  0.8757144262847448  0.19268514915305715  1.0000
  O   O16       1.0  0.40790797129227496  0.12429428027591881  0.8073284810895348  1.0000
  O   O17       1.0  0.33910059602013126  0.6576462526344148  0.3132897416555665  1.0000
  O   O18       1.0  0.660891479680437  0.34235249204645873  0.6867279938921346  1.0000
  O   O19       1.0  0.520957987626126  0.5474576773339095  0.2107220929647228  1.0000
  O   O20       1.0  0.47905384364041476  0.45254482668396895  0.7892771043092496  1.0000
  O   O21       1.0  0.6853134896783146  0.8186240575549066  0.4176007093205031  1.0000
  O   O22       1.0  0.3146804990136545  0.18137110512065394  0.5823982208609879  1.0000
  O   O23       1.0  0.7655322691134003  0.8254358775104793  0.6734578368317943  1.0000
  O   O24       1.0  0.23446068132501807  0.1745602020463793  0.32654301638745425  1.0000
  O   O25       1.0  0.9373905861713042  0.23288316259728964  0.3962761707616096  1.0000
  O   O26       1.0  0.06261122665363669  0.7671210706595206  0.6037173215681764  1.0000
  O   O27       1.0  0.6294448920121168  0.22404149724023628  0.4895399680426708  1.0000
  O   O28       1.0  0.37055156603215517  0.7759555891030278  0.5104660731092567  1.0000
