data_image0
_chemical_formula_structural       Cu4H52C48N8O16
_chemical_formula_sum              "Cu4 H52 C48 N8 O16"
_cell_length_a       8.538116881810826
_cell_length_b       13.218718047526064
_cell_length_c       15.755332446742944
_cell_angle_alpha    114.79553656015567
_cell_angle_beta     91.77558227598651
_cell_angle_gamma    89.99813319068241

_space_group_name_H-M_alt    "P 1"
_space_group_IT_number       1

loop_
  _space_group_symop_operation_xyz
  'x, y, z'

loop_
  _atom_site_type_symbol
  _atom_site_label
  _atom_site_symmetry_multiplicity
  _atom_site_fract_x
  _atom_site_fract_y
  _atom_site_fract_z
  _atom_site_occupancy
  Cu  Cu1       1.0  0.4522955222159197  0.49287104826520084  0.5746864864796138  1.0000
  Cu  Cu2       1.0  0.047705307021438194  0.9181838023673453  0.42529499764954437  1.0000
  Cu  Cu3       1.0  0.5477049164261985  0.5071149033425186  0.4253074870465028  1.0000
  Cu  Cu4       1.0  0.9522668540767825  0.08185238491773816  0.5747317630149027  1.0000
  H   H1        1.0  0.40230623408466215  0.3048563085917664  0.6364870817432688  1.0000
  H   H2        1.0  0.0976062594685416  0.6683088933109861  0.36347294150387915  1.0000
  H   H3        1.0  0.5977047810349704  0.6951367737650928  0.3635140447076282  1.0000
  H   H4        1.0  0.9023863729897812  0.3316901135792207  0.6365499633044536  1.0000
  H   H5        1.0  0.2610759556234967  0.26636027621163555  0.7551365958261586  1.0000
  H   H6        1.0  0.23891622604899965  0.5112896975434255  0.244795148553024  1.0000
  H   H7        1.0  0.7389350085464984  0.7336375048634951  0.24486590035681396  1.0000
  H   H8        1.0  0.7610901408636366  0.4887245871663026  0.7552247146994233  1.0000
  H   H9        1.0  0.12326197304670931  0.6115210872839331  0.876375894292629  1.0000
  H   H10       1.0  0.3767367017914935  0.7352089462958632  0.12358709706742835  1.0000
  H   H11       1.0  0.8767510974550135  0.38847551893508836  0.1236145772593886  1.0000
  H   H12       1.0  0.6232296739996883  0.26481947120429794  0.8764368813500739  1.0000
  H   H13       1.0  0.26840243704160116  0.6339806569797731  0.74827268530251  1.0000
  H   H14       1.0  0.2315983112316502  0.8856942237286846  0.2517092395537545  1.0000
  H   H15       1.0  0.7316083762754246  0.3660070574725935  0.25171471708338083  1.0000
  H   H16       1.0  0.7683636734769834  0.11432013808309459  0.7483173430710935  1.0000
  H   H17       1.0  0.04147927038588509  0.3068900424323076  0.9618439081674027  1.0000
  H   H18       1.0  0.45844541175056713  0.3451003293978232  0.03819590347936952  1.0000
  H   H19       1.0  0.9585232753486536  0.6931195309746627  0.038157878846838876  1.0000
  H   H20       1.0  0.5415481046752219  0.654914582116284  0.9618262469850053  1.0000
  H   H21       1.0  0.23057411185055804  0.2853698251931788  0.9112407399663952  1.0000
  H   H22       1.0  0.26931141243036905  0.3742291971916387  0.08882494435950862  1.0000
  H   H23       1.0  0.7694298546289319  0.714635457019682  0.08876926669786658  1.0000
  H   H24       1.0  0.7306807008357907  0.6257981528517648  0.9111963152710986  1.0000
  H   H25       1.0  0.0610004755621887  0.24410349800947984  0.8374889235746112  1.0000
  H   H26       1.0  0.43890010908020827  0.4066832013565787  0.16254490766232976  1.0000
  H   H27       1.0  0.9390058279483784  0.7558962075112136  0.162516331785632  1.0000
  H   H28       1.0  0.5610873441918187  0.5933380188732046  0.8374727101477505  1.0000
  H   H29       1.0  0.0808583623340553  0.3628821107201646  0.2964534400517281  1.0000
  H   H30       1.0  0.4191908679979903  0.06635136297763485  0.703462421621943  1.0000
  H   H31       1.0  0.9191747484518091  0.6370930914317157  0.703525615373529  1.0000
  H   H32       1.0  0.5808681833960776  0.9336120311035998  0.29651483708587273  1.0000
  H   H33       1.0  0.9857534935721974  0.46799506680944364  0.39108131941684127  1.0000
  H   H34       1.0  0.5142128650441152  0.07690739007581726  0.6088571366834047  1.0000
  H   H35       1.0  0.0142592218976745  0.5319978693322227  0.6088896182068737  1.0000
  H   H36       1.0  0.485791943958283  0.9230714376796315  0.391116349633819  1.0000
  H   H37       1.0  0.9815194054681842  0.3529434394672677  0.47944024155122383  1.0000
  H   H38       1.0  0.518467681286843  0.8735130624567946  0.520441539425569  1.0000
  H   H39       1.0  0.01846545792515999  0.6470498373539117  0.5205435341131023  1.0000
  H   H40       1.0  0.4815441305389427  0.1264471335888118  0.47951578760232394  1.0000
  H   H41       1.0  0.8887709335162058  0.28198751567680364  0.3682418189044371  1.0000
  H   H42       1.0  0.6113607357263291  0.9137403865977093  0.6316149286200173  1.0000
  H   H43       1.0  0.11121725933381302  0.7180123034636238  0.6317384999610027  1.0000
  H   H44       1.0  0.3886636236451153  0.08624800883092826  0.368348964714194  1.0000
  H   H45       1.0  0.1326237184790244  0.168333618776984  0.3104968176934762  1.0000
  H   H46       1.0  0.3675327211406199  0.8578314996705602  0.6894436517033782  1.0000
  H   H47       1.0  0.8673557999987268  0.8316423576333848  0.6894971594335431  1.0000
  H   H48       1.0  0.6325447013183664  0.14216433953992447  0.3105419282586511  1.0000
  H   H49       1.0  0.22969078815250302  0.2494967831467321  0.41936763455473175  1.0000
  H   H50       1.0  0.27037348572175557  0.8301100454608135  0.5805850872108422  1.0000
  H   H51       1.0  0.7702869862971654  0.7505035294321731  0.5806190124985022  1.0000
  H   H52       1.0  0.7296424538359999  0.16988431714783303  0.4194281748987195  1.0000
  C   C1        1.0  0.3394197936322598  0.37062197896900534  0.6913007958861926  1.0000
  C   C2        1.0  0.1605370947374922  0.6793864565570902  0.3087050949955454  1.0000
  C   C3        1.0  0.6605911849861031  0.6293709172358535  0.3086984749277449  1.0000
  C   C4        1.0  0.8394542230577501  0.3206248203646355  0.69132092294565  1.0000
  C   C5        1.0  0.2613180766364067  0.35040468764468363  0.7589471017107243  1.0000
  C   C6        1.0  0.23860685490980424  0.5915428219300338  0.2410476976290639  1.0000
  C   C7        1.0  0.7386929002710046  0.6495919187508791  0.2410550520392292  1.0000
  C   C8        1.0  0.7613902106455654  0.40847169455612703  0.7589757288603638  1.0000
  C   C9        1.0  0.1828158495001162  0.43768966830387523  0.8284545807215764  1.0000
  C   C10       1.0  0.31723178444587324  0.6092831519519353  0.17156256593717958  1.0000
  C   C11       1.0  0.8171950134359279  0.5623094559486077  0.17154425392778447  1.0000
  C   C12       1.0  0.6827522026799073  0.39073702705244523  0.828456509562983  1.0000
  C   C13       1.0  0.18403879008430832  0.5418543626647789  0.8241738036987273  1.0000
  C   C14       1.0  0.3160001291012975  0.7176943790960167  0.17577426492662337  1.0000
  C   C15       1.0  0.8159731971189927  0.45814205749051234  0.17582065331530564  1.0000
  C   C16       1.0  0.6839804001480659  0.2823266603163076  0.8242481736408678  1.0000
  C   C17       1.0  0.26422102811498155  0.5544873880102088  0.7539580673193527  1.0000
  C   C18       1.0  0.2357644288630922  0.8005195847649845  0.24596935702149378  1.0000
  C   C19       1.0  0.735789807254939  0.4455053974644301  0.24603441607252557  1.0000
  C   C20       1.0  0.7642056953886396  0.19949271914706668  0.7540526663029896  1.0000
  C   C21       1.0  0.10330535576276387  0.4207939803245965  0.9035021821859176  1.0000
  C   C22       1.0  0.3966926755138616  0.5173216730077002  0.09652223885409938  1.0000
  C   C23       1.0  0.8967019463519392  0.579211057703887  0.0964992369331767  1.0000
  C   C24       1.0  0.603290151508702  0.48269296968267383  0.9034929576466696  1.0000
  C   C25       1.0  0.1083553452434316  0.3078208309176915  0.9041295374524055  1.0000
  C   C26       1.0  0.3915526423952542  0.403732925691422  0.09590235286435696  1.0000
  C   C27       1.0  0.8916519623845005  0.6921854748663563  0.09587315191818384  1.0000
  C   C28       1.0  0.6084348911034924  0.5962862244072227  0.9041173635351143  1.0000
  C   C29       1.0  0.22669582788812193  0.4451527976364957  0.4194496034365259  1.0000
  C   C30       1.0  0.2733456883067333  0.025678134101504196  0.580503317504288  1.0000
  C   C31       1.0  0.7733092166615381  0.5548309502976637  0.5805388274569055  1.0000
  C   C32       1.0  0.7266523069374741  0.9743258679478403  0.41950039460028415  1.0000
  C   C33       1.0  0.06806373630887211  0.3983476543915359  0.3726270220470838  1.0000
  C   C34       1.0  0.4319869280359256  0.02566061085499177  0.6272926389421728  1.0000
  C   C35       1.0  0.931943353642083  0.6016414259621286  0.6273517315062378  1.0000
  C   C36       1.0  0.5680320344246468  0.9743108388126132  0.37267930752504697  1.0000
  C   C37       1.0  0.0027459639790449963  0.31248489852738004  0.40432033917662846  1.0000
  C   C38       1.0  0.4973286480068495  0.9081270078507728  0.5955718109275949  1.0000
  C   C39       1.0  0.9972375561394387  0.6875099654789878  0.5956566803013104  1.0000
  C   C40       1.0  0.5026960019487277  0.0918461343977057  0.40439349038094013  1.0000
  C   C41       1.0  0.1145857731857234  0.21573604193867624  0.3856294834902699  1.0000
  C   C42       1.0  0.3855184433585777  0.8300915544447918  0.614310953932133  1.0000
  C   C43       1.0  0.8853874098047781  0.7842615894435312  0.6143594808266074  1.0000
  C   C44       1.0  0.6145228748400342  0.16989309268346625  0.3856759022747199  1.0000
  C   C45       1.0  0.0671922079800069  0.13476962217490035  0.42619833571860266  1.0000
  C   C46       1.0  0.4328130449728533  0.7085743753949958  0.5737668367657208  1.0000
  C   C47       1.0  0.9327716881969579  0.8652562070280113  0.5738172055830829  1.0000
  C   C48       1.0  0.567200186647611  0.29141003630256535  0.42622143096729564  1.0000
  N   N1        1.0  0.3430709430903888  0.4708966641159833  0.6888659104903354  1.0000
  N   N2        1.0  0.1569910267327828  0.7820874940913569  0.3111368229636397  1.0000
  N   N3        1.0  0.656941141544614  0.5290934349156801  0.3111280548698049  1.0000
  N   N4        1.0  0.8429814101208564  0.21792592655614837  0.6888846519846227  1.0000
  N   N5        1.0  0.0353755158129161  0.508295266624188  0.9648056403675441  1.0000
  N   N6        1.0  0.46461547296858197  0.5434845213935449  0.03519585985108608  1.0000
  N   N7        1.0  0.9646293879599311  0.4917094570444008  0.03519295828688476  1.0000
  N   N8        1.0  0.5353685461908881  0.4565389200757509  0.9648273190963012  1.0000
  O   O1        1.0  0.3289195152452251  0.46406474634389383  0.3704412782368395  1.0000
  O   O2        1.0  0.17119766463685693  0.09363202113086537  0.6295443969697914  1.0000
  O   O3        1.0  0.6710938434643553  0.5359283711448555  0.6295598852232942  1.0000
  O   O4        1.0  0.8288360761289795  0.9064073758916252  0.37046059089101385  1.0000
  O   O5        1.0  0.09256310485270093  0.03201291626450604  0.37619613307289523  1.0000
  O   O6        1.0  0.407315176092652  0.6558125767617753  0.6237711057620956  1.0000
  O   O7        1.0  0.907409339605465  0.9680104602755436  0.6238336482503898  1.0000
  O   O8        1.0  0.5926662566100447  0.34417550091750837  0.37621246516750523  1.0000
  O   O9        1.0  0.24519409746574894  0.4595190934890143  0.5042130941941353  1.0000
  O   O10       1.0  0.2548252329482282  0.9552947701941151  0.4957451343724628  1.0000
  O   O11       1.0  0.754797152364482  0.5404478296420551  0.4957743245482505  1.0000
  O   O12       1.0  0.7451262330763767  0.044692921387444164  0.504261393851465  1.0000
  O   O13       1.0  0.010422782796837296  0.17566410608746713  0.5074312612192742  1.0000
  O   O14       1.0  0.4896604091882325  0.668207919559137  0.4925456190913523  1.0000
  O   O15       1.0  0.9895268122059306  0.8243720667859833  0.4925812803206072  1.0000
  O   O16       1.0  0.5103740951568128  0.33176905094847337  0.507445223785993  1.0000
