data_image0
_chemical_formula_structural       Zn2CdH42C54N2O12
_chemical_formula_sum              "Zn2 Cd1 H42 C54 N2 O12"
_cell_length_a       10.306111639850098
_cell_length_b       10.93919187401804
_cell_length_c       13.153275975473107
_cell_angle_alpha    76.39922229754092
_cell_angle_beta     67.4727317245152
_cell_angle_gamma    63.08166196945775

_space_group_name_H-M_alt    "P 1"
_space_group_IT_number       1

loop_
  _space_group_symop_operation_xyz
  'x, y, z'

loop_
  _atom_site_type_symbol
  _atom_site_label
  _atom_site_symmetry_multiplicity
  _atom_site_fract_x
  _atom_site_fract_y
  _atom_site_fract_z
  _atom_site_occupancy
  Zn  Zn1       1.0  0.7025968956840953  0.9594832154132578  0.7169755903574  1.0000
  Zn  Zn2       1.0  0.2974005275635108  0.0405196234864675  0.28302394839511885  1.0000
  Cd  Cd1       1.0  0.9999998484859273  0.9999984982531988  0.5000001774102357  1.0000
  H   H1        1.0  0.5110112007712432  0.8425451452949274  0.5497080028304777  1.0000
  H   H2        1.0  0.4889832551210275  0.1574525845901746  0.45029188337368015  1.0000
  H   H3        1.0  0.44462492469240544  0.72840236923021  0.44470906455326553  1.0000
  H   H4        1.0  0.5553673943691704  0.2716025540801965  0.5552877840028573  1.0000
  H   H5        1.0  0.6248026731432078  0.6454916269854748  0.26123155515558943  1.0000
  H   H6        1.0  0.37519325347670207  0.35451224863079034  0.7387659463159154  1.0000
  H   H7        1.0  0.8680163514547131  0.6795536202027251  0.18055094855473175  1.0000
  H   H8        1.0  0.1319856254521809  0.32043893325607087  0.8194530292248247  1.0000
  H   H9        1.0  0.9298488480620077  0.7998542811755271  0.2843257994223052  1.0000
  H   H10       1.0  0.07015539857275135  0.2001331282209762  0.7156815406513317  1.0000
  H   H11       1.0  0.9563463530522041  0.6579104352012024  0.9330626623765925  1.0000
  H   H12       1.0  0.04364940279440785  0.3420913838956636  0.06694060927850391  1.0000
  H   H13       1.0  0.1550999246750563  0.5097471525720394  0.023652630099029168  1.0000
  H   H14       1.0  0.8448953781728786  0.49025569551618986  0.9763498167265116  1.0000
  H   H15       1.0  0.43238765503786397  0.4539111800908842  0.9183311066487081  1.0000
  H   H16       1.0  0.5676079631770604  0.5460885887484183  0.08167260221405569  1.0000
  H   H17       1.0  0.5084249347909091  0.5486942163184949  0.7237502437686558  1.0000
  H   H18       1.0  0.4915724505805698  0.4513086154248498  0.2762553898134854  1.0000
  H   H19       1.0  0.3074030749694358  0.6950952605466582  0.6337108844071723  1.0000
  H   H20       1.0  0.6925959635994943  0.3049085883159036  0.3662933018335012  1.0000
  H   H21       1.0  0.8144202464329168  0.3197060320654899  0.5271415800390998  1.0000
  H   H22       1.0  0.18558711716493537  0.680295726207305  0.4728544585319484  1.0000
  H   H23       1.0  0.8515816974941612  0.5367155302470434  0.4900959450594299  1.0000
  H   H24       1.0  0.148433191852824  0.46328105249399726  0.5099034232333183  1.0000
  H   H25       1.0  0.8297499120926944  0.6472582113632157  0.6443130756655933  1.0000
  H   H26       1.0  0.1702619650608311  0.3527404412327045  0.35568526547994855  1.0000
  H   H27       1.0  0.7664721838935121  0.543024872741796  0.8361139733691586  1.0000
  H   H28       1.0  0.23354015099320677  0.45697275175730584  0.16388443075224043  1.0000
  H   H29       1.0  0.7248207318519487  0.3251707100152998  0.8740854290419408  1.0000
  H   H30       1.0  0.27519267507089035  0.6748269121259226  0.125909616408684  1.0000
  H   H31       1.0  0.5118830053129809  0.823968962423301  0.729233239603566  1.0000
  H   H32       1.0  0.48811185177783767  0.1760421033658446  0.27075862740284146  1.0000
  H   H33       1.0  0.2613962440477025  0.8141670568775508  0.8492944558875737  1.0000
  H   H34       1.0  0.7385981600444467  0.18584503790295767  0.1506965862892784  1.0000
  H   H35       1.0  0.21039019930966413  0.10720233532511973  0.0468895391690083  1.0000
  H   H36       1.0  0.7896074064077538  0.8927953749626666  0.9531109369746816  1.0000
  H   H37       1.0  0.4615637159259618  0.10864918499415667  0.9154008266564875  1.0000
  H   H38       1.0  0.5384335649554399  0.89135160275346  0.08459991115739018  1.0000
  H   H39       1.0  0.07017288241912206  0.8535393494634532  0.0507378092646888  1.0000
  H   H40       1.0  0.92982396440167  0.14646247085372008  0.9492590563048183  1.0000
  H   H41       1.0  0.0230307400361625  0.005628720537089299  0.10781045059312792  1.0000
  H   H42       1.0  0.9769650536865692  0.9943731057161644  0.8921867262323391  1.0000
  C   C1        1.0  0.7674994339078721  0.8922083817748216  0.48659977715997377  1.0000
  C   C2        1.0  0.23250164173619928  0.1077862305612598  0.5134017891067658  1.0000
  C   C3        1.0  0.7244175750217602  0.8279032035196112  0.4229055924897268  1.0000
  C   C4        1.0  0.2755817003241389  0.1720883396505855  0.5770993820335519  1.0000
  C   C5        1.0  0.5881711439721046  0.8068651443164613  0.468639810204273  1.0000
  C   C6        1.0  0.41182572401423556  0.19312949265846413  0.5313622392325924  1.0000
  C   C7        1.0  0.551966688687237  0.7422600529416883  0.4102833527746127  1.0000
  C   C8        1.0  0.44803091229566405  0.2577376564515461  0.5897178852227825  1.0000
  C   C9        1.0  0.6527733319726037  0.6964004548376151  0.30667972061724663  1.0000
  C   C10       1.0  0.34722518447667017  0.30359519836197535  0.6933216433318563  1.0000
  C   C11       1.0  0.7891708483963594  0.7163608864738505  0.261095337295714  1.0000
  C   C12       1.0  0.2108324922410602  0.2836285809053933  0.7389103531188043  1.0000
  C   C13       1.0  0.8241454951002468  0.7834446666510999  0.31827530577974966  1.0000
  C   C14       1.0  0.17585620180875586  0.21654378539802377  0.6817303082688326  1.0000
  C   C15       1.0  0.002694099404315898  0.7748972568324034  0.7217580045189395  1.0000
  C   C16       1.0  0.9973033143742641  0.22510558027822475  0.2782430579409833  1.0000
  C   C17       1.0  0.12045928881065038  0.6844652827390476  0.7775708447598008  1.0000
  C   C18       1.0  0.8795370624008284  0.31553755851856374  0.22243205266348534  1.0000
  C   C19       1.0  0.07760702205494135  0.6328501292997686  0.8877856403983628  1.0000
  C   C20       1.0  0.922389786889731  0.36715168386101743  0.11221732000077371  1.0000
  C   C21       1.0  0.18949935569037984  0.5502109768847704  0.9382125957564043  1.0000
  C   C22       1.0  0.8104985063523457  0.4497908303399427  0.061790053386772514  1.0000
  C   C23       1.0  0.34461916556929856  0.5195669414123145  0.87944882926206  1.0000
  C   C24       1.0  0.6553765855427969  0.4804348767899993  0.12055520424674164  1.0000
  C   C25       1.0  0.387720964032404  0.5720094266396885  0.7697466517130139  1.0000
  C   C26       1.0  0.6122774839061691  0.4279934009566729  0.23025714690576393  1.0000
  C   C27       1.0  0.2761810739072955  0.6534482885150509  0.7190138395639353  1.0000
  C   C28       1.0  0.7238163256677268  0.3465545459119355  0.2809895084570967  1.0000
  C   C29       1.0  0.7355829981963922  0.18363804546015663  0.7289244669145204  1.0000
  C   C30       1.0  0.26441442978573076  0.8163647943341203  0.2710743099842929  1.0000
  C   C31       1.0  0.7679964815945013  0.30897589201580894  0.7032197743047065  1.0000
  C   C32       1.0  0.2320041009472859  0.6910269290756972  0.2967788306799335  1.0000
  C   C33       1.0  0.8040079997854194  0.36831419265406135  0.5949111917683467  1.0000
  C   C34       1.0  0.19599711051559138  0.6316855254442189  0.40508743022968474  1.0000
  C   C35       1.0  0.8255866704292812  0.48991752628199964  0.5741120178733681  1.0000
  C   C36       1.0  0.1744247537255745  0.5100821553052909  0.4258854984426251  1.0000
  C   C37       1.0  0.8133425565497062  0.5520289861602095  0.6607661392682901  1.0000
  C   C38       1.0  0.18666708624505185  0.447967629839397  0.3392317378894277  1.0000
  C   C39       1.0  0.7777382809566258  0.49292844656666557  0.7688372401535729  1.0000
  C   C40       1.0  0.22227136183813198  0.5070681694329409  0.23116063700414466  1.0000
  C   C41       1.0  0.7546580967208452  0.3720940401756465  0.7903209241639075  1.0000
  C   C42       1.0  0.2453474665788418  0.6279046489312635  0.20967852266367967  1.0000
  C   C43       1.0  0.44044116765876823  0.885333583357948  0.8002790831604116  1.0000
  C   C44       1.0  0.5595549060618621  0.11467234430498512  0.19971645739602908  1.0000
  C   C45       1.0  0.30088774645330557  0.8810597277625122  0.8675324411563423  1.0000
  C   C46       1.0  0.699107283638291  0.11894620762558356  0.13246188694864702  1.0000
  C   C47       1.0  0.21353897204772906  0.9614226772723738  0.9580882060553934  1.0000
  C   C48       1.0  0.7864599809691909  0.0385791311726607  0.04190803700220154  1.0000
  C   C49       1.0  0.27154172590766024  0.045072243824748184  0.9760166281745485  1.0000
  C   C50       1.0  0.7284564799091484  0.9549264895183284  0.023982711883625874  1.0000
  C   C51       1.0  0.4116567422780405  0.04524724040263099  0.9049757059471589  1.0000
  C   C52       1.0  0.5883426495339991  0.954753536367384  0.09502364750110802  1.0000
  C   C53       1.0  0.06070567776359325  0.9601711063082378  0.02994161180723848  1.0000
  C   C54       1.0  0.9392928269891666  0.0398317320227122  0.9700530445671022  1.0000
  N   N1        1.0  0.49575447550864016  0.9661212108883461  0.8185931983445656  1.0000
  N   N2        1.0  0.5042441479377474  0.03388367412197369  0.18140406823692248  1.0000
  O   O1        1.0  0.8668359817167468  0.9418953135669597  0.43344428168914834  1.0000
  O   O2        1.0  0.13316253473252704  0.05810033963263089  0.5665570822599478  1.0000
  O   O3        1.0  0.7004083264163227  0.8897935883692654  0.5911600514717179  1.0000
  O   O4        1.0  0.29959378812225873  0.11020101534710142  0.40884348910017826  1.0000
  O   O5        1.0  0.04978624836215317  0.805962618855105  0.61948145529621  1.0000
  O   O6        1.0  0.9502134540823589  0.1940350777714315  0.38051992204297136  1.0000
  O   O7        1.0  0.8607211853469539  0.8152226186829663  0.7825940344772703  1.0000
  O   O8        1.0  0.1392762236971024  0.18478021753311683  0.2174077898363578  1.0000
  O   O9        1.0  0.7726845624146818  0.11291097918386583  0.6463840098807551  1.0000
  O   O10       1.0  0.2273184416902083  0.8870887507865605  0.35361523462919553  1.0000
  O   O11       1.0  0.6703086328908225  0.14918812300492593  0.8256420098118866  1.0000
  O   O12       1.0  0.32968125040409985  0.8508198887429048  0.17435648478004134  1.0000
