data_image0
_chemical_formula_structural       Fe4P4H20C8O24
_chemical_formula_sum              "Fe4 P4 H20 C8 O24"
_cell_length_a       4.854355591828022
_cell_length_b       8.018300478131797
_cell_length_c       16.907540633002494
_cell_angle_alpha    90.00000265957736
_cell_angle_beta     90.00005823368757
_cell_angle_gamma    108.19712834316883

_space_group_name_H-M_alt    "P 1"
_space_group_IT_number       1

loop_
  _space_group_symop_operation_xyz
  'x, y, z'

loop_
  _atom_site_type_symbol
  _atom_site_label
  _atom_site_symmetry_multiplicity
  _atom_site_fract_x
  _atom_site_fract_y
  _atom_site_fract_z
  _atom_site_occupancy
  Fe  Fe1       1.0  0.942303230386834  0.07272747604655899  0.839181915649327  1.0000
  Fe  Fe2       1.0  0.5576961011584487  0.42727500319836764  0.33917951638608196  1.0000
  Fe  Fe3       1.0  0.05769438730510481  0.9272735542059535  0.16082116108402997  1.0000
  Fe  Fe4       1.0  0.4423021784653969  0.5727273398191882  0.6608176458266327  1.0000
  P   P1        1.0  0.594045873021102  0.36102659880880583  0.8220823970873921  1.0000
  P   P2        1.0  0.9059500016442927  0.13897323067318013  0.3220848246510712  1.0000
  P   P3        1.0  0.40594901776543685  0.6389731089754491  0.1779159480289536  1.0000
  P   P4        1.0  0.09404488915048861  0.8610264771128373  0.6779176606298021  1.0000
  H   H1        1.0  0.7049972709537543  0.595274656340287  0.9150421214805886  1.0000
  H   H2        1.0  0.7950032387919137  0.904729456922901  0.41504333965437457  1.0000
  H   H3        1.0  0.2949996056661846  0.4047289897471629  0.0849574065402336  1.0000
  H   H4        1.0  0.20499504084017423  0.0952728860964172  0.5849579627228677  1.0000
  H   H5        1.0  0.024877791329984647  0.5705036246154834  0.8710829379458714  1.0000
  H   H6        1.0  0.47511961121735863  0.9294974480928387  0.3710853921128674  1.0000
  H   H7        1.0  0.9751184233439218  0.4294987087039033  0.12891540717069458  1.0000
  H   H8        1.0  0.5248759415199232  0.0705035724604883  0.6289165017160412  1.0000
  H   H9        1.0  0.8374929199457952  0.4189123396719978  0.9459668020774854  1.0000
  H   H10       1.0  0.6624993178330172  0.08108757569043228  0.4459709317019005  1.0000
  H   H11       1.0  0.16249990588609353  0.5810873584130788  0.054030360134404994  1.0000
  H   H12       1.0  0.33749350801182504  0.9189121223974085  0.5540327364828241  1.0000
  H   H13       1.0  0.4086617882492546  0.8767389327475285  0.8765308623765546  1.0000
  H   H14       1.0  0.09132944111111387  0.6232621154920893  0.376527874748561  1.0000
  H   H15       1.0  0.5913269076909913  0.1232607459429502  0.123472805807566  1.0000
  H   H16       1.0  0.908660578702367  0.37674018873050114  0.6234686960108744  1.0000
  H   H17       1.0  0.4704234990123409  0.812231004741264  0.791933114495535  1.0000
  H   H18       1.0  0.02957623631269266  0.6877752517736442  0.291930701731701  1.0000
  H   H19       1.0  0.5295719746072152  0.18777394441681852  0.20807055368963023  1.0000
  H   H20       1.0  0.9704226261335834  0.3122323326154799  0.7080664604811558  1.0000
  C   C1        1.0  0.8119962644774573  0.5001708188486376  0.8961251328500522  1.0000
  C   C2        1.0  0.6880014430918279  0.9998319558731267  0.3961275048192334  1.0000
  C   C3        1.0  0.18799995019526244  0.4998315144705002  0.10387262081444248  1.0000
  C   C4        1.0  0.3119947715891342  0.00017037744776620035  0.6038743890097819  1.0000
  C   C5        1.0  0.09689808573556026  0.9436100495255316  0.9895673639695416  1.0000
  C   C6        1.0  0.40311763183742494  0.5563938269945011  0.4895674230690901  1.0000
  C   C7        1.0  0.9031125836032389  0.05639235168435871  0.0104303896970563  1.0000
  C   C8        1.0  0.5969012973140906  0.4436086130108592  0.510432104954944  1.0000
  O   O1        1.0  0.3004287727803431  0.2629973710524141  0.8597613991041227  1.0000
  O   O2        1.0  0.1995697733626969  0.2370021321820914  0.3597619942776474  1.0000
  O   O3        1.0  0.699569585970643  0.7370010433623976  0.1402387203689415  1.0000
  O   O4        1.0  0.8004292473331418  0.7629975950005345  0.6402387166476016  1.0000
  O   O5        1.0  0.5601870283889809  0.479764892337819  0.7531451053433214  1.0000
  O   O6        1.0  0.9398074062910811  0.0202243958190778  0.2531499059652162  1.0000
  O   O7        1.0  0.43980529373703087  0.5202256357706859  0.24684969106009189  1.0000
  O   O8        1.0  0.06018698080723082  0.9797661419923785  0.7468549451237861  1.0000
  O   O9        1.0  0.752167075366117  0.23251904869792378  0.7900410939870071  1.0000
  O   O10       1.0  0.7478342046915003  0.2674794698820405  0.2900393381049469  1.0000
  O   O11       1.0  0.24783194533325303  0.7674806784854552  0.20996139129447033  1.0000
  O   O12       1.0  0.2521682839593708  0.7325189639291237  0.7099584155604148  1.0000
  O   O13       1.0  0.127656933712977  0.9200941962511494  0.9163775396534672  1.0000
  O   O14       1.0  0.3723531179040833  0.5799030445321023  0.41636930997075433  1.0000
  O   O15       1.0  0.8723469579676935  0.07990293449566369  0.0836308601494409  1.0000
  O   O16       1.0  0.6276563066568387  0.4200928025361464  0.5836225291748391  1.0000
  O   O17       1.0  0.2073650405636585  0.8834546383091889  0.045832252802974  1.0000
  O   O18       1.0  0.2926546022508774  0.6165397202425353  0.5458269205023782  1.0000
  O   O19       1.0  0.7926513199473318  0.11653862202469159  0.9541737811934111  1.0000
  O   O20       1.0  0.7073761337825744  0.3834575365813252  0.4541678759067196  1.0000
  O   O21       1.0  0.5651750038671253  0.8554167620558744  0.8435444198103851  1.0000
  O   O22       1.0  0.9348210914310753  0.644587271049396  0.3435415328513115  1.0000
  O   O23       1.0  0.4348198078075782  0.1445868743344008  0.15645865692259517  1.0000
  O   O24       1.0  0.06517372023068185  0.3554163653381152  0.6564550379088416  1.0000
