data_image0
_chemical_formula_structural       Cu6H66C114N18O30
_chemical_formula_sum              "Cu6 H66 C114 N18 O30"
_cell_length_a       18.198187910674832
_cell_length_b       18.198225737273436
_cell_length_c       19.324613419960947
_cell_angle_alpha    61.90726345598407
_cell_angle_beta     61.907367391447686
_cell_angle_gamma    59.99959785952221

_space_group_name_H-M_alt    "P 1"
_space_group_IT_number       1

loop_
  _space_group_symop_operation_xyz
  'x, y, z'

loop_
  _atom_site_type_symbol
  _atom_site_label
  _atom_site_symmetry_multiplicity
  _atom_site_fract_x
  _atom_site_fract_y
  _atom_site_fract_z
  _atom_site_occupancy
  Cu  Cu1       1.0  0.46752827536326436  0.03621390934115004  0.4383465588289965  1.0000
  Cu  Cu2       1.0  0.057927352195996214  0.4675164006108049  0.4383392050446701  1.0000
  Cu  Cu3       1.0  0.036225358407747904  0.05792913293476691  0.4383354600573525  1.0000
  Cu  Cu4       1.0  0.5324920562338491  0.9420812667105095  0.5616493119740653  1.0000
  Cu  Cu5       1.0  0.9637847040948769  0.532472140580211  0.5616478670237868  1.0000
  Cu  Cu6       1.0  0.9420662932110275  0.9637904935911482  0.5616535081397771  1.0000
  H   H1        1.0  0.1373978828951934  0.3582581245924672  0.7194010971155933  1.0000
  H   H2        1.0  0.7849520131612239  0.1373946930971358  0.7194181799919902  1.0000
  H   H3        1.0  0.35824357183304306  0.784922978969263  0.7193903291500658  1.0000
  H   H4        1.0  0.8625900708114926  0.21507694135744512  0.2805855258600615  1.0000
  H   H5        1.0  0.6417420043233051  0.8625973347794588  0.2806024485386301  1.0000
  H   H6        1.0  0.21505847487858887  0.6417763025653118  0.2805911706645218  1.0000
  H   H7        1.0  0.26821291275968656  0.24944552333128203  0.5191095975671871  1.0000
  H   H8        1.0  0.9632289471164199  0.2681975595958689  0.5191037757502741  1.0000
  H   H9        1.0  0.2494197389268535  0.9632330412594644  0.519150029964976  1.0000
  H   H10       1.0  0.7318113649119197  0.03676917710031107  0.48088741782567723  1.0000
  H   H11       1.0  0.750560090516558  0.731792337208148  0.48088633043592205  1.0000
  H   H12       1.0  0.036773637330881605  0.7505781295757785  0.48085194721114294  1.0000
  H   H13       1.0  0.3675271947737358  0.11281993276569577  0.7270409596277573  1.0000
  H   H14       1.0  0.7926137562681462  0.3675289575292878  0.7270332528999643  1.0000
  H   H15       1.0  0.1127711410335337  0.7925827833132789  0.7270876846851592  1.0000
  H   H16       1.0  0.6324926168568366  0.2073658973788995  0.27295035950364616  1.0000
  H   H17       1.0  0.8871810928709892  0.6324677999089374  0.2729582071935751  1.0000
  H   H18       1.0  0.20744555860855476  0.8872073114019942  0.27292886257981747  1.0000
  H   H19       1.0  0.18698519243234563  0.28606849662472916  0.8286040337718601  1.0000
  H   H20       1.0  0.6983839132715701  0.18694055993074715  0.828585376745977  1.0000
  H   H21       1.0  0.28607392214279764  0.6983558723970235  0.8285885901772472  1.0000
  H   H22       1.0  0.8130548497589983  0.3016264075950162  0.17140566052866998  1.0000
  H   H23       1.0  0.7139348660629282  0.8130052903011277  0.17139980707368335  1.0000
  H   H24       1.0  0.30164663605366127  0.7139308512141656  0.17140788413485084  1.0000
  H   H25       1.0  0.3015600243269176  0.05004681973520775  0.008567300132781994  1.0000
  H   H26       1.0  0.6398502127110888  0.3015964025332425  0.008509794605124977  1.0000
  H   H27       1.0  0.0500565235233239  0.6398232813432116  0.00853588960981716  1.0000
  H   H28       1.0  0.6983955904913798  0.3601516396702495  0.9914935417790929  1.0000
  H   H29       1.0  0.949957262315131  0.6984343014900889  0.9914333926242588  1.0000
  H   H30       1.0  0.36018306767074654  0.9499460657883535  0.9914663628321987  1.0000
  H   H31       1.0  0.24617313298887922  0.06500869663255322  0.14507259737140288  1.0000
  H   H32       1.0  0.5437319112480737  0.24625177551358504  0.14500105132472627  1.0000
  H   H33       1.0  0.06506548689198871  0.543736164227468  0.14498928728297503  1.0000
  H   H34       1.0  0.7537431146029903  0.45626408129085416  0.8549983732098525  1.0000
  H   H35       1.0  0.9349921015963929  0.7538255347877727  0.8549290937684187  1.0000
  H   H36       1.0  0.4562662593593885  0.9349338267370796  0.8550121498588368  1.0000
  H   H37       1.0  0.128728088685051  0.3509963530459786  0.04210984419503915  1.0000
  H   H38       1.0  0.47817835954933235  0.12873750197383774  0.04212468149790983  1.0000
  H   H39       1.0  0.35100982795634655  0.47818320764076105  0.04207470738823105  1.0000
  H   H40       1.0  0.8712596205254356  0.5218189782192939  0.9578747737841055  1.0000
  H   H41       1.0  0.6490053576721379  0.8712723050467169  0.9578938111981471  1.0000
  H   H42       1.0  0.5218120898677654  0.6489916381217071  0.9579293591926613  1.0000
  H   H43       1.0  0.18673128907578732  0.3347289106216992  0.9052403487760188  1.0000
  H   H44       1.0  0.5733085095004853  0.1866914526447232  0.9052678132848583  1.0000
  H   H45       1.0  0.33476863902494364  0.5733174737068368  0.9052091757912847  1.0000
  H   H46       1.0  0.8132971191280802  0.42669592213479046  0.09473440229999837  1.0000
  H   H47       1.0  0.66527343835439  0.8132674228720802  0.09476127156607819  1.0000
  H   H48       1.0  0.42668370332133077  0.6652347453149972  0.09479595893148483  1.0000
  H   H49       1.0  0.16077128951197747  0.345116132943538  0.14923642202943196  1.0000
  H   H50       1.0  0.34489567303199203  0.1608032056104918  0.14922701566902677  1.0000
  H   H51       1.0  0.34508013846626545  0.34487986202641  0.14923682467044586  1.0000
  H   H52       1.0  0.8391944777203548  0.6550966504171497  0.8507757641481534  1.0000
  H   H53       1.0  0.6548833748309448  0.8392248607335094  0.8507701348189725  1.0000
  H   H54       1.0  0.6551170363861303  0.654920688055775  0.8507700754371539  1.0000
  H   H55       1.0  0.07309883552714781  0.22986475577548762  0.4019426405899651  1.0000
  H   H56       1.0  0.295092141591546  0.07306815017489751  0.40192764449631807  1.0000
  H   H57       1.0  0.2298912907776298  0.29513979453859207  0.4019268969013439  1.0000
  H   H58       1.0  0.9269425690863998  0.7048894607386628  0.5980757084234369  1.0000
  H   H59       1.0  0.7701278052867336  0.9268997780890588  0.5980623132823978  1.0000
  H   H60       1.0  0.7048607042880591  0.7701016130491994  0.5980792510070501  1.0000
  H   H61       1.0  0.12543424454644736  0.09164189383920984  0.2550106212579095  1.0000
  H   H62       1.0  0.527929621640311  0.12543649011669805  0.25502179222002747  1.0000
  H   H63       1.0  0.0916106677379958  0.5279397786401604  0.25500975187556923  1.0000
  H   H64       1.0  0.8745703228262017  0.47205983528936474  0.7449795132341634  1.0000
  H   H65       1.0  0.9083594650074218  0.8745606166763057  0.7449887065865038  1.0000
  H   H66       1.0  0.4720543458456206  0.9083837466927279  0.7449949954499855  1.0000
  C   C1        1.0  0.39238931342547556  0.10308199121905662  0.5787383237931323  1.0000
  C   C2        1.0  0.9257706865441832  0.39239900246104054  0.5786744081372744  1.0000
  C   C3        1.0  0.10305307326317602  0.9257561710704751  0.5787513694952225  1.0000
  C   C4        1.0  0.6076016165760976  0.07423264371180248  0.42131951465604794  1.0000
  C   C5        1.0  0.8969178191802811  0.6076131436081982  0.42126070520279035  1.0000
  C   C6        1.0  0.07424283826064482  0.8969502614615126  0.42124679415141486  1.0000
  C   C7        1.0  0.2527072166392371  0.2352504011521077  0.7321149323070557  1.0000
  C   C8        1.0  0.7799423450619754  0.2527116926830503  0.7320939320974986  1.0000
  C   C9        1.0  0.23522215329451507  0.7799443925227009  0.7321238324619017  1.0000
  C   C10       1.0  0.7472860317985734  0.22006646088259177  0.26790090982586157  1.0000
  C   C11       1.0  0.7647467050926552  0.7472915490875497  0.26788349495763686  1.0000
  C   C12       1.0  0.22005955819633266  0.7647777566119273  0.2678745140931085  1.0000
  C   C13       1.0  0.19102017405202076  0.30648339356802995  0.6915726618720655  1.0000
  C   C14       1.0  0.81090944669738  0.1910458439814704  0.6915429355251063  1.0000
  C   C15       1.0  0.3064606609286002  0.8109217976431042  0.69156452067957  1.0000
  C   C16       1.0  0.8089452954720499  0.18911204802317644  0.30845448983963303  1.0000
  C   C17       1.0  0.6935160836710424  0.8089773462377253  0.3084287279188231  1.0000
  C   C18       1.0  0.1890710048052995  0.6935496281294675  0.30842490083316676  1.0000
  C   C19       1.0  0.1966254015330478  0.3117643968250335  0.6150001114043134  1.0000
  C   C20       1.0  0.8765325184054831  0.19667241156485452  0.6149485858543428  1.0000
  C   C21       1.0  0.31176481653357513  0.8765693918280348  0.6149845816594847  1.0000
  C   C22       1.0  0.8033250327267537  0.12348045984285251  0.3850462696170069  1.0000
  C   C23       1.0  0.6882336251007998  0.8033803000294739  0.38499933445355344  1.0000
  C   C24       1.0  0.12342460146199842  0.6882458799581033  0.3850056111235317  1.0000
  C   C25       1.0  0.26370784215160376  0.24593827908551455  0.5785247338387904  1.0000
  C   C26       1.0  0.9117515667038417  0.2637617174291338  0.578467383629146  1.0000
  C   C27       1.0  0.2459107188910394  0.9117983556973711  0.5785401423558341  1.0000
  C   C28       1.0  0.7362440004148424  0.08825057586044957  0.4215218409195812  1.0000
  C   C29       1.0  0.7540601778890661  0.7362969571593257  0.4214740452378149  1.0000
  C   C30       1.0  0.08820167983667199  0.7540938864668262  0.42145719412406624  1.0000
  C   C31       1.0  0.3244132344235807  0.1743455668827778  0.6190696912551202  1.0000
  C   C32       1.0  0.8821128878469081  0.3244538977477378  0.6190102755700904  1.0000
  C   C33       1.0  0.17431878264160616  0.8821231136935171  0.6190807708015454  1.0000
  C   C34       1.0  0.6755563670889658  0.11787955459067938  0.3809785346258962  1.0000
  C   C35       1.0  0.825650920498859  0.6755906368936595  0.38092794441440236  1.0000
  C   C36       1.0  0.1178858114641486  0.825679343767547  0.38092062178053954  1.0000
  C   C37       1.0  0.3201023664798157  0.16849779842234375  0.6957370390178282  1.0000
  C   C38       1.0  0.8156421667281178  0.3201332116866666  0.695704372401991  1.0000
  C   C39       1.0  0.16846772962841067  0.8156232329213612  0.6957567952991964  1.0000
  C   C40       1.0  0.6798809437992404  0.1843486373626035  0.30428129484938876  1.0000
  C   C41       1.0  0.8315002706393527  0.6798963687016057  0.30426062054492314  1.0000
  C   C42       1.0  0.18439254163952506  0.8315232970786894  0.30424788657875723  1.0000
  C   C43       1.0  0.12869514103410043  0.38508692633213576  0.5730231315997968  1.0000
  C   C44       1.0  0.9131621362612917  0.12872578843673935  0.5729974232494044  1.0000
  C   C45       1.0  0.3851014259609827  0.913140707842878  0.5730486548526839  1.0000
  C   C46       1.0  0.8712735285696667  0.08685268408261496  0.4269959135954479  1.0000
  C   C47       1.0  0.614916277860239  0.8713066269532704  0.42697817718764225  1.0000
  C   C48       1.0  0.08685551258157181  0.614903987497769  0.4269491458438494  1.0000
  C   C49       1.0  0.28404447808270566  0.17086960260738246  0.8668793186285197  1.0000
  C   C50       1.0  0.6782296962891153  0.2840173028758387  0.8668346922937501  1.0000
  C   C51       1.0  0.17088867139895567  0.6782263639180712  0.86684413723016  1.0000
  C   C52       1.0  0.7159809853353138  0.3217733577826324  0.1331628038485702  1.0000
  C   C53       1.0  0.829128111564181  0.715950691317133  0.13312158341053493  1.0000
  C   C54       1.0  0.3217774217661428  0.8291152177222544  0.13315980982436318  1.0000
  C   C55       1.0  0.2473642511198193  0.18976495156682208  0.9469955769153556  1.0000
  C   C56       1.0  0.6159742991966367  0.24729112907250803  0.9469722800482002  1.0000
  C   C57       1.0  0.1897863904696067  0.6159152121391005  0.946943747733762  1.0000
  C   C58       1.0  0.7526990416246164  0.38402819162705987  0.05303058269897315  1.0000
  C   C59       1.0  0.8102369194270694  0.752630281233714  0.05300628599908913  1.0000
  C   C60       1.0  0.38408915791985276  0.810215735187903  0.05305926768345164  1.0000
  C   C61       1.0  0.26350962934213135  0.11584139902678467  0.016018039399462152  1.0000
  C   C62       1.0  0.6046581197809645  0.2635370359687741  0.015964632795025496  1.0000
  C   C63       1.0  0.11586938424013479  0.6046444572981214  0.01595535717611094  1.0000
  C   C64       1.0  0.7364565830716002  0.39534151748856794  0.9840379330603993  1.0000
  C   C65       1.0  0.8841591049710332  0.7364853266646278  0.9839853855731346  1.0000
  C   C66       1.0  0.3953611950185874  0.8841335060803037  0.9840477105150354  1.0000
  C   C67       1.0  0.2315102615128808  0.12482682200264617  0.09346051616257968  1.0000
  C   C68       1.0  0.5501853458780773  0.23159947049691001  0.09338920976806249  1.0000
  C   C69       1.0  0.12487541786418889  0.5501875834833215  0.09337287980339679  1.0000
  C   C70       1.0  0.7683929602387566  0.4498119101556383  0.9066123225094458  1.0000
  C   C71       1.0  0.8751749603994271  0.7684870851108984  0.9065422688475592  1.0000
  C   C72       1.0  0.4498143849303701  0.8751257196936709  0.9066316380943745  1.0000
  C   C73       1.0  0.182142434465824  0.2095677918329173  0.10453755791824186  1.0000
  C   C74       1.0  0.5037863181390918  0.18215808887334356  0.10452112707852727  1.0000
  C   C75       1.0  0.20958561093605968  0.5037395301103945  0.10449306434486515  1.0000
  C   C76       1.0  0.8178376080915584  0.49620845789259266  0.8954826480073522  1.0000
  C   C77       1.0  0.7904334188134216  0.817856775786048  0.8954639747036949  1.0000
  C   C78       1.0  0.49625596675525674  0.7904160340334984  0.8955127020405411  1.0000
  C   C79       1.0  0.16690490156396007  0.2844580989418121  0.03519436231227495  1.0000
  C   C80       1.0  0.5135288803226814  0.1668381473925892  0.03521425492402833  1.0000
  C   C81       1.0  0.28446846622916416  0.5134916749827169  0.03516112974053705  1.0000
  C   C82       1.0  0.8331569016431217  0.4864663405376178  0.9647891230510126  1.0000
  C   C83       1.0  0.7155440348804022  0.8330942043237645  0.9648077332404266  1.0000
  C   C84       1.0  0.48650686078280353  0.7155319045343661  0.9648444514539489  1.0000
  C   C85       1.0  0.19884496474485763  0.27472746943767135  0.9575680912000449  1.0000
  C   C86       1.0  0.5689586896059283  0.1987501897434285  0.9575846617709728  1.0000
  C   C87       1.0  0.2747496123443156  0.5689180509136236  0.9575290910489683  1.0000
  C   C88       1.0  0.8012437968334822  0.43103853093334266  0.04241884706189578  1.0000
  C   C89       1.0  0.7252736992721652  0.8011517735114637  0.04243449619285372  1.0000
  C   C90       1.0  0.43108262924547347  0.7252520637571893  0.04247643548682584  1.0000
  C   C91       1.0  0.14901323175662642  0.21748179633823386  0.18724494898690835  1.0000
  C   C92       1.0  0.4462910915660813  0.14905007798230233  0.18723484482698183  1.0000
  C   C93       1.0  0.2174337620395974  0.44625914909853737  0.18722671580260916  1.0000
  C   C94       1.0  0.8509485263796392  0.5537013578931748  0.8127660560286712  1.0000
  C   C95       1.0  0.7825177559652589  0.8509842937869652  0.8127569797069963  1.0000
  C   C96       1.0  0.5537336254245703  0.7825642934112975  0.812778303348317  1.0000
  C   C97       1.0  0.1245671783841331  0.1503081839371561  0.25839316783853405  1.0000
  C   C98       1.0  0.4667522865140796  0.12456390833320807  0.2583971526911811  1.0000
  C   C99       1.0  0.15029125818584532  0.4667667043673661  0.25837058079156355  1.0000
  C   C100      1.0  0.8754394220609427  0.5332391822750965  0.7416026611528038  1.0000
  C   C101      1.0  0.8496918695242783  0.8754278975459188  0.7416076058568847  1.0000
  C   C102      1.0  0.5332266573190977  0.849704810382072  0.7416318471979435  1.0000
  C   C103      1.0  0.0948187786369701  0.22695450512622975  0.3398711142090036  1.0000
  C   C104      1.0  0.33839511595144955  0.09475328212173653  0.33986437117056306  1.0000
  C   C105      1.0  0.2269729689130315  0.338422219861407  0.3398588148311175  1.0000
  C   C106      1.0  0.9052523687001753  0.6615942993491403  0.6601398621710998  1.0000
  C   C107      1.0  0.7730402501937235  0.905180667308976  0.6601330463859936  1.0000
  C   C108      1.0  0.661574544374659  0.7730234689899901  0.660145813424073  1.0000
  C   C109      1.0  0.14215745391374668  0.2899883007528672  0.20105368631465126  1.0000
  C   C110      1.0  0.36683033900890655  0.14220549532048918  0.20103125450851414  1.0000
  C   C111      1.0  0.28994043112508894  0.36680998692529  0.20104218384245337  1.0000
  C   C112      1.0  0.857794517065244  0.6331604986110692  0.7989717184445412  1.0000
  C   C113      1.0  0.7100106562001046  0.8578380843937053  0.7989513599715464  1.0000
  C   C114      1.0  0.6331852531515026  0.7100592211032579  0.798963807594447  1.0000
  N   N1        1.0  0.24084416912003087  0.234969125041907  0.8096607992422874  1.0000
  N   N2        1.0  0.7145574743979496  0.24080840068479867  0.8096372766544488  1.0000
  N   N3        1.0  0.23497110888637  0.7145490167771981  0.809650606172795  1.0000
  N   N4        1.0  0.7591894720300373  0.2854465691550347  0.19035799181921215  1.0000
  N   N5        1.0  0.7650327890018146  0.7591468431662922  0.19034047118068276  1.0000
  N   N6        1.0  0.28545435385515106  0.7650307162170621  0.19034981538778348  1.0000
  N   N7        1.0  0.09755896538096209  0.1548393807441073  0.3341054196094361  1.0000
  N   N8        1.0  0.41352151588309033  0.09751445607124515  0.33410873533082247  1.0000
  N   N9        1.0  0.15484945094918598  0.4135526447050992  0.33408636096881145  1.0000
  N   N10       1.0  0.9024933207702758  0.5864690307816786  0.6658915555555183  1.0000
  N   N11       1.0  0.8451595295577617  0.9024380622364135  0.6658954751631542  1.0000
  N   N12       1.0  0.5864425737747753  0.8451456869147123  0.6659157268886773  1.0000
  N   N13       1.0  0.1153821399054564  0.2952551737392284  0.27647714217113867  1.0000
  N   N14       1.0  0.31292617551574864  0.11537737560498583  0.2764530284163341  1.0000
  N   N15       1.0  0.295246347949238  0.3129324538948027  0.2764650133421681  1.0000
  N   N16       1.0  0.8846268609387951  0.6870641116795326  0.7235513892617645  1.0000
  N   N17       1.0  0.7047425927461289  0.8846144941006251  0.7235284246990119  1.0000
  N   N18       1.0  0.6870652214910605  0.7047521987119654  0.7235404608766984  1.0000
  O   O1        1.0  0.3864948148668432  0.11396679498955828  0.511100394847915  1.0000
  O   O2        1.0  0.9884299763974836  0.3864917156658196  0.5110415725488124  1.0000
  O   O3        1.0  0.1139295580068378  0.9884411592663229  0.5111295034525581  1.0000
  O   O4        1.0  0.613510482239306  0.01157673106834528  0.48895903518962297  1.0000
  O   O5        1.0  0.8860290536788895  0.6134973910268332  0.4889049094032244  1.0000
  O   O6        1.0  0.011542116829630798  0.8860834693021645  0.48885471384915735  1.0000
  O   O7        1.0  0.44901115427383326  0.03797999667946789  0.6148078934454161  1.0000
  O   O8        1.0  0.898213020378691  0.44899631848679894  0.6147586507284045  1.0000
  O   O9        1.0  0.03794894734991771  0.8981741805340492  0.614793972262994  1.0000
  O   O10       1.0  0.5509955653958798  0.10179893246674261  0.3852414295330533  1.0000
  O   O11       1.0  0.9620247983870839  0.5509910743152063  0.3851948686569172  1.0000
  O   O12       1.0  0.10183254245624342  0.9620515275560424  0.38519733858766586  1.0000
  O   O13       1.0  0.14620359366409727  0.3910164854114129  0.4987926063632742  1.0000
  O   O14       1.0  0.9639319526664353  0.14623690199013592  0.4987504124889738  1.0000
  O   O15       1.0  0.39104578663135914  0.9639472942204393  0.4988101334758072  1.0000
  O   O16       1.0  0.8537554668226265  0.036087995936839076  0.5012453232581818  1.0000
  O   O17       1.0  0.6090007939119744  0.853799811442244  0.5012058965200266  1.0000
  O   O18       1.0  0.03605109138926819  0.6089555175661232  0.5011864040367584  1.0000
  O   O19       1.0  0.05932448183010311  0.4336063241646785  0.6146106431927904  1.0000
  O   O20       1.0  0.8925076510587076  0.05931532561670143  0.6146294895077417  1.0000
  O   O21       1.0  0.4335813151661725  0.8924258575521828  0.6146539553314625  1.0000
  O   O22       1.0  0.9406979652242101  0.1074841748126972  0.38536738472658527  1.0000
  O   O23       1.0  0.5663986541725592  0.9406731749531901  0.3853869005244729  1.0000
  O   O24       1.0  0.10757798006860499  0.5664176479733884  0.3853459998129124  1.0000
  O   O25       1.0  0.3468227501537696  0.1012973167841552  0.8556629110049201  1.0000
  O   O26       1.0  0.6961604509219229  0.3468698566370064  0.8555680293892466  1.0000
  O   O27       1.0  0.1013178647962008  0.6962325172149306  0.8556255333215574  1.0000
  O   O28       1.0  0.6531241480216748  0.3038411585419498  0.14443091460498178  1.0000
  O   O29       1.0  0.8987019887409672  0.6531683961166835  0.14434285106234063  1.0000
  O   O30       1.0  0.3037727774307441  0.898682067362394  0.14437990932369618  1.0000
