data_image0
_chemical_formula_structural       FeH24C34S2N14O2
_chemical_formula_sum              "Fe1 H24 C34 S2 N14 O2"
_cell_length_a       9.248698856527561
_cell_length_b       9.049489160936382
_cell_length_c       11.540554008623662
_cell_angle_alpha    101.85887133955279
_cell_angle_beta     101.24794234074666
_cell_angle_gamma    103.018116500897

_space_group_name_H-M_alt    "P 1"
_space_group_IT_number       1

loop_
  _space_group_symop_operation_xyz
  'x, y, z'

loop_
  _atom_site_type_symbol
  _atom_site_label
  _atom_site_symmetry_multiplicity
  _atom_site_fract_x
  _atom_site_fract_y
  _atom_site_fract_z
  _atom_site_occupancy
  Fe  Fe1       1.0  0.017855071257834285  0.013186046166325101  0.4997722652337869  1.0000
  H   H1        1.0  0.03005861259689621  0.6552152216120672  0.5154671523271972  1.0000
  H   H2        1.0  0.9704777756901135  0.36420899393704786  0.483891345191175  1.0000
  H   H3        1.0  0.0997997170933687  0.8862778528288756  0.24200371581953556  1.0000
  H   H4        1.0  0.9261877303190147  0.1279200985484152  0.7581956035789048  1.0000
  H   H5        1.0  0.28954303413410537  0.8240080361044945  0.14836869612953046  1.0000
  H   H6        1.0  0.7181605782103447  0.1735134017958302  0.8493698763056728  1.0000
  H   H7        1.0  0.3581862184162219  0.7182945993996839  0.9593449865932514  1.0000
  H   H8        1.0  0.6487364904229267  0.27268718730434216  0.040111289377279015  1.0000
  H   H9        1.0  0.13132427809708958  0.2468721742875601  0.9632615815209887  1.0000
  H   H10       1.0  0.8636804668401935  0.7489360823282779  0.03974582274352663  1.0000
  H   H11       1.0  0.05219683173223897  0.3539416079881261  0.14894608514514118  1.0000
  H   H12       1.0  0.9426762836950573  0.6488886990384869  0.8521579966199012  1.0000
  H   H13       1.0  0.18286425038266424  0.6315945656146126  0.7489730052776835  1.0000
  H   H14       1.0  0.8135073322343871  0.3578815611443956  0.25603583354514114  1.0000
  H   H15       1.0  0.3187087482240401  0.7784202487827512  0.6239585938251437  1.0000
  H   H16       1.0  0.6734605749502265  0.21569403357052147  0.3816209648611776  1.0000
  H   H17       1.0  0.6550982192073533  0.5167373309856771  0.6531866249143263  1.0000
  H   H18       1.0  0.34180376902417464  0.4821589007283293  0.3451251653904563  1.0000
  H   H19       1.0  0.5227249319115401  0.37644115296232866  0.783996496765127  1.0000
  H   H20       1.0  0.478549859654521  0.6176157584548249  0.2143224105223638  1.0000
  H   H21       1.0  0.6116343052941744  0.9491063757366331  0.37619188793659214  1.0000
  H   H22       1.0  0.37150678495087414  0.04140261563573941  0.6195977529335224  1.0000
  H   H23       1.0  0.8121987075567103  0.7424050554449834  0.6358430182456516  1.0000
  H   H24       1.0  0.1807208604687531  0.2603353421151411  0.36396127765583947  1.0000
  C   C1        1.0  0.05701275447335519  0.6803225142298784  0.43305756490411795  1.0000
  C   C2        1.0  0.9472330319595913  0.33577329268984357  0.5664040849233416  1.0000
  C   C3        1.0  0.09473596980134154  0.8026127456287852  0.29703520917183823  1.0000
  C   C4        1.0  0.9233203285463317  0.21104545895840934  0.7029730190510506  1.0000
  C   C5        1.0  0.16461646498521523  0.5961369372830417  0.15955528130601238  1.0000
  C   C6        1.0  0.8366063903063078  0.4044815450798396  0.8397516164156684  1.0000
  C   C7        1.0  0.2514900459745846  0.6977159267206545  0.10673833002648789  1.0000
  C   C8        1.0  0.7529795140400636  0.2995619865249566  0.8920063745938193  1.0000
  C   C9        1.0  0.2912507531123508  0.6380464966097463  5.352835864156439e-05  1.0000
  C   C10       1.0  0.7128030995219843  0.3554781123024142  0.999598026165252  1.0000
  C   C11       1.0  0.24394546110940502  0.4758756106852644  0.9473410423004794  1.0000
  C   C12       1.0  0.7570773738467979  0.5172032845342186  0.05389292441768844  1.0000
  C   C13       1.0  0.16197391707208914  0.37356827048130725  0.0030330062278097047  1.0000
  C   C14       1.0  0.8356982505419879  0.6227228442914023  0.998698623828119  1.0000
  C   C15       1.0  0.12087887216259934  0.4337485649275409  0.10858837470554761  1.0000
  C   C16       1.0  0.8767326397177156  0.5664418270255567  0.8922329979632053  1.0000
  C   C17       1.0  0.34680362593086034  0.49587378255647957  0.7740602868668915  1.0000
  C   C18       1.0  0.6520048795786337  0.4951580556543859  0.22709784380683828  1.0000
  C   C19       1.0  0.2863467038581504  0.6069015528265851  0.7283782152172408  1.0000
  C   C20       1.0  0.7097352220429016  0.38392240542011535  0.2747925373952356  1.0000
  C   C21       1.0  0.3625980748191323  0.689803971197861  0.6586648844467504  1.0000
  C   C22       1.0  0.6311009973773949  0.3038000552181542  0.34488162929183364  1.0000
  C   C23       1.0  0.4961445145190807  0.6586096698356699  0.63350692449918  1.0000
  C   C24       1.0  0.4978013571103332  0.3377940899840937  0.3683581701694791  1.0000
  C   C25       1.0  0.5536545016740247  0.5443055931855554  0.6761362031187161  1.0000
  C   C26       1.0  0.44290095039633565  0.452158523456525  0.3235484752307727  1.0000
  C   C27       1.0  0.4791268194592746  0.46418834124049374  0.7478627678582583  1.0000
  C   C28       1.0  0.5198714868482525  0.5294965762373921  0.25165905538176503  1.0000
  C   C29       1.0  0.6254481351976935  0.8836628310379309  0.4444477440076682  1.0000
  C   C30       1.0  0.3611480767361569  0.10981615080141441  0.5533003918918169  1.0000
  C   C31       1.0  0.7309212775914203  0.7785289702534469  0.5741935035603518  1.0000
  C   C32       1.0  0.260131710468805  0.2219820677822213  0.4251447563413677  1.0000
  C   C33       1.0  0.8900658560700946  0.05388009415865718  0.2447305035274141  1.0000
  C   C34       1.0  0.11858652245992829  0.9526357347201823  0.752622513891879  1.0000
  S   S1        1.0  0.8382743626257607  0.0550658686032506  0.10277299404744163  1.0000
  S   S2        1.0  0.15154304220799023  0.9367466557477472  0.8918940073288512  1.0000
  N   N1        1.0  0.1191653857635373  0.6600647536969078  0.2650322495141282  1.0000
  N   N2        1.0  0.8840824707777909  0.3460157103308673  0.7335992876705503  1.0000
  N   N3        1.0  0.09474188882013117  0.57991235862017  0.3509181995428321  1.0000
  N   N4        1.0  0.8993733545886257  0.42772578630124497  0.647179793395722  1.0000
  N   N5        1.0  0.056167276346918975  0.8192923087637067  0.4039668651148459  1.0000
  N   N6        1.0  0.9633787107052778  0.2011203254229486  0.5968216074179651  1.0000
  N   N7        1.0  0.5785752253082207  0.7463152436260999  0.5667205708961732  1.0000
  N   N8        1.0  0.4125652384090016  0.25206151937970117  0.43485178093722954  1.0000
  N   N9        1.0  0.5094414636098037  0.8136388600055326  0.48408639864004505  1.0000
  N   N10       1.0  0.47817937945831795  0.1809256563113379  0.5159879506144449  1.0000
  N   N11       1.0  0.7630794226788139  0.8650496926087357  0.4974035344914541  1.0000
  N   N12       1.0  0.22364873650029443  0.13061354798490044  0.4990636722411352  1.0000
  N   N13       1.0  0.9313234606919989  0.05368125092626028  0.3491678311621698  1.0000
  N   N14       1.0  0.0898524354589156  0.9641034172029489  0.6501829289997261  1.0000
  O   O1        1.0  0.2757218544883599  0.40523513507892517  0.8412708769548799  1.0000
  O   O2        1.0  0.7264683461831255  0.5854154182243789  0.16127569991879656  1.0000
