data_image0
_chemical_formula_structural       H16Pb4C28S4N8O12
_chemical_formula_sum              "H16 Pb4 C28 S4 N8 O12"
_cell_length_a       7.288626378321233
_cell_length_b       9.308527597763025
_cell_length_c       13.959515935082651
_cell_angle_alpha    89.99963706068954
_cell_angle_beta     89.99999770203215
_cell_angle_gamma    108.35779665320125

_space_group_name_H-M_alt    "P 1"
_space_group_IT_number       1

loop_
  _space_group_symop_operation_xyz
  'x, y, z'

loop_
  _atom_site_type_symbol
  _atom_site_label
  _atom_site_symmetry_multiplicity
  _atom_site_fract_x
  _atom_site_fract_y
  _atom_site_fract_z
  _atom_site_occupancy
  H   H1        1.0  0.8930878773821007  0.5909124734778005  0.0288392570920024  1.0000
  H   H2        1.0  0.6069224716096355  0.4090894826982349  0.5288455299865261  1.0000
  H   H3        1.0  0.10691541099872383  0.40908927442160353  0.9711589141874271  1.0000
  H   H4        1.0  0.3930808167591024  0.5909122651661535  0.4711590885078607  1.0000
  H   H5        1.0  0.895133818746686  0.8114452204284535  0.9235804396020697  1.0000
  H   H6        1.0  0.6048645071119267  0.1885569586033427  0.42358444487580027  1.0000
  H   H7        1.0  0.10486399235711727  0.18855312619645306  0.07641558261313719  1.0000
  H   H8        1.0  0.39514107375661933  0.8114436611273776  0.5764201736206188  1.0000
  H   H9        1.0  0.469208130499119  0.5383260550422975  0.7476537309400939  1.0000
  H   H10       1.0  0.030776594416344994  0.4616745016737058  0.24765306957517907  1.0000
  H   H11       1.0  0.5307823638227305  0.4616711502926877  0.2523465894214851  1.0000
  H   H12       1.0  0.9692102209171196  0.538327223692697  0.7523486834921159  1.0000
  H   H13       1.0  0.4458303202728118  0.3066033338834871  0.8473016383303289  1.0000
  H   H14       1.0  0.05415172471123248  0.6934006623585136  0.3472971729438541  1.0000
  H   H15       1.0  0.5541624528149995  0.6933961370955971  0.1526993983836604  1.0000
  H   H16       1.0  0.9458332511360935  0.30660332304695004  0.6527009983329961  1.0000
  Pb  Pb1       1.0  0.5728478785383827  0.047824682630533695  0.1514184175713709  1.0000
  Pb  Pb2       1.0  0.927163836509351  0.9521770758109444  0.6514245838706643  1.0000
  Pb  Pb3       1.0  0.4271658976731204  0.9521861297602858  0.8485754555453795  1.0000
  Pb  Pb4       1.0  0.0728453684256323  0.04783259903832971  0.3485743037493876  1.0000
  C   C1        1.0  0.6505956374499106  0.29892360160974374  0.0118614884475221  1.0000
  C   C2        1.0  0.8494005809513466  0.7010807821530208  0.5118615192788454  1.0000
  C   C3        1.0  0.3494039856736818  0.7010792725355303  0.9881388319016793  1.0000
  C   C4        1.0  0.15059355115332096  0.2989220844721742  0.4881416664998213  1.0000
  C   C5        1.0  0.6680893524840171  0.43007662257662105  0.9464344597894366  1.0000
  C   C6        1.0  0.8319120861880049  0.5699264438692568  0.4464340151955142  1.0000
  C   C7        1.0  0.3319111903873449  0.5699251215627401  0.0535651442047183  1.0000
  C   C8        1.0  0.16808524443845838  0.430077558417466  0.5535648724372138  1.0000
  C   C9        1.0  0.7974244237780681  0.5732487900250192  0.9670545002540862  1.0000
  C   C10       1.0  0.7025691540461237  0.4267551730569537  0.4670560924853149  1.0000
  C   C11       1.0  0.20257062808243384  0.42675294661761143  0.0329436710262314  1.0000
  C   C12       1.0  0.29742772356800634  0.5732476973282845  0.532945660578612  1.0000
  C   C13       1.0  0.8007674691263205  0.6965594816960066  0.9112077591198755  1.0000
  C   C14       1.0  0.6992327426242184  0.30344057170735544  0.41121271433748063  1.0000
  C   C15       1.0  0.1992294359635665  0.3034366011570386  0.0887882630999854  1.0000
  C   C16       1.0  0.3007732912526322  0.6965611799131822  0.5887911877993942  1.0000
  C   C17       1.0  0.5568777788592242  0.5403075948957152  0.8107590577652174  1.0000
  C   C18       1.0  0.9431141338139494  0.45968901271494644  0.3107597502655182  1.0000
  C   C19       1.0  0.4431200322378642  0.4596907517097364  0.1892405462360713  1.0000
  C   C20       1.0  0.05687498775316873  0.5403081907400207  0.6892412864534309  1.0000
  C   C21       1.0  0.5486102033126697  0.41552179087830876  0.8661860170600306  1.0000
  C   C22       1.0  0.9513787422616673  0.5844776047132643  0.3661833395951177  1.0000
  C   C23       1.0  0.45138029101052257  0.5844754144605632  0.1338135869443278  1.0000
  C   C24       1.0  0.04860670032780948  0.4155241188042497  0.633813398971803  1.0000
  C   C25       1.0  0.9583640853677692  0.9028563297322024  0.1294065788948302  1.0000
  C   C26       1.0  0.5416540955320172  0.09715133288725752  0.6294091079155705  1.0000
  C   C27       1.0  0.041647920002660016  0.09713977373880313  0.8705930251094856  1.0000
  C   C28       1.0  0.4583523638948463  0.9028583382058671  0.3705904960619932  1.0000
  S   S1        1.0  0.09159562509400135  0.8022716498608986  0.1637433069822833  1.0000
  S   S2        1.0  0.408434729097138  0.19772648643501617  0.6637453534981006  1.0000
  S   S3        1.0  0.9084241912574882  0.197716545425422  0.8362548643227043  1.0000
  S   S4        1.0  0.5915823005527443  0.8022718864518056  0.336251385072238  1.0000
  N   N1        1.0  0.6784062335406772  0.6796781977183317  0.8351227895319512  1.0000
  N   N2        1.0  0.8215873997780035  0.3203226727544575  0.33512980003142456  1.0000
  N   N3        1.0  0.32159112456020017  0.3203190170323183  0.1648710836139244  1.0000
  N   N4        1.0  0.17840811880986968  0.6796768019574346  0.6648748184683626  1.0000
  N   N5        1.0  0.8637663743909841  0.979838847591218  0.1049249258409546  1.0000
  N   N6        1.0  0.6362633882931231  0.020156652746507603  0.6049234469982566  1.0000
  N   N7        1.0  0.13624795093755177  0.020149340163349908  0.8950782599651533  1.0000
  N   N8        1.0  0.363754121828734  0.979836064462923  0.39507329158342935  1.0000
  O   O1        1.0  0.7452739841351458  0.3221982938712317  0.0897122686127432  1.0000
  O   O2        1.0  0.7547233150581008  0.677805246124976  0.5897124131646905  1.0000
  O   O3        1.0  0.2547164552513195  0.6778124865748227  0.9102909171503626  1.0000
  O   O4        1.0  0.24526992476649667  0.32219196295059765  0.410290056268245  1.0000
  O   O5        1.0  0.5328048357810359  0.16856207678792862  0.9894257466102873  1.0000
  O   O6        1.0  0.9671822473962662  0.8314427658276173  0.4894213543929169  1.0000
  O   O7        1.0  0.4671957070903262  0.8314396673514327  0.0105738573838678  1.0000
  O   O8        1.0  0.03280456794256992  0.16855895955434624  0.5105775332455096  1.0000
  O   O9        1.0  0.6720407046524031  0.8000331564820303  0.7865198595632918  1.0000
  O   O10       1.0  0.8279476062040131  0.1999716282382167  0.2865216227939982  1.0000
  O   O11       1.0  0.3279548139489065  0.19996631826876415  0.2134775953643171  1.0000
  O   O12       1.0  0.17205476242500592  0.8000312496554258  0.7134794139121183  1.0000
