data_image0
_chemical_formula_structural       Zn2H20C36N8O8
_chemical_formula_sum              "Zn2 H20 C36 N8 O8"
_cell_length_a       6.786576311418626
_cell_length_b       8.206150572419752
_cell_length_c       14.395844575580131
_cell_angle_alpha    104.65077881946665
_cell_angle_beta     99.3612826622609
_cell_angle_gamma    94.15140072862087

_space_group_name_H-M_alt    "P 1"
_space_group_IT_number       1

loop_
  _space_group_symop_operation_xyz
  'x, y, z'

loop_
  _atom_site_type_symbol
  _atom_site_label
  _atom_site_symmetry_multiplicity
  _atom_site_fract_x
  _atom_site_fract_y
  _atom_site_fract_z
  _atom_site_occupancy
  Zn  Zn1       1.0  0.6306383141171351  0.4954517614393196  0.4042947000240673  1.0000
  Zn  Zn2       1.0  0.3693641710151426  0.5045474953641926  0.5957058457462523  1.0000
  H   H1        1.0  0.9766460869128367  0.06662022860702166  0.0838048424129667  1.0000
  H   H2        1.0  0.023354751088078284  0.9333777432515544  0.9161974769323035  1.0000
  H   H3        1.0  0.5672383711050131  0.1409215704133189  0.5954895911322424  1.0000
  H   H4        1.0  0.4327597874102338  0.8590789691092269  0.40450873928210024  1.0000
  H   H5        1.0  0.0172057392292402  0.28950217138351053  0.3933150619829461  1.0000
  H   H6        1.0  0.9827922819704826  0.7104970731880511  0.6066865414375754  1.0000
  H   H7        1.0  0.154548850872736  0.11097451778070415  0.25851113858192315  1.0000
  H   H8        1.0  0.8454541772360284  0.8890285393755657  0.7414907000576106  1.0000
  H   H9        1.0  0.09118130537834898  0.0018736375537641993  0.4088351147976112  1.0000
  H   H10       1.0  0.908819118772229  0.9981218341843029  0.5911619441792766  1.0000
  H   H11       1.0  0.21842590392468256  0.6251383859485599  0.33667460917317266  1.0000
  H   H12       1.0  0.7815769541110813  0.37486339738178026  0.663327724500597  1.0000
  H   H13       1.0  0.012288758222140895  0.6177061042990174  0.17521939225588304  1.0000
  H   H14       1.0  0.9877157551343458  0.38229695869499375  0.8247818623359179  1.0000
  H   H15       1.0  0.1260640047994315  0.45320844396540827  0.020988320537455262  1.0000
  H   H16       1.0  0.8739360282457654  0.5467946173591754  0.9790126027185833  1.0000
  H   H17       1.0  0.6342844731487675  0.023402976352244295  0.7993012996151234  1.0000
  H   H18       1.0  0.36572074506783986  0.976605166101727  0.20070005831867374  1.0000
  H   H19       1.0  0.32810232853298527  0.17494554550534497  0.7792607084594392  1.0000
  H   H20       1.0  0.6719025249695109  0.8250600651405405  0.220739556063883  1.0000
  C   C1        1.0  0.678267911472588  0.3216947973113163  0.20898260532547394  1.0000
  C   C2        1.0  0.32173141671248834  0.6783031845533073  0.7910182145885756  1.0000
  C   C3        1.0  0.38509418723055694  0.38508401331112896  0.10228380916768025  1.0000
  C   C4        1.0  0.6149051409545194  0.6149139685534947  0.8977170107463619  1.0000
  C   C5        1.0  0.6331679656660255  0.20736790208815842  0.02960099103442807  1.0000
  C   C6        1.0  0.3668313625190507  0.7926300797764723  0.9703998288796211  1.0000
  C   C7        1.0  0.9208582679853804  0.14474586111423088  0.14494337641155397  1.0000
  C   C8        1.0  0.07914123846207134  0.8552533892950719  0.8550576429612349  1.0000
  C   C9        1.0  0.5249879857084991  0.08386629012711916  0.5169384857937444  1.0000
  C   C10       1.0  0.47500683759717083  0.9161317059118657  0.48305991930558173  1.0000
  C   C11       1.0  0.5251813574907089  0.196355057048585  0.45092417036835286  1.0000
  C   C12       1.0  0.47481378958222825  0.8036454972047975  0.549071855676537  1.0000
  C   C13       1.0  0.7462817068352693  0.2240529598416785  0.1272250376726305  1.0000
  C   C14       1.0  0.253715966029084  0.7759437423592739  0.8727768613233947  1.0000
  C   C15       1.0  0.4561703303019299  0.2879084208322808  0.017542202900081273  1.0000
  C   C16       1.0  0.5438278527814262  0.7120921028464762  0.982458210993215  1.0000
  C   C17       1.0  0.4949559404646847  0.40099534113235064  0.19655435878252087  1.0000
  C   C18       1.0  0.505038729146726  0.5990013705181736  0.8034459303370267  1.0000
  C   C19       1.0  0.9425529980359716  0.2692008843693401  0.3173548656771458  1.0000
  C   C20       1.0  0.057447993659202744  0.7307983718776966  0.6826455696479172  1.0000
  C   C21       1.0  0.018203386750727208  0.16736863040818406  0.24035261341587236  1.0000
  C   C22       1.0  0.9817961196967175  0.8326306200011117  0.7596484059569233  1.0000
  C   C23       1.0  0.8870225998050572  0.7825752200596481  0.4091479125881249  1.0000
  C   C24       1.0  0.11297389520008491  0.21742404508048443  0.5908508024152042  1.0000
  C   C25       1.0  0.0036073419119447246  0.9526434983791672  0.4550187937434416  1.0000
  C   C26       1.0  0.9963885937379686  0.047351976970737994  0.5449772394046944  1.0000
  C   C27       1.0  0.26369940056902413  0.5610134635279846  0.26889521949416206  1.0000
  C   C28       1.0  0.7363014128637815  0.4389845241743798  0.7311050163721546  1.0000
  C   C29       1.0  0.14811265226929754  0.5545069080040362  0.17760068284363936  1.0000
  C   C30       1.0  0.8518888824023706  0.44549614859576525  0.8224010453506451  1.0000
  C   C31       1.0  0.2093759603155974  0.46525092425360254  0.09408465765127969  1.0000
  C   C32       1.0  0.7906237162048556  0.5347495999816373  0.9059158666872732  1.0000
  C   C33       1.0  0.5882171311101416  0.10101695249679209  0.8637873551761925  1.0000
  C   C34       1.0  0.4117862289552576  0.8989886575926175  0.13621279890187304  1.0000
  C   C35       1.0  0.41453072137387187  0.18348950260270405  0.8517338999743982  1.0000
  C   C36       1.0  0.5854741321286242  0.8165161080431812  0.1482663645489239  1.0000
  N   N1        1.0  0.43287980511117047  0.48805833326616704  0.2779537024164256  1.0000
  N   N2        1.0  0.56711915017042  0.5119371220716358  0.7220453295941593  1.0000
  N   N3        1.0  0.34869743054906616  0.27619276494664285  0.9279160753744049  1.0000
  N   N4        1.0  0.6513039094814844  0.7238090336710026  0.07208406437516143  1.0000
  N   N5        1.0  0.7770148393101833  0.3435823327213113  0.3015442446329004  1.0000
  N   N6        1.0  0.22298301181653812  0.6564156380243061  0.6984578538218569  1.0000
  N   N7        1.0  0.6977328732643002  0.11273313158374515  0.9512678135109665  1.0000
  N   N8        1.0  0.302269603678603  0.8872661305010321  0.048732037766356456  1.0000
  O   O1        1.0  0.5991648954905457  0.3551460674670606  0.49579203539727246  1.0000
  O   O2        1.0  0.40083906670008673  0.6448532004554506  0.5042072318323177  1.0000
  O   O3        1.0  0.8164807451617834  0.704541426881114  0.4675007353681265  1.0000
  O   O4        1.0  0.1835230469558482  0.29545656721546  0.5324990268957066  1.0000
  O   O5        1.0  0.4621039505458597  0.142698891002027  0.3611952103723793  1.0000
  O   O6        1.0  0.5378940460857465  0.8573003694133232  0.6388043095691953  1.0000
  O   O7        1.0  0.8595466821367239  0.7258500814913729  0.3180758576529072  1.0000
  O   O8        1.0  0.14044668048932613  0.27414789286608243  0.6819252149731124  1.0000
