data_image0
_chemical_formula_structural       Zn2H40C32N8Cl4
_chemical_formula_sum              "Zn2 H40 C32 N8 Cl4"
_cell_length_a       5.769852179230782
_cell_length_b       11.245796261517302
_cell_length_c       14.342093146017266
_cell_angle_alpha    107.09400050527805
_cell_angle_beta     89.99017802278674
_cell_angle_gamma    104.83757862771236

_space_group_name_H-M_alt    "P 1"
_space_group_IT_number       1

loop_
  _space_group_symop_operation_xyz
  'x, y, z'

loop_
  _atom_site_type_symbol
  _atom_site_label
  _atom_site_symmetry_multiplicity
  _atom_site_fract_x
  _atom_site_fract_y
  _atom_site_fract_z
  _atom_site_occupancy
  Zn  Zn1       1.0  0.0921996380661697  0.9998661081243229  0.7499627894389321  1.0000
  Zn  Zn2       1.0  0.9078139694709434  0.00013144122701190067  0.2500310392650747  1.0000
  H   H1        1.0  0.33686424354247174  0.7963979436171299  0.6491136070225425  1.0000
  H   H2        1.0  0.46014423068942273  0.7969372158520824  0.14935286379946433  1.0000
  H   H3        1.0  0.6631681678470756  0.20360255471106833  0.3508836596043922  1.0000
  H   H4        1.0  0.5398598642149821  0.20305169975949866  0.850641853592535  1.0000
  H   H5        1.0  0.5819011319583963  0.6676997851839062  0.6968435675017731  1.0000
  H   H6        1.0  0.08688325653636741  0.6680075792618893  0.1970311758435699  1.0000
  H   H7        1.0  0.4181022549160644  0.3322911855546664  0.30315787826835117  1.0000
  H   H8        1.0  0.9131202928272161  0.3319871849559917  0.8029676185446208  1.0000
  H   H9        1.0  0.7209569372718291  0.58960759313252  0.8199345696969261  1.0000
  H   H10       1.0  0.8699891732206521  0.5897535503216388  0.3199224875064531  1.0000
  H   H11       1.0  0.2790191379568441  0.4103738084727482  0.18006895405427775  1.0000
  H   H12       1.0  0.1300230301683243  0.41025853797615514  0.6800773315952002  1.0000
  H   H13       1.0  0.850613149246065  0.7323652270945259  0.9179331216121938  1.0000
  H   H14       1.0  0.8822843306151567  0.7325021624477016  0.41784911069762404  1.0000
  H   H15       1.0  0.14937222239807818  0.2676209046787861  0.08206656204252741  1.0000
  H   H16       1.0  0.1177220020969614  0.2675051125946837  0.5821503461762847  1.0000
  H   H17       1.0  0.4053143037117692  0.41972351750307263  0.8571525383360382  1.0000
  H   H18       1.0  0.014868410197543439  0.41990106126371535  0.35712662572697706  1.0000
  H   H19       1.0  0.594659382677456  0.5802704507499925  0.14285444964320962  1.0000
  H   H20       1.0  0.9851379023665315  0.5801061724940199  0.6428707301005121  1.0000
  H   H21       1.0  0.226114353889443  0.5319073183549178  0.8865150706744559  1.0000
  H   H22       1.0  0.3063501480072901  0.5317774587389223  0.3867235181267788  1.0000
  H   H23       1.0  0.7738620300603998  0.4680885806531305  0.11349234231227709  1.0000
  H   H24       1.0  0.6936556755691328  0.4682287957502639  0.6132729247903159  1.0000
  H   H25       1.0  0.9023983550153074  0.6450404729204564  0.036095323649867256  1.0000
  H   H26       1.0  0.7430653768761954  0.6454205756773205  0.5361364135407385  1.0000
  H   H27       1.0  0.09758149496923349  0.3549554255695142  0.9639120891054562  1.0000
  H   H28       1.0  0.2569392026705302  0.3545866583394571  0.4638609424024623  1.0000
  H   H29       1.0  0.8138619975993464  0.4871164320563395  0.9483750435052161  1.0000
  H   H30       1.0  0.6736842436349092  0.48756806913313966  0.4482838557867837  1.0000
  H   H31       1.0  0.1861178658172165  0.5128794939567315  0.05163376994771341  1.0000
  H   H32       1.0  0.32632062211425245  0.5124362681035849  0.5517128623559346  1.0000
  H   H33       1.0  0.4233156603005666  0.8208344396225512  0.9952937850075403  1.0000
  H   H34       1.0  0.3982615113358322  0.8209448479437356  0.4954380613751753  1.0000
  H   H35       1.0  0.5766656460399489  0.17915743118274458  0.004704373084351189  1.0000
  H   H36       1.0  0.601745558640971  0.17907777991604948  0.5045598945054195  1.0000
  H   H37       1.0  0.1923250165189927  0.9485266152327013  0.9365947771352767  1.0000
  H   H38       1.0  0.7564655006187023  0.9488090547611205  0.4367751121094372  1.0000
  H   H39       1.0  0.80768803204527  0.0514767552018327  0.0634017278673156  1.0000
  H   H40       1.0  0.24355813777351193  0.051215515542899895  0.5632239682017828  1.0000
  C   C1        1.0  0.36242495942139646  0.8001695617938865  0.725287083695122  1.0000
  C   C2        1.0  0.4384349722248473  0.8006287634282145  0.22549845712337915  1.0000
  C   C3        1.0  0.6375937182587065  0.19982426210876983  0.27471289778772257  1.0000
  C   C4        1.0  0.5615551913806343  0.19936001664016348  0.7744892577062432  1.0000
  C   C5        1.0  0.49675858322202526  0.7275099678229893  0.7525842372941514  1.0000
  C   C6        1.0  0.23171853071032436  0.727817058336413  0.2527576285623  1.0000
  C   C7        1.0  0.5032343383882106  0.27248086685430195  0.24741020568218636  1.0000
  C   C8        1.0  0.7682970836804583  0.2721914561487822  0.7472560472707388  1.0000
  C   C9        1.0  0.5244473203549447  0.7339034753658069  0.8507969972286207  1.0000
  C   C10       1.0  0.21029896055291178  0.7340864635179116  0.3509384513659058  1.0000
  C   C11       1.0  0.4755451794277831  0.26608651765842245  0.14920353632535216  1.0000
  C   C12       1.0  0.789690716435608  0.2659186901801007  0.6490507765429216  1.0000
  C   C13       1.0  0.678426048003935  0.6621867172853443  0.8843914572604279  1.0000
  C   C14       1.0  0.9846071837540292  0.6623520952210384  0.38444875966460773  1.0000
  C   C15       1.0  0.3215514673236369  0.33779756707939157  0.11561200382675449  1.0000
  C   C16       1.0  0.015403130844489984  0.33765621361803255  0.6155544112834904  1.0000
  C   C17       1.0  0.3596268592078147  0.4963762947435129  0.9173881161061745  1.0000
  C   C18       1.0  0.13707532021932425  0.49633377219787184  0.4174586875635171  1.0000
  C   C19       1.0  0.6403493353888478  0.5036157557390196  0.0826191468672803  1.0000
  C   C20       1.0  0.8629354162066959  0.5036753782942611  0.5825383928069457  1.0000
  C   C21       1.0  0.7484363825608966  0.5610286728730146  0.0037344830930977025  1.0000
  C   C22       1.0  0.8128548095833921  0.5613055343820862  0.5037313202461392  1.0000
  C   C23       1.0  0.2515442560457615  0.4389653356285663  0.9962746054697365  1.0000
  C   C24       1.0  0.18714707240270914  0.4386997688797081  0.49626561068958364  1.0000
  C   C25       1.0  0.4104278220245589  0.8136243756234192  0.9180664680399744  1.0000
  C   C26       1.0  0.4038348145722281  0.8138277957862101  0.41823966315566014  1.0000
  C   C27       1.0  0.5895610544300851  0.18637223937050607  0.0819285504199456  1.0000
  C   C28       1.0  0.5961817762735818  0.18619307840548768  0.5817669714419582  1.0000
  C   C29       1.0  0.2810990482962267  0.8844039165483647  0.8860353174046197  1.0000
  C   C30       1.0  0.6037331607211556  0.884698149600098  0.3862180577718421  1.0000
  C   C31       1.0  0.7189144168998067  0.11558988060830441  0.11396326372773301  1.0000
  C   C32       1.0  0.39626240709226573  0.11531185863797333  0.6137736334111425  1.0000
  N   N1        1.0  0.25707787130279774  0.8780434508435349  0.7908525865763355  1.0000
  N   N2        1.0  0.6214660868009078  0.8785371937977756  0.2910820237599268  1.0000
  N   N3        1.0  0.742940166812282  0.1219560290037407  0.20914166701944487  1.0000
  N   N4        1.0  0.3785477878565117  0.12147130718490469  0.7089309518400102  1.0000
  N   N5        1.0  0.572212423541913  0.6040773693685891  0.9581341018476766  1.0000
  N   N6        1.0  0.03239180493883968  0.6042237277240545  0.4582325951750975  1.0000
  N   N7        1.0  0.4277654973560772  0.3959146670933579  0.041872460661267034  1.0000
  N   N8        1.0  0.9676123259163203  0.3957826095934606  0.5417680499505195  1.0000
  Cl  Cl1       1.0  0.8540214160279971  0.9006611403743391  0.6116320557460142  1.0000
  Cl  Cl2       1.0  0.046031773244649826  0.9004967097707421  0.1115547489784205  1.0000
  Cl  Cl3       1.0  0.14598873890645336  0.09933643701815947  0.38836317388700803  1.0000
  Cl  Cl4       1.0  0.9539673119608947  0.0994960551434545  0.8884401187739784  1.0000
