data_image0
_chemical_formula_structural       Hg4H32C36N24
_chemical_formula_sum              "Hg4 H32 C36 N24"
_cell_length_a       9.203238453879257
_cell_length_b       9.200415379583857
_cell_length_c       14.739207958048429
_cell_angle_alpha    101.68262850852611
_cell_angle_beta     108.17428950680011
_cell_angle_gamma    100.13253949326382

_space_group_name_H-M_alt    "P 1"
_space_group_IT_number       1

loop_
  _space_group_symop_operation_xyz
  'x, y, z'

loop_
  _atom_site_type_symbol
  _atom_site_label
  _atom_site_symmetry_multiplicity
  _atom_site_fract_x
  _atom_site_fract_y
  _atom_site_fract_z
  _atom_site_occupancy
  Hg  Hg1       1.0  0.31435488892022073  0.7829613896491024  0.8564858902751877  1.0000
  Hg  Hg2       1.0  0.4264581382235518  0.4581453296336447  0.643433832431455  1.0000
  Hg  Hg3       1.0  0.6856482255368304  0.21703704135738622  0.14351447491949187  1.0000
  Hg  Hg4       1.0  0.5735307165791993  0.5418381743548577  0.35656388550820844  1.0000
  H   H1        1.0  0.8742924208129351  0.255948112908733  0.969234360650141  1.0000
  H   H2        1.0  0.7868142064230665  0.9053761002899844  0.5307443217537225  1.0000
  H   H3        1.0  0.1257172546052061  0.7440664000029782  0.030767295383974186  1.0000
  H   H4        1.0  0.2131941594658642  0.09462920817295375  0.4692620142341183  1.0000
  H   H5        1.0  0.08428123898600859  0.31255606344534925  0.03546777815686399  1.0000
  H   H6        1.0  0.7770625048204919  0.049237284315800885  0.4645422032764158  1.0000
  H   H7        1.0  0.9157306596110572  0.6874538687047645  0.9645276232854199  1.0000
  H   H8        1.0  0.2229367140015625  0.9507680314907812  0.535462347548929  1.0000
  H   H9        1.0  0.25635700230799335  0.4869609325556253  0.9792769000991084  1.0000
  H   H10       1.0  0.0077512185476748836  0.27744168812463227  0.5206354927912499  1.0000
  H   H11       1.0  0.7436452188282702  0.5130340794636509  0.020712678921860597  1.0000
  H   H12       1.0  0.9922353536962658  0.7225590518144571  0.47936261438488964  1.0000
  H   H13       1.0  0.9232292896023961  0.517828092524148  0.715409520736891  1.0000
  H   H14       1.0  0.30232017788075183  0.20806543643855943  0.7845235385705321  1.0000
  H   H15       1.0  0.07676751239065988  0.4821680637473093  0.2845825379487507  1.0000
  H   H16       1.0  0.6976938585351675  0.7919525384620341  0.2154719461671987  1.0000
  H   H17       1.0  0.7774878423930074  0.30044104576273867  0.7880715912528158  1.0000
  H   H18       1.0  0.012237451130623423  0.9898822730649854  0.7119804875511093  1.0000
  H   H19       1.0  0.22250993527209317  0.6995631312993921  0.21192914103598065  1.0000
  H   H20       1.0  0.9877716793380389  0.0101345236091532  0.2880267802043265  1.0000
  H   H21       1.0  0.25152262096093375  0.1433432482879411  0.9664345593048294  1.0000
  H   H22       1.0  0.6771340878836438  0.2855265797411093  0.5337198836975288  1.0000
  H   H23       1.0  0.7484734249903296  0.85665865916647  0.033555369266558374  1.0000
  H   H24       1.0  0.3228572819761268  0.7144707049440837  0.4662807562741093  1.0000
  H   H25       1.0  0.876865915916582  0.7515458319128996  0.7899472133796832  1.0000
  H   H26       1.0  0.46145810125192094  0.08691917794448047  0.7098995820748826  1.0000
  H   H27       1.0  0.12312223777210822  0.24844799162528367  0.21005914307573897  1.0000
  H   H28       1.0  0.5385302244781158  0.9130666291645536  0.29009629004892185  1.0000
  H   H29       1.0  0.7514659708176122  0.9930219282797518  0.8492616546485291  1.0000
  H   H30       1.0  0.6436414810233727  0.9022482899620881  0.6506336372294754  1.0000
  H   H31       1.0  0.24852804139689508  0.0069810661183141  0.15075243971913468  1.0000
  H   H32       1.0  0.35637145406896314  0.09775700954953948  0.34937562521339766  1.0000
  C   C1        1.0  0.990214155147889  0.2644341186316552  0.9622063568942067  1.0000
  C   C2        1.0  0.8022482649550539  0.028346903636986602  0.5377924900684548  1.0000
  C   C3        1.0  0.009789346650720248  0.7355700626398373  0.037792101331525885  1.0000
  C   C4        1.0  0.19775605935983973  0.9716561088968942  0.4622134432381485  1.0000
  C   C5        1.0  0.14856201107954792  0.4686188594355582  0.9160334002454461  1.0000
  C   C6        1.0  0.0525924317321298  0.23287613137620863  0.5838949569848708  1.0000
  C   C7        1.0  0.8514356379666167  0.5313761580153623  0.08395460823634691  1.0000
  C   C8        1.0  0.9474053560363769  0.7671280580047152  0.41610102959845807  1.0000
  C   C9        1.0  0.9720476784356433  0.47864593754498924  0.780453132226398  1.0000
  C   C10       1.0  0.1981365522140095  0.1919124795673497  0.7194988569395733  1.0000
  C   C11       1.0  0.027949434321101297  0.5213513742273221  0.21953642022916137  1.0000
  C   C12       1.0  0.8018713770568695  0.8080997461383673  0.28049877495638487  1.0000
  C   C13       1.0  0.897826830676358  0.37078415594019276  0.8148009012977013  1.0000
  C   C14       1.0  0.05589925710053479  0.08343550193367827  0.6852073495594196  1.0000
  C   C15       1.0  0.10216600054717864  0.6292142921270382  0.18519406579954276  1.0000
  C   C16       1.0  0.9441132298270032  0.9165767007421051  0.31479863245495915  1.0000
  C   C17       1.0  0.13462694466186056  0.066299377798714  0.9253204899569238  1.0000
  C   C18       1.0  0.6410767080531768  0.20962898087773135  0.5747537881672214  1.0000
  C   C19       1.0  0.865369079639258  0.9337025032582811  0.07467960798332735  1.0000
  C   C20       1.0  0.35891747475933755  0.7903659953313563  0.4252504998267525  1.0000
  C   C21       1.0  0.9369289905958169  0.8681099513093854  0.8354284616846782  1.0000
  C   C22       1.0  0.5325880586032739  0.10158186241130808  0.664476299084235  1.0000
  C   C23       1.0  0.0630647946496055  0.1318964911511102  0.16458534838459118  1.0000
  C   C24       1.0  0.46740582210561854  0.8984119688558961  0.3355264273922741  1.0000
  C   C25       1.0  0.8723490921210983  0.9859027876325752  0.8626852188573365  1.0000
  C   C26       1.0  0.6231242498083915  0.009756405031730298  0.6372260094149595  1.0000
  C   C27       1.0  0.12765743516591496  0.014095619502114702  0.13732395126837815  1.0000
  C   C28       1.0  0.3768796914949634  0.9902408625166361  0.3627797969868141  1.0000
  C   C29       1.0  0.42281975290326557  0.819150235716435  0.008282073644068097  1.0000
  C   C30       1.0  0.3109110413460741  0.4147958424838336  0.49162277310496444  1.0000
  C   C31       1.0  0.5771736046284133  0.18082867687542145  0.9917132257840037  1.0000
  C   C32       1.0  0.6890622427077063  0.5851807571132709  0.5083805248922102  1.0000
  C   C33       1.0  0.27004367440155613  0.7710362637826405  0.7088209240079306  1.0000
  C   C34       1.0  0.5619955183305761  0.5611864515356401  0.7911636762677432  1.0000
  C   C35       1.0  0.7299724796264256  0.22898972923083954  0.29118413543618965  1.0000
  C   C36       1.0  0.4380423860835307  0.4388223268783874  0.20883055029379696  1.0000
  N   N1        1.0  0.010911174191015487  0.366160915425091  0.9010870473966504  1.0000
  N   N2        1.0  0.9650250204754159  0.11025712921691166  0.598908938538834  1.0000
  N   N3        1.0  0.9890894395203205  0.6338409813181867  0.09890648558768331  1.0000
  N   N4        1.0  0.0349782456940559  0.8897504895580395  0.4010933031360507  1.0000
  N   N5        1.0  0.127619720910765  0.5388420038227294  0.8444283918782741  1.0000
  N   N6        1.0  0.19440610431794167  0.2834700526042511  0.6554732813655305  1.0000
  N   N7        1.0  0.8723789934975413  0.46114841618626906  0.1555599184456112  1.0000
  N   N8        1.0  0.805593671000345  0.7165329935185268  0.3445202340751051  1.0000
  N   N9        1.0  0.999107896900838  0.11077215267631148  0.9197765483829979  1.0000
  N   N10       1.0  0.6910244826192908  0.0795855000997534  0.5802387399821498  1.0000
  N   N11       1.0  0.0008861499539066355  0.889230883957623  0.08022127499447858  1.0000
  N   N12       1.0  0.30897610511186696  0.9204163649666195  0.4197669962448244  1.0000
  N   N13       1.0  0.1005434690754967  0.9198884749024572  0.8752191388762681  1.0000
  N   N14       1.0  0.5447011652546506  0.22555506902420316  0.624783602449355  1.0000
  N   N15       1.0  0.8994515492433803  0.08010534840747137  0.12478652257725288  1.0000
  N   N16       1.0  0.45528951804661927  0.7744353239737547  0.3752160270579167  1.0000
  N   N17       1.0  0.47250369808661213  0.8376732113268159  0.09433709765268357  1.0000
  N   N18       1.0  0.24339580868890204  0.3783512490791948  0.4055724558629306  1.0000
  N   N19       1.0  0.5274742561631669  0.16232523283539274  0.905661070176819  1.0000
  N   N20       1.0  0.7566230977128325  0.6216506312169655  0.5944253254043302  1.0000
  N   N21       1.0  0.23923767596809142  0.7619525491223269  0.6243374922157227  1.0000
  N   N22       1.0  0.6372511000557495  0.6145024151649563  0.87569830484788  1.0000
  N   N23       1.0  0.760770925549984  0.23804932183715258  0.3756650603229728  1.0000
  N   N24       1.0  0.3627604084351931  0.3854845343653038  0.1242974900783196  1.0000
