data_image0
_chemical_formula_structural       Dy4H36C18O36
_chemical_formula_sum              "Dy4 H36 C18 O36"
_cell_length_a       10.451054485054296
_cell_length_b       10.450333224565139
_cell_length_c       10.708194055439883
_cell_angle_alpha    101.28212032623274
_cell_angle_beta     117.94311555487839
_cell_angle_gamma    108.62952068771968

_space_group_name_H-M_alt    "P 1"
_space_group_IT_number       1

loop_
  _space_group_symop_operation_xyz
  'x, y, z'

loop_
  _atom_site_type_symbol
  _atom_site_label
  _atom_site_symmetry_multiplicity
  _atom_site_fract_x
  _atom_site_fract_y
  _atom_site_fract_z
  _atom_site_occupancy
  Dy  Dy1       1.0  0.9504291269568629  0.1350901702595593  0.379568666869787  1.0000
  Dy  Dy2       1.0  0.2555161671464816  0.5708550363770327  0.12042052093224237  1.0000
  Dy  Dy3       1.0  0.049571513999474105  0.8649095493004919  0.6204321940929984  1.0000
  Dy  Dy4       1.0  0.7444838825254294  0.42914356914143775  0.8795789277144408  1.0000
  H   H1        1.0  0.2944383442948535  0.21648301635322298  0.16646377033691803  1.0000
  H   H2        1.0  0.5500456216504118  0.12801944844535032  0.3334804365245105  1.0000
  H   H3        1.0  0.705565106748452  0.7835200199877831  0.8335371216862624  1.0000
  H   H4        1.0  0.44995496908729404  0.8719780729182888  0.6665227867696187  1.0000
  H   H5        1.0  0.3695712870252592  0.23702553912772123  0.3596815400627874  1.0000
  H   H6        1.0  0.37735976408622923  0.009880144024691598  0.14027202576756537  1.0000
  H   H7        1.0  0.6304321544063926  0.7629774916902363  0.640318412675242  1.0000
  H   H8        1.0  0.6226413987126024  0.9901184803344235  0.8597307312723713  1.0000
  H   H9        1.0  0.8924447643370288  0.03496755027254041  0.7871149076554931  1.0000
  H   H10       1.0  0.747832208748008  0.10529448144379927  0.7128438941918418  1.0000
  H   H11       1.0  0.10755270279705807  0.9650343772386591  0.21288493721790763  1.0000
  H   H12       1.0  0.2521685208735816  0.8947074584048945  0.287158361580168  1.0000
  H   H13       1.0  0.830504995819098  0.8570964908612311  0.10668686328617834  1.0000
  H   H14       1.0  0.2504719486039875  0.7238646907342955  0.39335308808718134  1.0000
  H   H15       1.0  0.169493969560861  0.1429021123857552  0.8933120948226828  1.0000
  H   H16       1.0  0.7495292548018143  0.2761361262981765  0.6066463673362675  1.0000
  H   H17       1.0  0.6927830766956616  0.9030130993222939  0.05064619418414648  1.0000
  H   H18       1.0  0.3523964787635235  0.6421661975097022  0.4493925678935681  1.0000
  H   H19       1.0  0.30721755464902156  0.0969866147147016  0.9493537274934952  1.0000
  H   H20       1.0  0.6476047342539316  0.3578346250458253  0.5506078268150246  1.0000
  H   H21       1.0  0.182401309189764  0.458018528068756  0.52186414663732  1.0000
  H   H22       1.0  0.4361948913345516  0.6606043695547114  0.9782125407103591  1.0000
  H   H23       1.0  0.8175994108201793  0.5419834062568825  0.47813716984954613  1.0000
  H   H24       1.0  0.5638039351615163  0.3393898152072197  0.02178738492062142  1.0000
  H   H25       1.0  0.05477365395842063  0.44638611018863356  0.5659364745736324  1.0000
  H   H26       1.0  0.3804447423797869  0.4888707350202496  0.9340364887103972  1.0000
  H   H27       1.0  0.9452231930562576  0.5536146867118175  0.43405914012824093  1.0000
  H   H28       1.0  0.6195502997862833  0.5111245326051375  0.06595912994481526  1.0000
  H   H29       1.0  0.325828541863018  0.33612900065372026  0.6412965907995483  1.0000
  H   H30       1.0  0.1948451543079415  0.6845697799126568  0.8587639435565959  1.0000
  H   H31       1.0  0.6741705025705329  0.6638718173588527  0.35870282283339333  1.0000
  H   H32       1.0  0.8051549551942472  0.31543102932527495  0.1412340820438871  1.0000
  H   H33       1.0  0.26319208694653184  0.1870995521683554  0.6579049096518473  1.0000
  H   H34       1.0  0.02919383828310626  0.6052852978129408  0.8421050366034065  1.0000
  H   H35       1.0  0.7368079531137184  0.8128990478270524  0.3420935997096918  1.0000
  H   H36       1.0  0.9708067834499233  0.39471441070099894  0.15789394578908408  1.0000
  C   C1        1.0  0.186869849783335  0.30553791638146777  0.2588941194655873  1.0000
  C   C2        1.0  0.5466670206283054  0.9279797283381511  0.24109485876613218  1.0000
  C   C3        1.0  0.8131307911730019  0.6944618031785836  0.7411067414971909  1.0000
  C   C4        1.0  0.4533336107163777  0.0720199856988444  0.7589050629115092  1.0000
  C   C5        1.0  0.3353844180474753  0.2915484786146862  0.2809397226581538  1.0000
  C   C6        1.0  0.5105860910726391  0.0544274742169506  0.2189956569894632  1.0000
  C   C7        1.0  0.6646162827391535  0.7084534446648334  0.7190597152584245  1.0000
  C   C8        1.0  0.4894134944267138  0.945572259640798  0.7810075312909248  1.0000
  C   C9        1.0  0.4864740280312462  0.4312397379389665  0.33474443767461537  1.0000
  C   C10       1.0  0.5964879500751364  0.1517054156356892  0.165195091916665  1.0000
  C   C11       1.0  0.5135266919786972  0.5687621963866647  0.6652568788122507  1.0000
  C   C12       1.0  0.4035111231933897  0.8482954189460513  0.8348071395717084  1.0000
  C   C13       1.0  0.8964734466813836  0.12249589079497974  0.622120677591738  1.0000
  C   C14       1.0  0.00033333051673166707  0.27434402974851924  0.8778292305050142  1.0000
  C   C15       1.0  0.10352394139909639  0.8775038219506397  0.37787871175758153  1.0000
  C   C16       1.0  0.9996662763662841  0.7256578857364672  0.12216877758859808  1.0000
  C   C17       1.0  0.8709767557433139  0.12097777996227421  0.7499758023285567  1.0000
  C   C18       1.0  0.12902171662911863  0.8790219350548228  0.2500240775585779  1.0000
  O   O1        1.0  0.10108812555684213  0.21701637015344494  0.28784688555578  1.0000
  O   O2        1.0  0.4291776445068508  0.8132236989141292  0.21216106023756964  1.0000
  O   O3        1.0  0.8989157778870123  0.7829833617441011  0.7121563863056153  1.0000
  O   O4        1.0  0.5708223261114612  0.18677269183875464  0.787837932885033  1.0000
  O   O5        1.0  0.15169180670453392  0.3987334295731698  0.20920593729874776  1.0000
  O   O6        1.0  0.6895126277627811  0.9424635962955394  0.29076141771063396  1.0000
  O   O7        1.0  0.8483099089321015  0.60126628673531  0.7907944749167085  1.0000
  O   O8        1.0  0.31048741229746923  0.0575350036998685  0.7092370916509125  1.0000
  O   O9        1.0  0.6254108118128485  0.44315985037402333  0.4300912734865959  1.0000
  O   O10       1.0  0.5130316202920326  0.1952547380549987  0.06980126942838889  1.0000
  O   O11       1.0  0.37459059775843434  0.5568454238048943  0.5699137894107338  1.0000
  O   O12       1.0  0.48696462366621773  0.8047427686996684  0.9301990524293088  1.0000
  O   O13       1.0  0.4715416625956833  0.5289738310823464  0.282191163323425  1.0000
  O   O14       1.0  0.7467497752769889  0.1893187083086261  0.21773037700687337  1.0000
  O   O15       1.0  0.5284568792186946  0.4710280931772814  0.7178082328026534  1.0000
  O   O16       1.0  0.2532498892759635  0.8106832403147024  0.7822732667976026  1.0000
  O   O17       1.0  0.8637408902106714  0.20709087434898524  0.5554188812228134  1.0000
  O   O18       1.0  0.151626233555902  0.30832580398830334  0.9445055300977784  1.0000
  O   O19       1.0  0.1362576612153604  0.7929110554336989  0.444581454188409  1.0000
  O   O20       1.0  0.8483727318240567  0.6916727992586827  0.05549342801108278  1.0000
  O   O21       1.0  0.9592425501552172  0.047068282882328595  0.5889820959025939  1.0000
  O   O22       1.0  0.9580466789378975  0.37024727446620176  0.9109879784330843  1.0000
  O   O23       1.0  0.04075426586415183  0.9529303268678148  0.41101775970091126  1.0000
  O   O24       1.0  0.04195459390984978  0.6297557518088014  0.08901099322930854  1.0000
  O   O25       1.0  0.8153144410762538  0.9466732590407005  0.11629302852268361  1.0000
  O   O26       1.0  0.33039992555079334  0.6990232387598782  0.3837176687098705  1.0000
  O   O27       1.0  0.18468451469204436  0.05332533868323  0.8837049903010336  1.0000
  O   O28       1.0  0.6696001241211108  0.3009753667585855  0.6162817799368128  1.0000
  O   O29       1.0  0.06420387762878478  0.4029108983180905  0.48318281001262153  1.0000
  O   O30       1.0  0.419733881343582  0.5810357399947748  0.01683117669152523  1.0000
  O   O31       1.0  0.9357972563350714  0.5970877094718502  0.5168171291718835  1.0000
  O   O32       1.0  0.5802643538680599  0.4189573307255685  0.9831673366233602  1.0000
  O   O33       1.0  0.2245672755692141  0.2544652967377985  0.6159917416003182  1.0000
  O   O34       1.0  0.13847240600097876  0.6085836136521577  0.8840364027901869  1.0000
  O   O35       1.0  0.7754316898107375  0.7455333065091877  0.3840072165085431  1.0000
  O   O36       1.0  0.8615287974048228  0.39141720338031394  0.11596305263326188  1.0000
