data_image0
_chemical_formula_structural       Cd4H12C16I8N8
_chemical_formula_sum              "Cd4 H12 C16 I8 N8"
_cell_length_a       7.71418333021294
_cell_length_b       7.954824785079812
_cell_length_c       14.316373932076615
_cell_angle_alpha    90.00036422089259
_cell_angle_beta     89.99987864246975
_cell_angle_gamma    115.95581673888576

_space_group_name_H-M_alt    "P 1"
_space_group_IT_number       1

loop_
  _space_group_symop_operation_xyz
  'x, y, z'

loop_
  _atom_site_type_symbol
  _atom_site_label
  _atom_site_symmetry_multiplicity
  _atom_site_fract_x
  _atom_site_fract_y
  _atom_site_fract_z
  _atom_site_occupancy
  Cd  Cd1       1.0  0.08413510312288955  0.9675940915612029  0.23665582253093487  1.0000
  Cd  Cd2       1.0  0.41586307813454226  0.0324050999425438  0.7366549295617304  1.0000
  Cd  Cd3       1.0  0.9158629210253224  0.0324038788342733  0.7633457626446047  1.0000
  Cd  Cd4       1.0  0.5841375075562283  0.967595664410659  0.2633452586154022  1.0000
  H   H1        1.0  0.8429102035166309  0.38130819352829076  0.17161975578133593  1.0000
  H   H2        1.0  0.6570861610367515  0.6186930195083561  0.6716239755154305  1.0000
  H   H3        1.0  0.15709098628224177  0.6186967674700837  0.8283797339018052  1.0000
  H   H4        1.0  0.34291258330735264  0.38129795343132855  0.32837760964761753  1.0000
  H   H5        1.0  0.8300140901930387  0.5822480201200548  0.04203631973587111  1.0000
  H   H6        1.0  0.6699769115232216  0.41774879919062613  0.5420363380971267  1.0000
  H   H7        1.0  0.16998450904033285  0.4177569454382705  0.957963169948748  1.0000
  H   H8        1.0  0.3300230990801224  0.5822449699824331  0.45796315156734846  1.0000
  H   H9        1.0  0.2078596010031006  0.29317925857105814  0.076783099632685  1.0000
  H   H10       1.0  0.2921383202723788  0.7068179536309671  0.5767797874077233  1.0000
  H   H11       1.0  0.7921403225370938  0.7068229061982692  0.923219184049927  1.0000
  H   H12       1.0  0.7078654891121016  0.29318420426815084  0.4232176067664143  1.0000
  C   C1        1.0  0.7048183177262358  0.3681701948453123  0.14564256300035797  1.0000
  C   C2        1.0  0.7951812863176781  0.631826493050191  0.6456396867319044  1.0000
  C   C3        1.0  0.2951821808991112  0.6318389650868638  0.8543576251913267  1.0000
  C   C4        1.0  0.20482261013393102  0.36816726928293525  0.354359802930361  1.0000
  C   C5        1.0  0.695804786032177  0.4796824567441148  0.0722673372620122  1.0000
  C   C6        1.0  0.8041965690662282  0.5203203156740699  0.5722710505229287  1.0000
  C   C7        1.0  0.3041951084862119  0.5203225065515298  0.9277349464254458  1.0000
  C   C8        1.0  0.19579828942848815  0.4796706640969006  0.4277291376405472  1.0000
  C   C9        1.0  0.5145061457370514  0.4510707478586864  0.04051633381818931  1.0000
  C   C10       1.0  0.9854881352488292  0.5489218491581056  0.5405185436147164  1.0000
  C   C11       1.0  0.485491187236505  0.5489314214619369  0.9594845528641047  1.0000
  C   C12       1.0  0.014518264701727901  0.45108030418538186  0.459479549058834  1.0000
  C   C13       1.0  0.3564481926130583  0.32049957455912886  0.09164436773293261  1.0000
  C   C14       1.0  0.14355035694090648  0.6795020183027772  0.5916446218893514  1.0000
  C   C15       1.0  0.6435510687754232  0.6795039906176684  0.9083586144533626  1.0000
  C   C16       1.0  0.8564508618769296  0.3205001441476512  0.4083513752844681  1.0000
  I   I1        1.0  0.3253230896036285  0.998859116985649  0.40364774587215635  1.0000
  I   I2        1.0  0.17467536321151303  0.0011421419486695  0.903647716508175  1.0000
  I   I3        1.0  0.6746768629561047  0.0011402492400591998  0.5963517438020176  1.0000
  I   I4        1.0  0.825326488740771  0.9988614186552025  0.09635317017396262  1.0000
  I   I5        1.0  0.22712235629816035  0.7113206054231326  0.15718405805938576  1.0000
  I   I6        1.0  0.272878948442866  0.28867619722818466  0.6571835139450428  1.0000
  I   I7        1.0  0.7728750056966405  0.28867876536684617  0.8428161301171572  1.0000
  I   I8        1.0  0.7271197378581958  0.7113203727684688  0.3428187697286021  1.0000
  N   N1        1.0  0.5487334815752902  0.2364942811330764  0.18590191996830197  1.0000
  N   N2        1.0  0.9512667920494235  0.7635071018661463  0.6859035129097962  1.0000
  N   N3        1.0  0.45126837037699374  0.7635092794707958  0.8140989667138359  1.0000
  N   N4        1.0  0.04873062798841938  0.23648667186686367  0.3140959767561569  1.0000
  N   N5        1.0  0.3748877550598451  0.21775091135236121  0.16089774949413996  1.0000
  N   N6        1.0  0.12511226043789497  0.7822459395588269  0.6608976810250697  1.0000
  N   N7        1.0  0.6251128016096885  0.7822526515314862  0.8391031371887366  1.0000
  N   N8        1.0  0.8748909448390517  0.21775202169944657  0.33910111014394323  1.0000
