data_image0
_chemical_formula_structural       Zn4H48C72N8O16
_chemical_formula_sum              "Zn4 H48 C72 N8 O16"
_cell_length_a       10.457617358636513
_cell_length_b       11.44280138231208
_cell_length_c       14.817229441670841
_cell_angle_alpha    109.98986958973907
_cell_angle_beta     100.80975515105482
_cell_angle_gamma    96.45950554043766

_space_group_name_H-M_alt    "P 1"
_space_group_IT_number       1

loop_
  _space_group_symop_operation_xyz
  'x, y, z'

loop_
  _atom_site_type_symbol
  _atom_site_label
  _atom_site_symmetry_multiplicity
  _atom_site_fract_x
  _atom_site_fract_y
  _atom_site_fract_z
  _atom_site_occupancy
  Zn  Zn1       1.0  0.2253037667673112  0.2039731529379908  0.12193651511136488  1.0000
  Zn  Zn2       1.0  0.7746949677163854  0.796028034259983  0.8780626517396255  1.0000
  Zn  Zn3       1.0  0.2746520129328544  0.21656045982306438  0.3851885567985391  1.0000
  Zn  Zn4       1.0  0.725347610195051  0.7834350681926883  0.6148092906530991  1.0000
  H   H1        1.0  0.5781129990962268  0.21560538184916578  0.11426414522948389  1.0000
  H   H2        1.0  0.4218884720237455  0.7843948774430985  0.8857344543535601  1.0000
  H   H3        1.0  0.9221402883107787  0.20518902742024644  0.39347169278124733  1.0000
  H   H4        1.0  0.0778580154421675  0.7948150062211425  0.6065288147635569  1.0000
  H   H5        1.0  0.15588142404665456  0.40671435536431494  0.7459531477306879  1.0000
  H   H6        1.0  0.8441251032064938  0.5932869114122499  0.25404633900443224  1.0000
  H   H7        1.0  0.68954636670383  0.22249900768751732  0.41074394609787385  1.0000
  H   H8        1.0  0.3104531800086717  0.7775012612016284  0.5892557652538882  1.0000
  H   H9        1.0  0.8106238968954217  0.1983361287288475  0.09692227316109843  1.0000
  H   H10       1.0  0.18937842722745302  0.8016632628115022  0.9030789139051477  1.0000
  H   H11       1.0  0.32476576392163276  0.08310922537013711  0.6143423130756387  1.0000
  H   H12       1.0  0.6752250362762452  0.9168861436039467  0.3856523654055123  1.0000
  H   H13       1.0  0.18542860351966078  0.3628823471034367  0.9030553178530523  1.0000
  H   H14       1.0  0.8145811646600264  0.6371207997077877  0.09694302443530486  1.0000
  H   H15       1.0  0.3547491547630769  0.0401023115798651  0.7713019257830992  1.0000
  H   H16       1.0  0.6452467015679841  0.9598940648785192  0.22869363985012817  1.0000
  H   H17       1.0  0.060798506679638833  0.9853188063766684  0.3609975464088676  1.0000
  H   H18       1.0  0.9392005493339677  0.014678671424419993  0.6390034231158592  1.0000
  H   H19       1.0  0.4423815768245588  0.4459695739482329  0.16178791667433493  1.0000
  H   H20       1.0  0.5576188828589964  0.554035464720478  0.8382144646814708  1.0000
  H   H21       1.0  0.036029322038778816  0.3896521145748438  0.12467400023727039  1.0000
  H   H22       1.0  0.9639678779940795  0.6103461852196902  0.8753228947061871  1.0000
  H   H23       1.0  0.4635588794875785  0.029673178813169394  0.3792395263348282  1.0000
  H   H24       1.0  0.5364436489756983  0.9703271936467818  0.6207632843228552  1.0000
  H   H25       1.0  0.02695882889955212  0.9765593444324949  0.10485114069550854  1.0000
  H   H26       1.0  0.9730401914727478  0.0234429247988999  0.8951537357117657  1.0000
  H   H27       1.0  0.46990816916297706  0.4427296894241195  0.39790581141294  1.0000
  H   H28       1.0  0.530092620509066  0.55726681471279  0.60209310374578  1.0000
  H   H29       1.0  0.0593279137006135  0.6119594978370557  0.40446599119152876  1.0000
  H   H30       1.0  0.940674464787733  0.38803996111251143  0.5955379198512813  1.0000
  H   H31       1.0  0.4372436382911928  0.8087606552840969  0.09575700103329148  1.0000
  H   H32       1.0  0.5627578243701945  0.19124442914309012  0.9042468674205819  1.0000
  H   H33       1.0  0.42136970781204036  0.017852747941795102  0.09103541201097438  1.0000
  H   H34       1.0  0.5786296396928491  0.982151382014976  0.9089686256143137  1.0000
  H   H35       1.0  0.4758716228067144  0.6564239673719785  0.3972760030457393  1.0000
  H   H36       1.0  0.5241299383200301  0.343571567899197  0.6027214136313217  1.0000
  H   H37       1.0  0.0758879905429239  0.39977258080169525  0.4089302015280153  1.0000
  H   H38       1.0  0.9241151729914916  0.6002259261344352  0.5910728920272844  1.0000
  H   H39       1.0  0.4508514592961603  0.6545643409039529  0.14351529167515045  1.0000
  H   H40       1.0  0.5491471303453962  0.34544077477086443  0.8564909254259375  1.0000
  H   H41       1.0  0.023891009753690247  0.769006083410851  0.11322242003650017  1.0000
  H   H42       1.0  0.9761120637739464  0.23099714754637557  0.8867818564247755  1.0000
  H   H43       1.0  0.05238121560955738  0.7780678386347691  0.3811183939000244  1.0000
  H   H44       1.0  0.9476192333385283  0.22192678792446696  0.6188806790465262  1.0000
  H   H45       1.0  0.024180077325084436  0.5939252752606025  0.10332545738729237  1.0000
  H   H46       1.0  0.975819627820918  0.4060710820040115  0.896667884708499  1.0000
  H   H47       1.0  0.4748944881873385  0.8239388075838364  0.3979825146116695  1.0000
  H   H48       1.0  0.5251051400733643  0.17606156241913604  0.6020212827049389  1.0000
  C   C1        1.0  0.6546457577652021  0.21514938778899065  0.17530444658727617  1.0000
  C   C2        1.0  0.34535429323754835  0.7848536890405245  0.8246946875856621  1.0000
  C   C3        1.0  0.8786470905171198  0.20047207722903695  0.24380915494987923  1.0000
  C   C4        1.0  0.12135072253693831  0.7995291653242874  0.7561926107678827  1.0000
  C   C5        1.0  0.8459611743792332  0.20707187191574414  0.3328450918630778  1.0000
  C   C6        1.0  0.15403842669873313  0.7929284643826268  0.6671573434652487  1.0000
  C   C7        1.0  0.621993915260269  0.22163220917331478  0.2643447781063272  1.0000
  C   C8        1.0  0.37800381624558815  0.77836893226619  0.7356529016465884  1.0000
  C   C9        1.0  0.4838041025988389  0.2309286557609483  0.2747418977948398  1.0000
  C   C10       1.0  0.5161942639781498  0.7690706201547429  0.7252560648556992  1.0000
  C   C11       1.0  0.016645415572654094  0.18989787646457046  0.23345592912968266  1.0000
  C   C12       1.0  0.9833541990966805  0.8101024766860975  0.7665471871927847  1.0000
  C   C13       1.0  0.1991802016842285  0.32649159929115973  0.7521425342724867  1.0000
  C   C14       1.0  0.8008220272990768  0.6735076742830659  0.24785388583476475  1.0000
  C   C15       1.0  0.21773479268381377  0.2692641306365999  0.575320015627028  1.0000
  C   C16       1.0  0.782263560301814  0.7307351284267797  0.42467726602937  1.0000
  C   C17       1.0  0.23919330056166638  0.2477414671674154  0.6710504315410261  1.0000
  C   C18       1.0  0.7608021114472833  0.7522577388820795  0.32894579379187405  1.0000
  C   C19       1.0  0.2874313929706105  0.17185914542660197  0.9396151962576054  1.0000
  C   C20       1.0  0.7125697510167582  0.828139253140286  0.06038424210741776  1.0000
  C   C21       1.0  0.7177586808166507  0.21752052862903073  0.34266791155182824  1.0000
  C   C22       1.0  0.28223989010074035  0.7824797282062619  0.657331674690141  1.0000
  C   C23       1.0  0.7829528079438716  0.20473896210808115  0.16550774537063967  1.0000
  C   C24       1.0  0.21704923542319685  0.7952641893860747  0.8344936820042932  1.0000
  C   C25       1.0  0.2958419195452464  0.14488306587485064  0.6784301033955699  1.0000
  C   C26       1.0  0.7041504915188735  0.8551104496292726  0.32156498309299036  1.0000
  C   C27       1.0  0.2149561077331299  0.3017523356494891  0.8389148508070717  1.0000
  C   C28       1.0  0.7850488986605554  0.6982460605759401  0.16108304501466358  1.0000
  C   C29       1.0  0.31200644886281026  0.12049160814006403  0.7652991263816415  1.0000
  C   C30       1.0  0.6879884316731477  0.879504756264453  0.23469631414180012  1.0000
  C   C31       1.0  0.15031111463568436  0.945515221003113  0.36970075591450063  1.0000
  C   C32       1.0  0.8496916402179336  0.05448132409382112  0.6302990904579246  1.0000
  C   C33       1.0  0.2706847885340764  0.19824613851460532  0.8459218638468398  1.0000
  C   C34       1.0  0.7293164918368618  0.8017531567103691  0.1540757931389081  1.0000
  C   C35       1.0  0.3519481419832999  0.48302142043493046  0.14842082629888154  1.0000
  C   C36       1.0  0.648052154133957  0.5169826878710992  0.8515819744479102  1.0000
  C   C37       1.0  0.12533677064271126  0.45167105342897435  0.12798120876739458  1.0000
  C   C38       1.0  0.8746622038226874  0.5483263232582872  0.8720156747924787  1.0000
  C   C39       1.0  0.37482825175433737  0.9699185853641413  0.3793380845876512  1.0000
  C   C40       1.0  0.6251721343696983  0.030080798920785398  0.6206635332531646  1.0000
  C   C41       1.0  0.11737776994880285  0.9380498235980074  0.10602269373846697  1.0000
  C   C42       1.0  0.8826225125770929  0.061954267855718115  0.8939794260141836  1.0000
  C   C43       1.0  0.23689746805705875  0.6443101035900654  0.12077217866348625  1.0000
  C   C44       1.0  0.7631000998825002  0.35569010748675123  0.8792259204804154  1.0000
  C   C45       1.0  0.2632860922632148  0.7793685375619507  0.3888852445015657  1.0000
  C   C46       1.0  0.7367120835647468  0.22062977428643651  0.6111117755516771  1.0000
  C   C47       1.0  0.3805286597970435  0.4830634474766244  0.3981577394097612  1.0000
  C   C48       1.0  0.6194725249644363  0.516935001647177  0.601843741937685  1.0000
  C   C49       1.0  0.15266968671414818  0.5784117969874673  0.400461198012799  1.0000
  C   C50       1.0  0.847332514616532  0.4215867147471146  0.5995424514268634  1.0000
  C   C51       1.0  0.265329082618301  0.6533704758743398  0.39540136293577877  1.0000
  C   C52       1.0  0.7346730371641782  0.34662793474641523  0.6045982005390228  1.0000
  C   C53       1.0  0.3442234681011129  0.8414384360685434  0.10219247668970162  1.0000
  C   C54       1.0  0.6557765964930055  0.15856465761327607  0.8978073384773706  1.0000
  C   C55       1.0  0.33683892387181663  0.9605704501069501  0.09902180602918532  1.0000
  C   C56       1.0  0.6631604236330728  0.0394336798498216  0.900982231596103  1.0000
  C   C57       1.0  0.3821489172169023  0.6036316097161958  0.3967053585318465  1.0000
  C   C58       1.0  0.617852608268535  0.3963687169852863  0.6032959650277617  1.0000
  C   C59       1.0  0.16052558003670472  0.4589762631248818  0.402951221159462  1.0000
  C   C60       1.0  0.8394766212939755  0.5410222486096928  0.597052428280193  1.0000
  C   C61       1.0  0.3554346261620083  0.5994223915966261  0.1374310977566751  1.0000
  C   C62       1.0  0.6445663050263943  0.4005798511855831  0.8625719858877401  1.0000
  C   C63       1.0  0.11681043517817363  0.8187183787554774  0.11005656730135624  1.0000
  C   C64       1.0  0.8831915674147838  0.18128472218176486  0.8899428170911463  1.0000
  C   C65       1.0  0.14640141621953257  0.8287175123402337  0.37987639653513827  1.0000
  C   C66       1.0  0.8535983432919422  0.17127891233359804  0.6201196695372315  1.0000
  C   C67       1.0  0.233170721156938  0.768385576300027  0.1109052016415149  1.0000
  C   C68       1.0  0.7668287983728206  0.23161465888451  0.889093147721965  1.0000
  C   C69       1.0  0.12010476393387391  0.5663685904046647  0.11621348805211797  1.0000
  C   C70       1.0  0.8798937254353162  0.4336315653168016  0.8837820122250049  1.0000
  C   C71       1.0  0.3797205871231099  0.8541561550593497  0.38932592694278145  1.0000
  C   C72       1.0  0.6202773159377272  0.1458403634728853  0.6106746558690046  1.0000
  N   N1        1.0  0.26228457195490756  0.015611094570701303  0.3690073008019041  1.0000
  N   N2        1.0  0.7377158141691351  0.9843882897142254  0.6309943170389118  1.0000
  N   N3        1.0  0.23920456681504723  0.40961772226705057  0.14390443209200035  1.0000
  N   N4        1.0  0.7607928511495812  0.5903815752993822  0.8560947674370353  1.0000
  N   N5        1.0  0.27152703469941736  0.40990494829409146  0.3994306002223879  1.0000
  N   N6        1.0  0.7284751258571589  0.5900935128835769  0.6005710062348439  1.0000
  N   N7        1.0  0.22626233738221652  0.0103680178229837  0.10363004925906685  1.0000
  N   N8        1.0  0.7737356664208689  0.9896341887976376  0.8963726590559913  1.0000
  O   O1        1.0  0.0901767185886726  0.15925966250686235  0.29690151706565615  1.0000
  O   O2        1.0  0.9098223510162953  0.8407378321465305  0.7031001334532121  1.0000
  O   O3        1.0  0.05003189515929309  0.21085215912543023  0.16098480645037935  1.0000
  O   O4        1.0  0.9499684145493318  0.7891519660328967  0.8390186752905533  1.0000
  O   O5        1.0  0.4092507432148337  0.26052345778371944  0.21125841845536536  1.0000
  O   O6        1.0  0.5907478277025574  0.7394767990515662  0.7887411677866039  1.0000
  O   O7        1.0  0.4513599814514393  0.21082863706220692  0.34791541486441696  1.0000
  O   O8        1.0  0.5486391837629937  0.7891697036923516  0.6520824112927527  1.0000
  O   O9        1.0  0.3128886043249111  0.2477843962501254  0.5305188578289729  1.0000
  O   O10       1.0  0.6871101165674105  0.7522167740955439  0.4694796280278694  1.0000
  O   O11       1.0  0.18713370062298643  0.1849087994283849  0.9794919162608264  1.0000
  O   O12       1.0  0.8128681248123115  0.8150933542938574  0.02050720652852068  1.0000
  O   O13       1.0  0.11295470981350773  0.3018045062154685  0.5443594972778313  1.0000
  O   O14       1.0  0.8870430352837173  0.6981966520763407  0.4556388634692252  1.0000
  O   O15       1.0  0.3926962435439164  0.1423559826813303  0.9730694272343924  1.0000
  O   O16       1.0  0.6073041018060223  0.8576433510466902  0.02693014762400031  1.0000
