data_image0
_chemical_formula_structural       Al3H27C63N3Cl9O18
_chemical_formula_sum              "Al3 H27 C63 N3 Cl9 O18"
_cell_length_a       4.107340290359586
_cell_length_b       23.377131482898225
_cell_length_c       23.377348207984358
_cell_angle_alpha    119.99885490642937
_cell_angle_beta     89.99905166350874
_cell_angle_gamma    90.00145647287198

_space_group_name_H-M_alt    "P 1"
_space_group_IT_number       1

loop_
  _space_group_symop_operation_xyz
  'x, y, z'

loop_
  _atom_site_type_symbol
  _atom_site_label
  _atom_site_symmetry_multiplicity
  _atom_site_fract_x
  _atom_site_fract_y
  _atom_site_fract_z
  _atom_site_occupancy
  Al  Al1       1.0  0.9920517883011329  0.000387325156651797  0.5001514949309893  1.0000
  Al  Al2       1.0  0.9921029120150634  0.33317666676488494  0.16690186806202692  1.0000
  Al  Al3       1.0  0.9920709315895165  0.66642111625125  0.8329343267169235  1.0000
  H   H1        1.0  0.21140065884032572  0.8687872086207592  0.92124126824163  1.0000
  H   H2        1.0  0.2057693674869085  0.9748945321643346  0.9227032694646624  1.0000
  H   H3        1.0  0.7657446352123002  0.8864586393426775  0.7425199116917297  1.0000
  H   H4        1.0  0.7657473975308806  0.022729139197963377  0.9468791198583303  1.0000
  H   H5        1.0  0.21146007441345202  0.21911611393626612  0.9645352182280859  1.0000
  H   H6        1.0  0.20580437095622983  0.11447001717923623  0.8584346889113872  1.0000
  H   H7        1.0  0.7657780203310053  0.09081211657597514  0.8106007996633052  1.0000
  H   H8        1.0  0.2113449865726125  0.9120906030488526  0.6142237950932881  1.0000
  H   H9        1.0  0.20573783682340258  0.9106328599646217  0.7188707887128983  1.0000
  H   H10       1.0  0.7805442897475103  0.4201856059973821  0.36724228335271647  1.0000
  H   H11       1.0  0.7928321031984994  0.42237560281369463  0.4737177665873133  1.0000
  H   H12       1.0  0.23390701746441783  0.24209175786972278  0.3873256679408001  1.0000
  H   H13       1.0  0.23384936561940614  0.44599183136825354  0.5214265047616989  1.0000
  H   H14       1.0  0.7804458666666605  0.46607953641625927  0.7196010408361672  1.0000
  H   H15       1.0  0.7927796937313687  0.35960577328383164  0.6153195963551353  1.0000
  H   H16       1.0  0.23383911330615348  0.31189157179707655  0.5912228796359358  1.0000
  H   H17       1.0  0.7805400725615925  0.11372260895985417  0.4131500829323329  1.0000
  H   H18       1.0  0.792864482272975  0.21800707852426632  0.4109536910647194  1.0000
  H   H19       1.0  0.7816357038417436  0.4471161467027258  0.08003885861099033  1.0000
  H   H20       1.0  0.7934512660423111  0.5512756482196435  0.07770564556628297  1.0000
  H   H21       1.0  0.2338829720871658  0.6451823753925368  0.257891859166989  1.0000
  H   H22       1.0  0.23386079914210714  0.575439669019751  0.05396235117151356  1.0000
  H   H23       1.0  0.7815741835370957  0.7532969640215227  0.033738236494642145  1.0000
  H   H24       1.0  0.7934018548531726  0.7556350323917299  0.14022990893548837  1.0000
  H   H25       1.0  0.23383966536469097  0.7793697625907612  0.1881495175872133  1.0000
  H   H26       1.0  0.7816364709678112  0.799589001743385  0.38621305771162157  1.0000
  H   H27       1.0  0.7934784886681997  0.6930994217720182  0.282056077906809  1.0000
  C   C1        1.0  0.49092720357494113  0.9137609089206292  0.41161127271487163  1.0000
  C   C2        1.0  0.4962107242906272  0.9999065297611124  0.5873187224108705  1.0000
  C   C3        1.0  0.49096233313909465  0.08852137880833764  0.5020646503607864  1.0000
  C   C4        1.0  0.4962593144904518  0.24600926860004788  0.07925528905946776  1.0000
  C   C5        1.0  0.49098426981533544  0.4217236680388368  0.16881700846616346  1.0000
  C   C6        1.0  0.4910080604282143  0.33126347281599067  0.2531224829824836  1.0000
  C   C7        1.0  0.4962355173236831  0.7540698929387375  0.8334172771244468  1.0000
  C   C8        1.0  0.4909346717267624  0.6645109553881382  0.9195659730068257  1.0000
  C   C9        1.0  0.49095880710673623  0.5801979521022033  0.7447960961999482  1.0000
  C   C10       1.0  0.33795424786781336  0.8731275211247221  0.8826135129339717  1.0000
  C   C11       1.0  0.33180115298315377  0.9328284111084882  0.8831343041784335  1.0000
  C   C12       1.0  0.4886767371647097  0.9391758390403097  0.833167696606857  1.0000
  C   C13       1.0  0.6449174296325353  0.8836469046006382  0.7823798604610415  1.0000
  C   C14       1.0  0.6414268126868378  0.8236220674946251  0.7814027698346635  1.0000
  C   C15       1.0  0.4948790654626051  0.8176209744153337  0.8322002452086676  1.0000
  C   C16       1.0  0.6449275533816846  0.06539356821394902  0.949685895954559  1.0000
  C   C17       1.0  0.6414355521871968  0.124447615440225  0.009713295857629603  1.0000
  C   C18       1.0  0.4948943113644474  0.1812412430364461  0.015704976305990184  1.0000
  C   C19       1.0  0.3379843899633386  0.17614836490679395  0.96020012599633  1.0000
  C   C20       1.0  0.3318281781931844  0.1169677898118806  0.900503024727044  1.0000
  C   C21       1.0  0.4886875820507157  0.06065634616283683  0.8941592290052895  1.0000
  C   C22       1.0  0.6449350163302867  0.05095007693488166  0.7679325541223178  1.0000
  C   C23       1.0  0.6414367905540459  0.051927483927109  0.7088843460737663  1.0000
  C   C24       1.0  0.4948763038028616  0.0011274854264584403  0.6520908050947581  1.0000
  C   C25       1.0  0.33791909277290705  0.9507224811404453  0.6571930953505997  1.0000
  C   C26       1.0  0.3317785035692112  0.9502008929633945  0.7163706481013817  1.0000
  C   C27       1.0  0.48867438707716093  0.00016791978392631567  0.7726781646085212  1.0000
  C   C28       1.0  0.6567994713212998  0.3815673140202874  0.3720598896483053  1.0000
  C   C29       1.0  0.666391760507473  0.3825115522877596  0.4319583579319257  1.0000
  C   C30       1.0  0.5117939718797403  0.332725253220957  0.43897617291688107  1.0000
  C   C31       1.0  0.3538099363550913  0.28169180947340783  0.3839294394840209  1.0000
  C   C32       1.0  0.3539830725981261  0.28027347727027774  0.3237060250102815  1.0000
  C   C33       1.0  0.4987691937603529  0.3307730954018949  0.31701775730363824  1.0000
  C   C34       1.0  0.3537913982815225  0.44938988280939185  0.5644227936464715  1.0000
  C   C35       1.0  0.3539243627624771  0.5096151309282178  0.6232223909432192  1.0000
  C   C36       1.0  0.4987360736798152  0.5163089805480253  0.6804172464131142  1.0000
  C   C37       1.0  0.6567397618634416  0.46126300871699033  0.6761633104085901  1.0000
  C   C38       1.0  0.6663381856530749  0.4013636229350935  0.6172123999278795  1.0000
  C   C39       1.0  0.5117634249287947  0.39434844243334055  0.5604090007101803  1.0000
  C   C40       1.0  0.35376712800544413  0.26889377212454946  0.5516256775596702  1.0000
  C   C41       1.0  0.3539309181951822  0.21009452625791167  0.5530512362562661  1.0000
  C   C42       1.0  0.4987309868505677  0.1529062709751087  0.502554698427481  1.0000
  C   C43       1.0  0.6567824056490892  0.1571593904388066  0.4517642091835937  1.0000
  C   C44       1.0  0.6663889167599636  0.2161081637102384  0.4508136625136885  1.0000
  C   C45       1.0  0.5117722826638412  0.27291193691281274  0.5005987524165505  1.0000
  C   C46       1.0  0.6572450230557579  0.4904957266666941  0.11858442433132407  1.0000
  C   C47       1.0  0.6667760607005563  0.5494159210588947  0.11756578346877693  1.0000
  C   C48       1.0  0.5119890041464359  0.6062423951107617  0.16729651925328412  1.0000
  C   C49       1.0  0.35390593994177516  0.6022040286678276  0.2182983035342971  1.0000
  C   C50       1.0  0.35397964623827954  0.5433901982055787  0.21972903567336027  1.0000
  C   C51       1.0  0.4989038756966764  0.48615044753218933  0.16930794599626603  1.0000
  C   C52       1.0  0.3538708428197311  0.6150371670939165  0.05057295386799148  1.0000
  C   C53       1.0  0.3539315933383235  0.6136069836143391  0.9903338335333344  1.0000
  C   C54       1.0  0.49884918692820424  0.6640220579818957  0.9835076759006327  1.0000
  C   C55       1.0  0.657203660687216  0.7147554276440856  0.038572338565110366  1.0000
  C   C56       1.0  0.6667277821445269  0.715769894510558  0.0985143624662683  1.0000
  C   C57       1.0  0.5119814793457705  0.6660435554770742  0.10561337734615961  1.0000
  C   C58       1.0  0.3538693460591631  0.7827581921203262  0.23112976308177474  1.0000
  C   C59       1.0  0.35392196705340245  0.8429977547161583  0.2899407113598116  1.0000
  C   C60       1.0  0.4988602874872613  0.8498178592052029  0.3471778505449663  1.0000
  C   C61       1.0  0.6572340477250053  0.794755627637933  0.34283751378589494  1.0000
  C   C62       1.0  0.6667716006903535  0.7348167127121313  0.28391672057654194  1.0000
  C   C63       1.0  0.5119801499783705  0.7277186054403231  0.22709016259548054  1.0000
  N   N1        1.0  0.48677709845495093  0.9999977949130354  0.8333331404969468  1.0000
  N   N2        1.0  0.5168650108441993  0.33332672322119083  0.49999247898778515  1.0000
  N   N3        1.0  0.5171255581962697  0.6666678726769603  0.16666586688791085  1.0000
  Cl  Cl1       1.0  0.8191849297508469  0.7557737834743817  0.7152523637297249  1.0000
  Cl  Cl2       1.0  0.8191874400840575  0.1261467721584069  0.07756105521239928  1.0000
  Cl  Cl3       1.0  0.8192232369308742  0.11807548578377688  0.7071795899520978  1.0000
  Cl  Cl4       1.0  0.17284973961386638  0.21405302977429833  0.25642172064292607  1.0000
  Cl  Cl5       1.0  0.1727582756873289  0.5768954290381955  0.6242833159578963  1.0000
  Cl  Cl6       1.0  0.17277889696663357  0.2090316525369147  0.6192724620250019  1.0000
  Cl  Cl7       1.0  0.17220922817286777  0.5424729821561058  0.28599367384020974  1.0000
  Cl  Cl8       1.0  0.172162804333162  0.54733838504697  0.9231549965405461  1.0000
  Cl  Cl9       1.0  0.17212530138179014  0.9101766084781104  0.29085326909083153  1.0000
  O   O1        1.0  0.7246320891905709  0.07669722991440849  0.5301476948474572  1.0000
  O   O2        1.0  0.7243238067030546  0.9537244664711081  0.4234706924369078  1.0000
  O   O3        1.0  0.7316986008657764  0.9698577129610015  0.5480548426366596  1.0000
  O   O4        1.0  0.25245144332593134  0.05014904016548623  0.4723320806756205  1.0000
  O   O5        1.0  0.25944468611824334  0.027634350817038376  0.576026671143694  1.0000
  O   O6        1.0  0.25243348310739583  0.9223530804504204  0.4499656646293956  1.0000
  O   O7        1.0  0.2525082802195939  0.3609952499408847  0.24448370266234315  1.0000
  O   O8        1.0  0.2594797574350522  0.2573036178386161  0.11827827905182177  1.0000
  O   O9        1.0  0.2524952941730376  0.3833597366195108  0.13905036670183787  1.0000
  O   O10       1.0  0.7246676713173557  0.303178292435959  0.2132142129424111  1.0000
  O   O11       1.0  0.7243764701528476  0.4098561269093039  0.1969169227380831  1.0000
  O   O12       1.0  0.7317717163552615  0.2852768657433558  0.08847161517036993  1.0000
  O   O13       1.0  0.25245778524695345  0.5888417295171493  0.7831724572373772  1.0000
  O   O14       1.0  0.2594531009990249  0.7150491131058841  0.8056882514854207  1.0000
  O   O15       1.0  0.25242515271990845  0.6942671581923107  0.910966930619672  1.0000
  O   O16       1.0  0.7246402638979178  0.6201071442000837  0.7566209076503724  1.0000
  O   O17       1.0  0.7242923851505694  0.636399744418668  0.8795956152383795  1.0000
  O   O18       1.0  0.7317289296136521  0.7448534388001206  0.8634653844707357  1.0000
