data_image0
_chemical_formula_structural       K2H48C24I6O12
_chemical_formula_sum              "K2 H48 C24 I6 O12"
_cell_length_a       8.38481393638354
_cell_length_b       8.48907573077337
_cell_length_c       17.252809920358487
_cell_angle_alpha    85.77140522315322
_cell_angle_beta     81.4134063163361
_cell_angle_gamma    60.40556591052603

_space_group_name_H-M_alt    "P 1"
_space_group_IT_number       1

loop_
  _space_group_symop_operation_xyz
  'x, y, z'

loop_
  _atom_site_type_symbol
  _atom_site_label
  _atom_site_symmetry_multiplicity
  _atom_site_fract_x
  _atom_site_fract_y
  _atom_site_fract_z
  _atom_site_occupancy
  K   K1        1.0  0.01121905363071105  0.17034157269602462  0.31494263451631344  1.0000
  K   K2        1.0  0.1815616606024617  0.8296480340468337  0.8149442790683992  1.0000
  H   H1        1.0  0.5147780704012419  0.21558803926541267  0.49718517423539765  1.0000
  H   H2        1.0  0.7303668856712945  0.7844115987840399  0.997184734883632  1.0000
  H   H3        1.0  0.6562952261477973  0.3187228774676783  0.5002384969652027  1.0000
  H   H4        1.0  0.9750171623874235  0.6812739084483185  0.00023768172061980632  1.0000
  H   H5        1.0  0.7936744072215873  0.007051132398629502  0.5548908952306135  1.0000
  H   H6        1.0  0.8007270785245095  0.9929440234489069  0.0548922731982131  1.0000
  H   H7        1.0  0.8042840248409034  0.9180963691227293  0.4618089348144707  1.0000
  H   H8        1.0  0.7223795848300298  0.08190241383770312  0.9618112006974116  1.0000
  H   H9        1.0  0.15256149753754036  0.7527685036628001  0.46104962727329013  1.0000
  H   H10       1.0  0.9053238495930456  0.24723376181279383  0.9610496031802782  1.0000
  H   H11       1.0  0.11986130188575553  0.8621454800319912  0.5519226744386998  1.0000
  H   H12       1.0  0.9820057128179941  0.1378572021135228  0.05192224132197506  1.0000
  H   H13       1.0  0.27858169576444425  0.027300953835506906  0.4872050871767187  1.0000
  H   H14       1.0  0.3058776172457767  0.9727060301466823  0.9872053800245341  1.0000
  H   H15       1.0  0.4234776350271473  0.7860271196781171  0.48230308625088014  1.0000
  H   H16       1.0  0.20949826162564014  0.2139785906854784  0.9823008747261425  1.0000
  H   H17       1.0  0.6132999931717505  0.8008942679311418  0.36883977938228435  1.0000
  H   H18       1.0  0.41419494566932247  0.1991042823494596  0.8688396251188877  1.0000
  H   H19       1.0  0.4825909950627575  0.042402480444096106  0.3763766140764703  1.0000
  H   H20       1.0  0.5249895766309575  0.9575973680861907  0.8763776636211774  1.0000
  H   H21       1.0  0.6481601756501618  0.9251641995776371  0.24141743042327587  1.0000
  H   H22       1.0  0.5733238115330223  0.07483648204191698  0.7414172911270143  1.0000
  H   H23       1.0  0.5070156883315133  0.8228774180939881  0.2369841155074042  1.0000
  H   H24       1.0  0.32989239507069357  0.1771214476252254  0.7369846311292748  1.0000
  H   H25       1.0  0.37695459482856103  0.016638843599082503  0.1291875940205927  1.0000
  H   H26       1.0  0.39359350227726925  0.9833603915996467  0.629187797944688  1.0000
  H   H27       1.0  0.5064872999978647  0.13163150842007104  0.1339363649126426  1.0000
  H   H28       1.0  0.638118480439253  0.868368173511705  0.6339377418817733  1.0000
  H   H29       1.0  0.20779150683222972  0.4184817181020081  0.1718274641993602  1.0000
  H   H30       1.0  0.626271542273585  0.5815174174357268  0.6718283837596459  1.0000
  H   H31       1.0  0.23414964813436961  0.3385576650084731  0.07573783305702618  1.0000
  H   H32       1.0  0.5727086529728993  0.6614404850221902  0.57573856771117  1.0000
  H   H33       1.0  0.8975061620396116  0.48026197779147844  0.07542443883119179  1.0000
  H   H34       1.0  0.3777666419233439  0.5197394673664989  0.5754243335901776  1.0000
  H   H35       1.0  0.8784988784777353  0.5782864342812178  0.16705274236386455  1.0000
  H   H36       1.0  0.4567832970612571  0.42171334659062865  0.6670533161667649  1.0000
  H   H37       1.0  0.5961585195934161  0.5611232026582657  0.14762987384544604  1.0000
  H   H38       1.0  0.1572786990037897  0.43887864325400033  0.6476298659834754  1.0000
  H   H39       1.0  0.7307349154137626  0.3201759783323937  0.1424852464101605  1.0000
  H   H40       1.0  0.050908873499714874  0.6798245696360825  0.6424852095282105  1.0000
  H   H41       1.0  0.5274074483841601  0.31459540370728695  0.2560522589594285  1.0000
  H   H42       1.0  0.8420022219069877  0.6854067557754887  0.7560518315321119  1.0000
  H   H43       1.0  0.4095633841133618  0.5556523719462304  0.26553736755371204  1.0000
  H   H44       1.0  0.9652135820815098  0.4443497544369708  0.765537056799694  1.0000
  H   H45       1.0  0.535689561734678  0.5168016609289482  0.3945151680933279  1.0000
  H   H46       1.0  0.05248956264093604  0.48319758827504716  0.8945145752957799  1.0000
  H   H47       1.0  0.37769683152222905  0.43281573531040624  0.3930471678524868  1.0000
  H   H48       1.0  0.8105109567059046  0.5671856233439244  0.89304568310871  1.0000
  C   C1        1.0  0.6473869723701781  0.21013822616117753  0.4727449175776428  1.0000
  C   C2        1.0  0.8575271239506603  0.7898591290707062  0.972744477569634  1.0000
  C   C3        1.0  0.8063214245572466  0.02871186598392941  0.4907777812692373  1.0000
  C   C4        1.0  0.8350335517458372  0.9712869385258077  0.990777407049876  1.0000
  C   C5        1.0  0.13413866208909989  0.876297015479672  0.48745906550085744  1.0000
  C   C6        1.0  0.010430045186239969  0.12370670921431783  0.9874580240436543  1.0000
  C   C7        1.0  0.2997091578310742  0.901649465944324  0.4614702083677358  1.0000
  C   C8        1.0  0.2013518513283685  0.09835887668656082  0.961469082323731  1.0000
  C   C9        1.0  0.490793753951152  0.9225681344775369  0.3507817856492395  1.0000
  C   C10       1.0  0.4133593436117166  0.07743169240760041  0.850781821320389  1.0000
  C   C11       1.0  0.5121363294369553  0.9355329954656287  0.2627021290879695  1.0000
  C   C12       1.0  0.4476677479526143  0.0644672703899687  0.7627026582781653  1.0000
  C   C13       1.0  0.37704827281729075  0.12977804406061474  0.15724254205235155  1.0000
  C   C14       1.0  0.506826202651382  0.870221214813242  0.6572427596031147  1.0000
  C   C15       1.0  0.21485234469344755  0.30832833517123254  0.13875881413542862  1.0000
  C   C16       1.0  0.5231803557380346  0.6916708193046618  0.6387596327886625  1.0000
  C   C17       1.0  0.8884380573057126  0.4596335434186828  0.13964979037183406  1.0000
  C   C18       1.0  0.3480690858867489  0.5403675839152557  0.63964977028634  1.0000
  C   C19       1.0  0.7186827505130324  0.4422617260534453  0.1677312816370957  1.0000
  C   C20       1.0  0.1609434749287572  0.5577388382328365  0.6677311718193266  1.0000
  C   C21       1.0  0.5299692454350476  0.4290513984908487  0.28147752437530466  1.0000
  C   C22       1.0  0.9590192952696763  0.5709494487836227  0.7814766187757627  1.0000
  C   C23       1.0  0.516702296368848  0.41197768886246433  0.3693428273007342  1.0000
  C   C24       1.0  0.9286788734357071  0.5880227353637584  0.8693424992424142  1.0000
  I   I1        1.0  0.963556489573932  0.48090743283415804  0.47001376377252063  1.0000
  I   I2        1.0  0.44446075645683436  0.5190925224052166  0.9700144134869504  1.0000
  I   I3        1.0  0.016202824997307613  0.6551070163174586  0.3224214350599937  1.0000
  I   I4        1.0  0.671313556567206  0.3448709837880274  0.8224285296569604  1.0000
  I   I5        1.0  0.08273555313576941  0.8278027707119905  0.17600576003717802  1.0000
  I   I6        1.0  0.9105348921290213  0.17219383647761083  0.6760080633720804  1.0000
  O   O1        1.0  0.6559695852030175  0.2355258229345908  0.3897925037856709  1.0000
  O   O2        1.0  0.8914945350798574  0.7644746428471552  0.8897927340727847  1.0000
  O   O3        1.0  0.9741989923698501  0.031986484008214716  0.4642722707321952  1.0000
  O   O4        1.0  0.006184431145505962  0.9680129618203285  0.9642733583354755  1.0000
  O   O5        1.0  0.32702360642203115  0.910997228190098  0.37796608722743497  1.0000
  O   O6        1.0  0.23801654277993828  0.08900612573392412  0.8779649623095837  1.0000
  O   O7        1.0  0.365666899406726  0.10542138394622211  0.24024957559392132  1.0000
  O   O8        1.0  0.4710877313295965  0.8945788225983621  0.7402503698086491  1.0000
  O   O9        1.0  0.04841509233324353  0.2979726218286488  0.15908694588707561  1.0000
  O   O10       1.0  0.3463857782358843  0.7020273738760138  0.6590872713354301  1.0000
  O   O11       1.0  0.6974506675468247  0.4315253854817059  0.251303535798975  1.0000
  O   O12       1.0  0.12897459805920858  0.5684761165197473  0.7513028450904713  1.0000
