data_image0
_chemical_formula_structural       Cu12H48C88N24
_chemical_formula_sum              "Cu12 H48 C88 N24"
_cell_length_a       21.963585258745972
_cell_length_b       25.68301870060541
_cell_length_c       27.30551631013481
_cell_angle_alpha    90.90922414107014
_cell_angle_beta     92.07988643330866
_cell_angle_gamma    90.11442242329656

_space_group_name_H-M_alt    "P 1"
_space_group_IT_number       1

loop_
  _space_group_symop_operation_xyz
  'x, y, z'

loop_
  _atom_site_type_symbol
  _atom_site_label
  _atom_site_symmetry_multiplicity
  _atom_site_fract_x
  _atom_site_fract_y
  _atom_site_fract_z
  _atom_site_occupancy
  Cu  Cu1       1.0  0.5989848009240788  0.4371259835373849  0.6568511034335388  1.0000
  Cu  Cu2       1.0  0.64681777611041  0.39761838088660534  0.5581036277251598  1.0000
  Cu  Cu3       1.0  0.591019557206714  0.3173455120342865  0.6345563882008989  1.0000
  Cu  Cu4       1.0  0.3589800106446432  0.10611228064377089  0.1731114872292707  1.0000
  Cu  Cu5       1.0  0.3540821346320584  0.1051145775776661  0.056504909404836184  1.0000
  Cu  Cu6       1.0  0.44358166610965816  0.18049076735842107  0.11787410541263199  1.0000
  Cu  Cu7       1.0  0.10723999177429991  0.5681416313224689  0.8423666487881077  1.0000
  Cu  Cu8       1.0  0.15265559617621696  0.599309623677506  0.9476679627912006  1.0000
  Cu  Cu9       1.0  0.08948033707849849  0.6832113875545573  0.8741645645088096  1.0000
  Cu  Cu10      1.0  0.8742848788267352  0.9107965533472465  0.3261346184444136  1.0000
  Cu  Cu11      1.0  0.8606491128625464  0.8925656428466057  0.4370741436523672  1.0000
  Cu  Cu12      1.0  0.9271039986865477  0.80752129191427  0.3686986622583035  1.0000
  H   H1        1.0  0.6820984803603167  0.536857478895115  0.6763430190150499  1.0000
  H   H2        1.0  0.7383928522316481  0.4906943837143487  0.5316985738405648  1.0000
  H   H3        1.0  0.5150259878992499  0.280087485879875  0.7263733078669927  1.0000
  H   H4        1.0  0.501513644799708  0.447917686793481  0.7396937421124505  1.0000
  H   H5        1.0  0.641952659526936  0.3248315816241104  0.4633947219194781  1.0000
  H   H6        1.0  0.606202866264347  0.21138811620350134  0.5743801765150636  1.0000
  H   H7        1.0  0.2545545210451934  0.025430822251173896  0.192864497553046  1.0000
  H   H8        1.0  0.27177714442971285  0.0034263438558355  0.036358857795669094  1.0000
  H   H9        1.0  0.5512633247281684  0.19716549232742864  0.20006718868285833  1.0000
  H   H10       1.0  0.41940802775379643  0.11100536811498782  0.2807682703082151  1.0000
  H   H11       1.0  0.3499386001463236  0.16123280578010923  0.9532188889453649  1.0000
  H   H12       1.0  0.45375624730614567  0.27232821258792933  0.04305907588410919  1.0000
  H   H13       1.0  0.195119217991973  0.47389772745474096  0.8199471384024477  1.0000
  H   H14       1.0  0.24741716977849385  0.5062731888999679  0.971746805901567  1.0000
  H   H15       1.0  0.0074910775075807  0.7251433005163862  0.7817330785317296  1.0000
  H   H16       1.0  0.0098761487907382  0.5587964988043056  0.7534431951751583  1.0000
  H   H17       1.0  0.150240446557433  0.6659361641623394  0.046740056968019396  1.0000
  H   H18       1.0  0.1043669030202565  0.7843257183410799  0.9407255139881626  1.0000
  H   H19       1.0  0.7716757244696595  0.9968006502502291  0.3068470773029616  1.0000
  H   H20       1.0  0.7733962782414707  0.9882446157352048  0.46520841218416104  1.0000
  H   H21       1.0  0.0189831927482302  0.7739799918896751  0.2833735687752537  1.0000
  H   H22       1.0  0.9566984466411055  0.925118457661746  0.23503208535122155  1.0000
  H   H23       1.0  0.8717628885077815  0.8362206772735375  0.5387949050500538  1.0000
  H   H24       1.0  0.9213908445687624  0.7109744210305068  0.4403476590029101  1.0000
  H   H25       1.0  0.1620189756821944  0.9760406192137339  0.18354682401707118  1.0000
  H   H26       1.0  0.23191401035929  0.9158085008992247  0.048313729690263985  1.0000
  H   H27       1.0  0.0839622174476347  0.9265091994101341  0.22643076320354535  1.0000
  H   H28       1.0  0.026713703896867003  0.7753034412069655  0.1715930956528595  1.0000
  H   H29       1.0  0.0681746116781667  0.7400421264821591  0.09418373988464877  1.0000
  H   H30       1.0  0.19176283818207193  0.8324907056997047  0.012633253267878798  1.0000
  H   H31       1.0  0.8071715207023759  0.5460172762382457  0.6815978357363475  1.0000
  H   H32       1.0  0.7610209138104764  0.6037079556948868  0.537655559782955  1.0000
  H   H33       1.0  0.8941330433452706  0.5839921686117862  0.7300420924491035  1.0000
  H   H34       1.0  0.991806975372526  0.7152631746328028  0.6753885464774354  1.0000
  H   H35       1.0  0.9589905044619798  0.7538898066231923  0.5949116270976019  1.0000
  H   H36       1.0  0.8182036568352091  0.6785474535156839  0.5054516041962387  1.0000
  H   H37       1.0  0.6703979354592136  0.0330391995461525  0.3152168872642633  1.0000
  H   H38       1.0  0.7358267319374789  0.08264554806920901  0.45938887294236247  1.0000
  H   H39       1.0  0.5887874991733852  0.08213048619796838  0.2719022181733449  1.0000
  H   H40       1.0  0.5125923740777552  0.218521506843814  0.3395277527768101  1.0000
  H   H41       1.0  0.5542296181013667  0.2500929281228252  0.4208501640292751  1.0000
  H   H42       1.0  0.6917346194019559  0.16151696816433514  0.4988898220858644  1.0000
  H   H43       1.0  0.31868696190461776  0.4648887942161792  0.8224446227303303  1.0000
  H   H44       1.0  0.2700631608814703  0.39327367698160737  0.9572580546197997  1.0000
  H   H45       1.0  0.4002271325161573  0.4270993172351396  0.773300402747054  1.0000
  H   H46       1.0  0.4900652478071308  0.2860246366177535  0.8192474619180173  1.0000
  H   H47       1.0  0.45819004915529865  0.24163403202770445  0.8947671503368184  1.0000
  H   H48       1.0  0.3249695091399261  0.313682550832226  0.9855311924844371  1.0000
  C   C1        1.0  0.6886405737340836  0.5185219391163187  0.6408280781420856  1.0000
  C   C2        1.0  0.7298479962519409  0.5314069819867057  0.6048596222375906  1.0000
  C   C3        1.0  0.7166294989411169  0.49568880385614733  0.5665240071122639  1.0000
  C   C4        1.0  0.5188240097481085  0.32206103880167813  0.7235481540186723  1.0000
  C   C5        1.0  0.490550076643558  0.36156725455948185  0.7505509501731067  1.0000
  C   C6        1.0  0.5109855518579138  0.40775925154282083  0.7296489513175215  1.0000
  C   C7        1.0  0.6326630370787427  0.30397729530141493  0.4966002083696208  1.0000
  C   C8        1.0  0.6242365195453488  0.2503800197648118  0.5029446883880695  1.0000
  C   C9        1.0  0.6158077333621533  0.24577386545872323  0.5533361015437706  1.0000
  C   C10       1.0  0.264828090337943  0.02728633848963819  0.15435174939679536  1.0000
  C   C11       1.0  0.24424691248383107  0.9954779800647415  0.11477616929737877  1.0000
  C   C12       1.0  0.27439805372516446  0.0155168904781817  0.074639502563457  1.0000
  C   C13       1.0  0.5121061990602556  0.17612273075026508  0.21279784612013938  1.0000
  C   C14       1.0  0.5028844385394181  0.1544014787176096  0.25868872036251384  1.0000
  C   C15       1.0  0.4445271599168237  0.1323846491099161  0.2540400827169194  1.0000
  C   C16       1.0  0.3765751213471091  0.1821101410589065  0.981469901864429  1.0000
  C   C17       1.0  0.4001328702158773  0.2328256139684441  0.9812860017407914  1.0000
  C   C18       1.0  0.4290718898408202  0.2389549077252369  0.027578836422342996  1.0000
  C   C19       1.0  0.2005961516211556  0.4887605906130261  0.8572807144654176  1.0000
  C   C20       1.0  0.24111890696098476  0.4727201222459668  0.8949262121906898  1.0000
  C   C21       1.0  0.226570424869216  0.5044151880196142  0.935121860783134  1.0000
  C   C22       1.0  0.015617957118912796  0.6834730885732654  0.78111698121058  1.0000
  C   C23       1.0  0.9906556694191339  0.6447927661430343  0.7495041606317938  1.0000
  C   C24       1.0  0.0157833789872015  0.5983315833105111  0.767479923492864  1.0000
  C   C25       1.0  0.1381373755822821  0.688367105576603  0.014483709764355996  1.0000
  C   C26       1.0  0.1286620452798175  0.7421008341928683  0.010335111624200997  1.0000
  C   C27       1.0  0.11618049984456039  0.7489969002420624  0.9601561154329018  1.0000
  C   C28       1.0  0.778895363350486  0.9877874166574332  0.3453108295179134  1.0000
  C   C29       1.0  0.7530731810596974  0.010737040993994598  0.3867254135247861  1.0000
  C   C30       1.0  0.7805859338027616  0.9841616348895952  0.4262248282864434  1.0000
  C   C31       1.0  0.9962284796281153  0.8109735215199976  0.277580148850582  1.0000
  C   C32       1.0  0.0065423429104143  0.8490628452776791  0.2425331005428291  1.0000
  C   C33       1.0  0.9651361931528868  0.8886451077894648  0.2536275842369307  1.0000
  C   C34       1.0  0.8853220910099464  0.8117436267412191  0.5083238950449243  1.0000
  C   C35       1.0  0.8960095365247795  0.7580113100765759  0.506797643833373  1.0000
  C   C36       1.0  0.9094088329645088  0.747619727986276  0.457793433855599  1.0000
  C   C37       1.0  0.1260923780961747  0.9011976727582862  0.1595572522698561  1.0000
  C   C38       1.0  0.1637866686191174  0.9454947182540322  0.1553773558492892  1.0000
  C   C39       1.0  0.20278154683099098  0.9508863940214313  0.11618498806729598  1.0000
  C   C40       1.0  0.2020311249104338  0.912288531072889  0.07918876196433897  1.0000
  C   C41       1.0  0.16499484791948046  0.8672627946884431  0.0815908286683609  1.0000
  C   C42       1.0  0.12805559657431334  0.860864008940986  0.12307742439845977  1.0000
  C   C43       1.0  0.0862367282676146  0.8955154901810117  0.1987182874770141  1.0000
  C   C44       1.0  0.0502185134097957  0.8507827940225141  0.20307926899727843  1.0000
  C   C45       1.0  0.0548704923217187  0.8101101983580961  0.16862694964600417  1.0000
  C   C46       1.0  0.09294963345624302  0.8144991960208472  0.1280348887522536  1.0000
  C   C47       1.0  0.0954723994294255  0.7753386797386526  0.0910499952096444  1.0000
  C   C48       1.0  0.1298042273792959  0.7821532676244443  0.049324311485250384  1.0000
  C   C49       1.0  0.1641583325505493  0.8277456525314761  0.04473817305833449  1.0000
  C   C50       1.0  0.8617356206061048  0.6110185558587489  0.6590306898136618  1.0000
  C   C51       1.0  0.8143004125375201  0.573934866462217  0.6526109860786562  1.0000
  C   C52       1.0  0.7780247411450318  0.5710106852685327  0.6093083710124956  1.0000
  C   C53       1.0  0.7891777119296893  0.6055185688259073  0.5714345351107964  1.0000
  C   C54       1.0  0.8351270579641721  0.6442518674222555  0.5767113380217593  1.0000
  C   C55       1.0  0.8712368589980102  0.6475860574561025  0.6212302808619796  1.0000
  C   C56       1.0  0.9008999151449615  0.6122733687116835  0.7012797852413257  1.0000
  C   C57       1.0  0.9481446083997085  0.6488879356312297  0.7070357562315337  1.0000
  C   C58       1.0  0.9549507922501164  0.6867497835149268  0.6711327608357678  1.0000
  C   C59       1.0  0.9170985676698822  0.6869058108762331  0.6278695573081166  1.0000
  C   C60       1.0  0.9243866009019114  0.7234809624333708  0.590073831091665  1.0000
  C   C61       1.0  0.8892810415382044  0.720248697955782  0.546228122287239  1.0000
  C   C62       1.0  0.8457469083067579  0.6805610113568008  0.5395368110784416  1.0000
  C   C63       1.0  0.6276007986236322  0.10205019423928262  0.34405587528837606  1.0000
  C   C64       1.0  0.6693744356503686  0.060337840682287  0.34622567831065953  1.0000
  C   C65       1.0  0.708559084764552  0.053062336317360306  0.3872461174584315  1.0000
  C   C66       1.0  0.7049858877713717  0.08744317546748451  0.4275235989842869  1.0000
  C   C67       1.0  0.6639163672001588  0.1299735741256782  0.4271919432998386  1.0000
  C   C68       1.0  0.6252135054880483  0.1376012361054109  0.3846759983244965  1.0000
  C   C69       1.0  0.5876115931913618  0.10949965977764009  0.3028714210476551  1.0000
  C   C70       1.0  0.545895426687828  0.1506609576850622  0.3013922268844381  1.0000
  C   C71       1.0  0.5447125753863489  0.1861480573976522  0.340747902183054  1.0000
  C   C72       1.0  0.5844206059918378  0.18077384083363063  0.3825596823492815  1.0000
  C   C73       1.0  0.5849607598592854  0.21676038955703802  0.4223680161439701  1.0000
  C   C74       1.0  0.6233963030746352  0.21017985427805294  0.4639454942423668  1.0000
  C   C75       1.0  0.6615242115825168  0.16651892721664302  0.46664704241088356  1.0000
  C   C76       1.0  0.3690935139214488  0.39501864883847293  0.8406870764670771  1.0000
  C   C77       1.0  0.3245227926339993  0.43357314689387044  0.8487765255211455  1.0000
  C   C78       1.0  0.28858096312381315  0.4330403147636943  0.8901771095994775  1.0000
  C   C79       1.0  0.2980622365727755  0.3941481394376042  0.9250421950168786  1.0000
  C   C80       1.0  0.3416914914289819  0.3542918130420105  0.9182408603779562  1.0000
  C   C81       1.0  0.3767760743437165  0.3541820278578598  0.8752266199164893  1.0000
  C   C82       1.0  0.4063769143961977  0.39580803756280153  0.7995965739687846  1.0000
  C   C83       1.0  0.45026467741027426  0.35727779204892574  0.7918406552289383  1.0000
  C   C84       1.0  0.4557185026617816  0.31600518326376903  0.8247571104414746  1.0000
  C   C85       1.0  0.4196211878015674  0.31354081430797714  0.8666256174269619  1.0000
  C   C86       1.0  0.425803169003423  0.2729887725627762  0.90117001643263  1.0000
  C   C87       1.0  0.3923209402898067  0.2733444957742179  0.9438090952004429  1.0000
  C   C88       1.0  0.3510339141682337  0.3137711163606909  0.9522566432991437  1.0000
  N   N1        1.0  0.6712121946757676  0.4634677379931064  0.5791118659041956  1.0000
  N   N2        1.0  0.6535316078162623  0.478061785293356  0.6250892338757267  1.0000
  N   N3        1.0  0.5487790707352644  0.39651191070752384  0.6931725190395  1.0000
  N   N4        1.0  0.5534009827859806  0.3432592427448354  0.6891416897448082  1.0000
  N   N5        1.0  0.6186889647325698  0.2933295153366871  0.5753153733547051  1.0000
  N   N6        1.0  0.6296945005771023  0.329441295937592  0.5400255499968267  1.0000
  N   N7        1.0  0.3100676442942286  0.05610079401871809  0.08927328801325268  1.0000
  N   N8        1.0  0.3042574628055021  0.06327695758050568  0.1389182916820744  1.0000
  N   N9        1.0  0.42067424966077743  0.1402669836193766  0.2084458472845299  1.0000
  N   N10       1.0  0.46258635620846883  0.16752425695052864  0.1828811065876366  1.0000
  N   N11       1.0  0.4231427873889047  0.19504280618441072  0.0535156005160999  1.0000
  N   N12       1.0  0.39020232916732317  0.159724663299734  0.025037884072474998  1.0000
  N   N13       1.0  0.18090812318186517  0.537203622390173  0.9221153651679896  1.0000
  N   N14       1.0  0.16452699039579244  0.5270704387075112  0.873870658713244  1.0000
  N   N15       1.0  0.05320007894374611  0.608650214096933  0.8066374508564564  1.0000
  N   N16       1.0  0.05277593517491401  0.6614681624475269  0.815427782159716  1.0000
  N   N17       1.0  0.1179008994712873  0.7026876354368528  0.936162910745544  1.0000
  N   N18       1.0  0.13209704218680682  0.6649939855738437  0.9698959143636754  1.0000
  N   N19       1.0  0.8197230185423903  0.9481695996848815  0.409470290693612  1.0000
  N   N20       1.0  0.8188908935400363  0.9506609579938398  0.3592161050608594  1.0000
  N   N21       1.0  0.9324922725837509  0.8750936216026587  0.2923094931977203  1.0000
  N   N22       1.0  0.9520960611032265  0.8270665071831119  0.3076113750106231  1.0000
  N   N23       1.0  0.9071198516276554  0.7920575402941524  0.432014935637703  1.0000
  N   N24       1.0  0.8915920152409456  0.8319215731007928  0.46335812041600377  1.0000
