data_image0
_chemical_formula_structural       Zn2H30C40N6O8
_chemical_formula_sum              "Zn2 H30 C40 N6 O8"
_cell_length_a       13.135930890174665
_cell_length_b       15.876131618126431
_cell_length_c       17.266073464044336
_cell_angle_alpha    87.51537802235119
_cell_angle_beta     89.42156585604678
_cell_angle_gamma    79.76657524567518

_space_group_name_H-M_alt    "P 1"
_space_group_IT_number       1

loop_
  _space_group_symop_operation_xyz
  'x, y, z'

loop_
  _atom_site_type_symbol
  _atom_site_label
  _atom_site_symmetry_multiplicity
  _atom_site_fract_x
  _atom_site_fract_y
  _atom_site_fract_z
  _atom_site_occupancy
  Zn  Zn1       1.0  0.48866413500840616  0.5886052407124257  0.5021370807018996  1.0000
  Zn  Zn2       1.0  0.5100596268700598  0.41141789649374527  0.4979791517614982  1.0000
  H   H1        1.0  0.18165103429270593  0.4388294012691319  0.42171017584535514  1.0000
  H   H2        1.0  0.8171671754267533  0.5613210761737549  0.5783166030133344  1.0000
  H   H3        1.0  0.6172708774094247  0.11480889086890764  0.38497780151310923  1.0000
  H   H4        1.0  0.38287491308343374  0.885199250388901  0.6155410764932795  1.0000
  H   H5        1.0  0.6088985342872701  0.27511827108805426  0.3956479270377073  1.0000
  H   H6        1.0  0.3903894678838355  0.7249989797629653  0.6047254918769622  1.0000
  H   H7        1.0  0.021716757817181076  0.3950712457617486  0.37429001497110187  1.0000
  H   H8        1.0  0.976898723843355  0.6054665441425231  0.6254392866790326  1.0000
  H   H9        1.0  0.44209043451847657  0.6156837344216445  0.7490064340922302  1.0000
  H   H10       1.0  0.5755471799349436  0.383741731541491  0.2534540727857291  1.0000
  H   H11       1.0  0.45315882931143386  0.6098806771414544  0.8947511078389636  1.0000
  H   H12       1.0  0.578986317298593  0.3887637984090164  0.10748895049878367  1.0000
  H   H13       1.0  0.4719955544691459  0.660654165792387  0.10503533553078628  1.0000
  H   H14       1.0  0.5600218496911323  0.33815393926094833  0.8933142493676696  1.0000
  H   H15       1.0  0.4694768709734092  0.6553436575407333  0.2516065078628884  1.0000
  H   H16       1.0  0.5480517751267796  0.3442604715658392  0.7470606356236968  1.0000
  H   H17       1.0  0.5832398705415612  0.7183675268416752  0.41368151004010656  1.0000
  H   H18       1.0  0.4154079437950883  0.28136877150657125  0.5863187838510626  1.0000
  H   H19       1.0  0.5846112296546053  0.8775937676170288  0.41623178693347274  1.0000
  H   H20       1.0  0.4149220712775801  0.12202505824709681  0.5838950039514758  1.0000
  H   H21       1.0  0.05044732086297189  0.706729135388649  0.6792463943018844  1.0000
  H   H22       1.0  0.09040158389488077  0.608807029200385  0.7332209960158806  1.0000
  H   H23       1.0  0.16572655017566967  0.69097047052572  0.7344876599198357  1.0000
  H   H24       1.0  0.25291606962768737  0.5803814130819519  0.6491518217999399  1.0000
  H   H25       1.0  0.20915645555681542  0.6739215855140303  0.5939995333176568  1.0000
  H   H26       1.0  0.9081733292081321  0.3926932973666767  0.2665317582253905  1.0000
  H   H27       1.0  0.9481634478931013  0.2943168977053574  0.3198441313830074  1.0000
  H   H28       1.0  0.8328166902489611  0.310608169478627  0.2646533153254964  1.0000
  H   H29       1.0  0.7897546717986754  0.32646045397346773  0.4054133152740817  1.0000
  H   H30       1.0  0.7457092042661696  0.4202554415682514  0.3507064445924043  1.0000
  C   C1        1.0  0.5113630598887653  0.5139373536136135  0.34733935265353466  1.0000
  C   C2        1.0  0.49407451000242714  0.48594104481405526  0.6529304184340674  1.0000
  C   C3        1.0  0.5548561570941217  0.4463594536078831  0.1398084100673813  1.0000
  C   C4        1.0  0.47436778516291866  0.5525673230575878  0.8615884889526766  1.0000
  C   C5        1.0  0.5226636317868625  0.5249058488906542  0.09853785459883818  1.0000
  C   C6        1.0  0.5098847221834575  0.4738137089560228  0.9016249828962017  1.0000
  C   C7        1.0  0.49468902742978554  0.600647119291182  0.13872328551762783  1.0000
  C   C8        1.0  0.5344724733744355  0.398388905580923  0.8605745986337323  1.0000
  C   C9        1.0  0.4932467312409439  0.5976037509759848  0.21936409216546338  1.0000
  C   C10       1.0  0.5277257722532694  0.4018189391526762  0.7800883458173047  1.0000
  C   C11       1.0  0.45879824652110546  0.24129004827224076  0.5431558125749304  1.0000
  C   C12       1.0  0.5402557287721165  0.7585289383674693  0.4569614031933113  1.0000
  C   C13       1.0  0.45870596353970666  0.15406273499899475  0.5416981825595428  1.0000
  C   C14       1.0  0.5408158988351273  0.8456761347248902  0.45850529748963703  1.0000
  C   C15       1.0  0.5169408242061663  0.10754718716387406  0.48398150477825647  1.0000
  C   C16       1.0  0.48296018425070764  0.8922654260731236  0.5163556875814521  1.0000
  C   C17       1.0  0.5721646226672306  0.1502959855549619  0.4301079804417255  1.0000
  C   C18       1.0  0.42770093353126265  0.8496456413512167  0.5703120689792697  1.0000
  C   C19       1.0  0.5679886318153251  0.23794626379716285  0.4358827090007935  1.0000
  C   C20       1.0  0.4313866078785151  0.762059439026935  0.5644501777925157  1.0000
  C   C21       1.0  0.7008749761606123  0.4802923620690152  0.49660092772943903  1.0000
  C   C22       1.0  0.29803111987335745  0.519626137913079  0.5036226361783633  1.0000
  C   C23       1.0  0.18387414382140574  0.5236118771899643  0.5141558355299836  1.0000
  C   C24       1.0  0.81491817337762  0.4766165945077106  0.4858139829543403  1.0000
  C   C25       1.0  0.976140899563589  0.42977430216650714  0.4197807686920498  1.0000
  C   C26       1.0  0.022535925911633108  0.5707578376658518  0.5799720702840928  1.0000
  C   C27       1.0  0.8715716916025754  0.4277737651800849  0.4263685778304804  1.0000
  C   C28       1.0  0.12713960503746338  0.572682958414788  0.5734439462893304  1.0000
  C   C29       1.0  0.863361177173388  0.5237368679294792  0.5347547476962687  1.0000
  C   C30       1.0  0.13540878759484087  0.47656380080867694  0.46514674541753454  1.0000
  C   C31       1.0  0.9706701423551962  0.5242740171799556  0.5294822372441245  1.0000
  C   C32       1.0  0.02805513366675428  0.47620630613571546  0.4702880695498166  1.0000
  C   C33       1.0  0.520238637499389  0.5189519266384439  0.26063816253343924  1.0000
  C   C34       1.0  0.495897850307429  0.4805320249109858  0.739855256041565  1.0000
  C   C35       1.0  0.5530410241979665  0.4438960139048478  0.22010605894522678  1.0000
  C   C36       1.0  0.4679944543967806  0.5554360831869902  0.7814700876643668  1.0000
  C   C37       1.0  0.1815813662590457  0.6221411045109522  0.6281107011564371  1.0000
  C   C38       1.0  0.11819136617587127  0.6589952286953392  0.6973190997127572  1.0000
  C   C39       1.0  0.8171355243743861  0.3784881549015467  0.3715323449473331  1.0000
  C   C40       1.0  0.8804255329944862  0.34220165239123185  0.3020812542620703  1.0000
  N   N1        1.0  0.513964792827366  0.5341693166395063  0.017078715248672386  1.0000
  N   N2        1.0  0.5217842394578581  0.46417544797991195  0.9828848947285422  1.0000
  N   N3        1.0  0.5126631239709382  0.2821406737604378  0.491412580861116  1.0000
  N   N4        1.0  0.48629394021132527  0.7178276850845081  0.5087534898769448  1.0000
  N   N5        1.0  0.5247581910319424  0.018213530419380706  0.4749776929472985  1.0000
  N   N6        1.0  0.4753552010755654  0.9815602246726557  0.5253804398688118  1.0000
  O   O1        1.0  0.49714495892359145  0.584185277934381  0.3822413425925858  1.0000
  O   O2        1.0  0.5060878247550917  0.41581027518711283  0.6179381956913799  1.0000
  O   O3        1.0  0.5178552206153526  0.4393030674585604  0.3793197589396654  1.0000
  O   O4        1.0  0.4816342844672759  0.5608480835969093  0.6207530694702257  1.0000
  O   O5        1.0  0.646675936528126  0.5544983970524343  0.5043633880338019  1.0000
  O   O6        1.0  0.35218872793323186  0.44519490353072666  0.49711113203578344  1.0000
  O   O7        1.0  0.6664449030023788  0.41014559002449863  0.4977335522724998  1.0000
  O   O8        1.0  0.3325668878478111  0.5897486916900548  0.5013944677421591  1.0000
