data_image0
_chemical_formula_structural       Cu4H24C12S8I4
_chemical_formula_sum              "Cu4 H24 C12 S8 I4"
_cell_length_a       7.255030307865155
_cell_length_b       7.7535975320300325
_cell_length_c       12.021333188072743
_cell_angle_alpha    89.99988954080379
_cell_angle_beta     89.99966139277315
_cell_angle_gamma    103.67610939338833

_space_group_name_H-M_alt    "P 1"
_space_group_IT_number       1

loop_
  _space_group_symop_operation_xyz
  'x, y, z'

loop_
  _atom_site_type_symbol
  _atom_site_label
  _atom_site_symmetry_multiplicity
  _atom_site_fract_x
  _atom_site_fract_y
  _atom_site_fract_z
  _atom_site_occupancy
  Cu  Cu1       1.0  0.6646148957071532  0.12497086119201842  0.4770523974436571  1.0000
  Cu  Cu2       1.0  0.8353893676551535  0.37502786218619394  0.9770554774120583  1.0000
  Cu  Cu3       1.0  0.3353916018602021  0.8750368168676417  0.5229480415908654  1.0000
  Cu  Cu4       1.0  0.1646112996177251  0.6249731914665161  0.022947457202064894  1.0000
  H   H1        1.0  0.8852747659050235  0.0741207771726806  0.1490560356802746  1.0000
  H   H2        1.0  0.614761543529383  0.4258976304780191  0.6490472282453084  1.0000
  H   H3        1.0  0.11474580714422444  0.9258988140999165  0.8509477307375448  1.0000
  H   H4        1.0  0.3852494070697574  0.5741166761194948  0.3509432285213662  1.0000
  H   H5        1.0  0.6732403541457401  0.9596764293912444  0.2205591619566789  1.0000
  H   H6        1.0  0.8267982029057066  0.5403280391938736  0.7205496586111977  1.0000
  H   H7        1.0  0.3267871613123674  0.0403272007331879  0.7794421089033817  1.0000
  H   H8        1.0  0.17321446466723237  0.45968759063563885  0.2794416300058771  1.0000
  H   H9        1.0  0.5276857046039538  0.454140885775182  0.15178967713907096  1.0000
  H   H10       1.0  0.9722891567684184  0.04581526247820732  0.651789685062667  1.0000
  H   H11       1.0  0.4723060753333073  0.545841597312851  0.8482149212174548  1.0000
  H   H12       1.0  0.027689603976320136  0.9541486624170831  0.34820576293439126  1.0000
  H   H13       1.0  0.4439223538244547  0.27942665888954826  0.2506242876428999  1.0000
  H   H14       1.0  0.0560680638559106  0.2205431054467226  0.7506302359049997  1.0000
  H   H15       1.0  0.5560814263833791  0.7205704003663769  0.7493736558435343  1.0000
  H   H16       1.0  0.9439254702652775  0.779430073821118  0.24938018543991086  1.0000
  H   H17       1.0  0.7100066389739439  0.48630517446501637  0.3450266584064536  1.0000
  H   H18       1.0  0.7899665062260866  0.0136848195195469  0.8450356276897395  1.0000
  H   H19       1.0  0.2899978206069492  0.51369453950187  0.6549662939491866  1.0000
  H   H20       1.0  0.2100073873211201  0.9862924035689459  0.1549722981184871  1.0000
  H   H21       1.0  0.8507940218926322  0.5043421592827286  0.22040296859550773  1.0000
  H   H22       1.0  0.6491918409338453  0.995666452462423  0.7204130392704043  1.0000
  H   H23       1.0  0.14920734340260114  0.4956562355682124  0.7795899837663924  1.0000
  H   H24       1.0  0.350783997594192  0.004345302355247301  0.2795865679537712  1.0000
  C   C1        1.0  0.7585242521627295  0.089669569540149  0.1941102906260781  1.0000
  C   C2        1.0  0.7414943363453684  0.4103407583846775  0.694110265907213  1.0000
  C   C3        1.0  0.24148637733035366  0.910338096168367  0.8058893165474429  1.0000
  C   C4        1.0  0.25850699166601027  0.5896682634961649  0.30589017313406686  1.0000
  C   C5        1.0  0.5655647169540926  0.34744075795111223  0.2001653948539257  1.0000
  C   C6        1.0  0.9344534790491962  0.15256290750996726  0.700146998567824  1.0000
  C   C7        1.0  0.43445036542330945  0.6525735362506995  0.799849185686476  1.0000
  C   C8        1.0  0.06557945277850055  0.8474672738252594  0.2998135113858922  1.0000
  C   C9        1.0  0.7403393834797071  0.41658564160282213  0.2700807529759572  1.0000
  C   C10       1.0  0.7596201577811285  0.08341263353661792  0.7700938316759007  1.0000
  C   C11       1.0  0.2596457751842395  0.5834194435312839  0.729912199404545  1.0000
  C   C12       1.0  0.24030747486641962  0.9165992653534261  0.2299290675499748  1.0000
  S   S1        1.0  0.8288407527948463  0.22824287861759981  0.3169915802888212  1.0000
  S   S2        1.0  0.6711754016939722  0.2717524013828126  0.8169895715155775  1.0000
  S   S3        1.0  0.17117061188647406  0.7717515012235979  0.68301052246089  1.0000
  S   S4        1.0  0.32883635858245  0.7282273652638126  0.18300171714039237  1.0000
  S   S5        1.0  0.6245522413749711  0.19536455687687487  0.09897119359754919  1.0000
  S   S6        1.0  0.875446244234581  0.3046116367209137  0.5989809489903521  1.0000
  S   S7        1.0  0.37544640655091394  0.804623219167368  0.9010209269252414  1.0000
  S   S8        1.0  0.12454970475987885  0.6953602069400302  0.40104111831501393  1.0000
  I   I1        1.0  0.33745341302008564  0.2105512268363512  0.49745488779043256  1.0000
  I   I2        1.0  0.1625539188815566  0.2894574477462228  0.9974520373990995  1.0000
  I   I3        1.0  0.6625486129939941  0.7894551362367893  0.5025388964165955  1.0000
  I   I4        1.0  0.8374498240915782  0.7105502385544611  0.0025450742217997995  1.0000
