data_image0
_chemical_formula_structural       Ca2H28C24N4O16
_chemical_formula_sum              "Ca2 H28 C24 N4 O16"
_cell_length_a       6.6399879888869595
_cell_length_b       8.679279533161095
_cell_length_c       13.305393083270364
_cell_angle_alpha    86.0261335878283
_cell_angle_beta     75.51223346757878
_cell_angle_gamma    73.92356395484117

_space_group_name_H-M_alt    "P 1"
_space_group_IT_number       1

loop_
  _space_group_symop_operation_xyz
  'x, y, z'

loop_
  _atom_site_type_symbol
  _atom_site_label
  _atom_site_symmetry_multiplicity
  _atom_site_fract_x
  _atom_site_fract_y
  _atom_site_fract_z
  _atom_site_occupancy
  Ca  Ca1       1.0  0.7968927386226171  0.500130064687518  0.4062915002803961  1.0000
  Ca  Ca2       1.0  0.20310687850033562  0.4998696039632904  0.5937069963567935  1.0000
  H   H1        1.0  0.017383729944128897  0.07086350398461151  0.2901045595502437  1.0000
  H   H2        1.0  0.6929598082380507  0.9292785074881776  0.29016556038199337  1.0000
  H   H3        1.0  0.9826174241146006  0.9291373607063775  0.7098950772347621  1.0000
  H   H4        1.0  0.3070383011171672  0.0707211620269845  0.7098344393501107  1.0000
  H   H5        1.0  0.09510763088359654  0.9534238383426583  0.440677201322245  1.0000
  H   H6        1.0  0.4644718176124484  0.04679176326068559  0.4407678760240685  1.0000
  H   H7        1.0  0.9048831596789595  0.04658063345250701  0.5593237185441994  1.0000
  H   H8        1.0  0.5355234226747144  0.9532079088446181  0.559233432497308  1.0000
  H   H9        1.0  0.2986795871983929  0.7925489498969186  0.3739498587964788  1.0000
  H   H10       1.0  0.3277835549389748  0.2076618031764923  0.37405434705670615  1.0000
  H   H11       1.0  0.7013165020980098  0.2074555141336916  0.6260535356930603  1.0000
  H   H12       1.0  0.6722127613349327  0.7923390671240326  0.6259454583588493  1.0000
  H   H13       1.0  0.3513794546717935  0.7724070806361566  0.9999560654594075  1.0000
  H   H14       1.0  0.6486218090650482  0.2275913863678696  4.432289487976076e-05  1.0000
  H   H15       1.0  0.07185550296049573  0.22179863296690172  0.1659336526229467  1.0000
  H   H16       1.0  0.7627869600601545  0.7782340699360617  0.16601759539724278  1.0000
  H   H17       1.0  0.9281471220766657  0.7781998323113372  0.8340669300369825  1.0000
  H   H18       1.0  0.2372173483802058  0.22176559224379133  0.8339824300099536  1.0000
  H   H19       1.0  0.09225061988597354  0.3657382916426784  0.9999657832373501  1.0000
  H   H20       1.0  0.9077520051511883  0.6342601736355604  3.479942257918648e-05  1.0000
  H   H21       1.0  0.1528696172629651  0.5650479133195957  0.23478493493202277  1.0000
  H   H22       1.0  0.6125688832778096  0.43516355659397016  0.23489171514322038  1.0000
  H   H23       1.0  0.8471305781084056  0.4349505571330639  0.7652118643155319  1.0000
  H   H24       1.0  0.38742997996127565  0.5648361124890116  0.7651075330414301  1.0000
  H   H25       1.0  0.2582690844659226  0.3819208037161204  0.24018372600156113  1.0000
  H   H26       1.0  0.5015146145557381  0.6182344893506054  0.2401955424167639  1.0000
  H   H27       1.0  0.7417342652870785  0.6180764642253961  0.7598134618681839  1.0000
  H   H28       1.0  0.49848772516785533  0.3817651758486349  0.7598033428317024  1.0000
  C   C1        1.0  0.9827223314828546  0.7594864333095543  0.4045196821471677  1.0000
  C   C2        1.0  0.6132474161432737  0.24060791445553056  0.404457439893001  1.0000
  C   C3        1.0  0.017277607742975886  0.24051443396864156  0.5954780629316616  1.0000
  C   C4        1.0  0.38675324017712126  0.7593905538420954  0.5955420026081981  1.0000
  C   C5        1.0  0.13469152240998716  0.8683248940474683  0.3769515834528718  1.0000
  C   C6        1.0  0.4887442090202682  0.1317827449057631  0.37698238987413657  1.0000
  C   C7        1.0  0.8653063307996971  0.13167717229323733  0.6230493621104998  1.0000
  C   C8        1.0  0.511252282889096  0.868219323160723  0.6230183613835933  1.0000
  C   C9        1.0  0.2132788727959676  0.8850082488304737  0.1900257408437227  1.0000
  C   C10       1.0  0.5968897378266788  0.1150287913415795  0.1900967956855482  1.0000
  C   C11       1.0  0.7867241840221835  0.11498901738819713  0.8099748418271133  1.0000
  C   C12       1.0  0.4031096231507403  0.8849732741347651  0.809902646782909  1.0000
  C   C13       1.0  0.20880798512674648  0.984637796693683  0.09428105242533749  1.0000
  C   C14       1.0  0.6971732467094469  0.015394405238822599  0.09436311547095504  1.0000
  C   C15       1.0  0.7911914855287848  0.015361871095699099  0.9057191416124013  1.0000
  C   C16       1.0  0.30282665572707423  0.9846040634909912  0.9056370785776975  1.0000
  C   C17       1.0  0.29172802923991975  0.9024218770818636  0.9999609494635066  1.0000
  C   C18       1.0  0.7082720488320575  0.09757778941391848  4.019042732761248e-05  1.0000
  C   C19       1.0  0.1354958590510051  0.15282309226410717  0.0940906212492223  1.0000
  C   C20       1.0  0.7707367967088667  0.8472018605835954  0.09416120565564513  1.0000
  C   C21       1.0  0.8645076955054807  0.8471765703479266  0.9059101557054204  1.0000
  C   C22       1.0  0.22926751173148588  0.1527978015962574  0.9058388197515512  1.0000
  C   C23       1.0  0.14645465956262177  0.23524091651136558  0.9999649690936109  1.0000
  C   C24       1.0  0.8535478190071188  0.7647575479054538  3.7310966860174944e-05  1.0000
  N   N1        1.0  0.12545443019237715  0.9585866388807958  0.28247355134753593  1.0000
  N   N2        1.0  0.5924413027463798  0.04149822617269189  0.2825330572754297  1.0000
  N   N3        1.0  0.8745456478796002  0.041413027614986206  0.7175275885432911  1.0000
  N   N4        1.0  0.40755333012432976  0.9585014472262188  0.7174673053928515  1.0000
  O   O1        1.0  0.004843880810170754  0.6605553708078132  0.47862498171633655  1.0000
  O   O2        1.0  0.5170412258324217  0.3393648638817338  0.478684264187784  1.0000
  O   O3        1.0  0.9951543750124684  0.3394442995687754  0.5213733206152185  1.0000
  O   O4        1.0  0.48295888902886475  0.6606372011624372  0.5213144267332196  1.0000
  O   O5        1.0  0.8432781879734599  0.7678316097868036  0.3526870472733066  1.0000
  O   O6        1.0  0.8044984977880462  0.23244101113346008  0.352483289882123  1.0000
  O   O7        1.0  0.15672501531211233  0.23216565729328661  0.6473118379969874  1.0000
  O   O8        1.0  0.19549928946428718  0.7675574597543146  0.6475174614083484  1.0000
  O   O9        1.0  0.3035657481771922  0.7362924435349141  0.18382592103512957  1.0000
  O   O10       1.0  0.5126177150610045  0.2637210701054826  0.18391264419300063  1.0000
  O   O11       1.0  0.6964352594141159  0.26370842029465524  0.8161754131504253  1.0000
  O   O12       1.0  0.4873852320790347  0.7362785938001509  0.816087186908561  1.0000
  O   O13       1.0  0.12030830437682033  0.4652806699179379  0.26438116921374893  1.0000
  O   O14       1.0  0.6152583932463  0.5349983341836477  0.2644613658317638  1.0000
  O   O15       1.0  0.8796936840758535  0.5347165997493661  0.7356158243503614  1.0000
  O   O16       1.0  0.3847437708418371  0.4650001332496245  0.7355365735745208  1.0000
