data_image0
_chemical_formula_structural       CdCu2H44C46N4O8
_chemical_formula_sum              "Cd1 Cu2 H44 C46 N4 O8"
_cell_length_a       10.872705560894575
_cell_length_b       10.872696962976399
_cell_length_c       11.802740468596138
_cell_angle_alpha    69.37250047385264
_cell_angle_beta     69.37247158176969
_cell_angle_gamma    80.99085368632664

_space_group_name_H-M_alt    "P 1"
_space_group_IT_number       1

loop_
  _space_group_symop_operation_xyz
  'x, y, z'

loop_
  _atom_site_type_symbol
  _atom_site_label
  _atom_site_symmetry_multiplicity
  _atom_site_fract_x
  _atom_site_fract_y
  _atom_site_fract_z
  _atom_site_occupancy
  Cd  Cd1       1.0  0.9999997733496573  4.007346419001399e-07  0.9999991590239431  1.0000
  Cu  Cu1       1.0  0.7809855537217985  0.7809866607547137  0.06052377808639149  1.0000
  Cu  Cu2       1.0  0.21901490837266374  0.2190154083566611  0.9394760115963549  1.0000
  H   H1        1.0  0.8817536318222424  0.8817545331155543  0.4251623496682554  1.0000
  H   H2        1.0  0.1182468564670671  0.11824654730266106  0.5748360601587733  1.0000
  H   H3        1.0  0.1255384769127232  0.7941818243975761  0.1736504342644095  1.0000
  H   H4        1.0  0.20581710468147923  0.8744591828684418  0.8263515334255442  1.0000
  H   H5        1.0  0.8744581506729363  0.2058173171341977  0.8263524134809754  1.0000
  H   H6        1.0  0.7941825713834731  0.12553699878906596  0.17365297988474976  1.0000
  H   H7        1.0  0.610369109732538  0.6103695160824146  0.896512782911479  1.0000
  H   H8        1.0  0.3896323011314776  0.389633528787698  0.10348553029931645  1.0000
  H   H9        1.0  0.7250662231796028  0.7250666878230944  0.8687599966658509  1.0000
  H   H10       1.0  0.2749361758845552  0.2749363573503913  0.13123968789818  1.0000
  H   H11       1.0  0.8363440658397253  0.8363438978463974  0.661062979385832  1.0000
  H   H12       1.0  0.1636564512915868  0.16365619652621893  0.3389348961216567  1.0000
  H   H13       1.0  0.6525471871747611  0.4721896287545275  0.09775474567383213  1.0000
  H   H14       1.0  0.5278123460512631  0.3474535486529503  0.9022440746320085  1.0000
  H   H15       1.0  0.3474532722725527  0.5278124377092936  0.9022441984727364  1.0000
  H   H16       1.0  0.4721891277910472  0.652547529421078  0.09775486101207781  1.0000
  H   H17       1.0  0.7923458486984457  0.49117233943874067  0.9585520952044886  1.0000
  H   H18       1.0  0.5088290604720597  0.2076554255525451  0.04144669452431765  1.0000
  H   H19       1.0  0.2076546107488682  0.5088297270250733  0.04144684894207983  1.0000
  H   H20       1.0  0.49117143311155337  0.7923456601607839  0.9585534063750738  1.0000
  H   H21       1.0  0.9584526163422993  0.34563115883895534  0.3327903219599974  1.0000
  H   H22       1.0  0.6543681869646889  0.04154778391154681  0.667209315449405  1.0000
  H   H23       1.0  0.0415489493203083  0.6543669663933755  0.6672087017978255  1.0000
  H   H24       1.0  0.3456303381600776  0.9584533091377168  0.33279057935206424  1.0000
  H   H25       1.0  0.1091708459689542  0.39208577295988795  0.42461422958317724  1.0000
  H   H26       1.0  0.6079135622491662  0.8908305724071114  0.5753836989980952  1.0000
  H   H27       1.0  0.8908316711103482  0.607913330678741  0.5753841632388796  1.0000
  H   H28       1.0  0.39208397732259204  0.10917052298634639  0.4246156699863234  1.0000
  H   H29       1.0  0.7996856962677086  0.3108385402482696  0.25525513504602043  1.0000
  H   H30       1.0  0.6891602257952768  0.20031625618623392  0.7447442280468549  1.0000
  H   H31       1.0  0.2003158405528964  0.6891605710296602  0.7447444230313492  1.0000
  H   H32       1.0  0.3108373164236369  0.7996848418547771  0.2552559864737489  1.0000
  H   H33       1.0  0.9679001756583433  0.3142102448325802  0.16034769273802135  1.0000
  H   H34       1.0  0.685789670717739  0.03210129309808709  0.8396505474185714  1.0000
  H   H35       1.0  0.03210132702596271  0.6857898471958421  0.8396507085865251  1.0000
  H   H36       1.0  0.3142098373128732  0.9678997949594291  0.1603490276637698  1.0000
  H   H37       1.0  0.8439793590877684  0.3439995247733875  0.08845290853768964  1.0000
  H   H38       1.0  0.6559998914590681  0.15602058108396483  0.9115452014263281  1.0000
  H   H39       1.0  0.156021186885539  0.6559995835536228  0.9115444326502598  1.0000
  H   H40       1.0  0.34400062831939243  0.8439795159362047  0.08845351961733877  1.0000
  H   H41       1.0  0.1998312584992448  0.6166903348593706  0.3399527299449189  1.0000
  H   H42       1.0  0.3833094901952592  0.8001704195406704  0.6600466952459738  1.0000
  H   H43       1.0  0.8001702468322164  0.383309759816605  0.6600465169158055  1.0000
  H   H44       1.0  0.6166890717129476  0.1998296954056613  0.33995520184451056  1.0000
  C   C1        1.0  0.9466591339410825  0.9466599092700677  0.7715812459522411  1.0000
  C   C2        1.0  0.05334041352013228  0.053340203332069805  0.22842117695529396  1.0000
  C   C3        1.0  0.9748604924241917  0.9748594462239241  0.630713132740517  1.0000
  C   C4        1.0  0.025139104779562205  0.025138686344341497  0.3692856849193902  1.0000
  C   C5        1.0  0.9977702040466455  0.6732310364661345  0.15859436455717446  1.0000
  C   C6        1.0  0.3267689466196869  0.0022274451524709007  0.8414077598757782  1.0000
  C   C7        1.0  0.0022264235390138964  0.3267681050656392  0.8414084831882104  1.0000
  C   C8        1.0  0.6732316467256751  0.9977706956618277  0.15859496574591234  1.0000
  C   C9        1.0  0.9326456883509379  0.9326449672528413  0.45946364592639793  1.0000
  C   C10       1.0  0.0673558090390713  0.0673551194804745  0.5405330643257783  1.0000
  C   C11       1.0  0.09067213995496812  0.6949272870624555  0.2082078833056187  1.0000
  C   C12       1.0  0.30507189714965216  0.9093267917707665  0.7917944097385995  1.0000
  C   C13       1.0  0.9093254705365366  0.305071849477578  0.791794644720639  1.0000
  C   C14       1.0  0.6949277447790011  0.0906703706372269  0.208208946818864  1.0000
  C   C15       1.0  0.8695750808729984  0.5052848519670619  0.14477347271284183  1.0000
  C   C16       1.0  0.49471427341139673  0.1304259157230376  0.8552269764913943  1.0000
  C   C17       1.0  0.1304254468469139  0.4947152529957748  0.8552277849393873  1.0000
  C   C18       1.0  0.5052852399135191  0.8695751776295921  0.14477428966331013  1.0000
  C   C19       1.0  0.9517284918785407  0.5428414253550217  0.20148262271259657  1.0000
  C   C20       1.0  0.4571590269779904  0.048270297101879606  0.7985189459928105  1.0000
  C   C21       1.0  0.04827105028837049  0.4571586819520094  0.7985181091225755  1.0000
  C   C22       1.0  0.5428415899150637  0.9517268523717063  0.2014815542369774  1.0000
  C   C23       1.0  0.6539557638905436  0.6539557988319586  0.9442301064554711  1.0000
  C   C24       1.0  0.34604663252646617  0.3460472436939738  0.05576873257237481  1.0000
  C   C25       1.0  0.9078088690655973  0.9078076581857673  0.5893429615625081  1.0000
  C   C26       1.0  0.09219167690770287  0.0921914501412431  0.4106543796254413  1.0000
  C   C27       1.0  0.7244447419695916  0.5436690678978096  0.022188102072590123  1.0000
  C   C28       1.0  0.45633107107526166  0.2755570689179763  0.9778109668135426  1.0000
  C   C29       1.0  0.27555673187271884  0.45633201017621855  0.977810833571496  1.0000
  C   C30       1.0  0.5436693568829085  0.7244459809438837  0.022187666116387582  1.0000
  C   C31       1.0  0.9946897439353819  0.4444934302502972  0.2973266450952323  1.0000
  C   C32       1.0  0.555505141839717  0.0053084150431886  0.7026748473313729  1.0000
  C   C33       1.0  0.005308875656829999  0.5555047126048294  0.7026741833561728  1.0000
  C   C34       1.0  0.4444935145359352  0.994688749709006  0.29732798340904043  1.0000
  C   C35       1.0  0.0811343909748174  0.4693321480982179  0.34855175984578307  1.0000
  C   C36       1.0  0.5306661181989937  0.9188652173491789  0.6514488415544191  1.0000
  C   C37       1.0  0.9188661917819375  0.5306659821258534  0.6514475836311815  1.0000
  C   C38       1.0  0.4693314896453629  0.08113391654329401  0.3485528409356533  1.0000
  C   C39       1.0  0.8708376097594268  0.36108435872556305  0.16231295161284018  1.0000
  C   C40       1.0  0.6389164571398779  0.12916286596220772  0.8376853694919715  1.0000
  C   C41       1.0  0.12916287852988262  0.6389167216926525  0.8376854582141886  1.0000
  C   C42       1.0  0.36108406528573056  0.870837233705515  0.16231419708788045  1.0000
  C   C43       1.0  0.1307305098194078  0.595660502357056  0.30140478031005097  1.0000
  C   C44       1.0  0.4043380147338667  0.8692690922215222  0.6985957681431356  1.0000
  C   C45       1.0  0.8692690953257978  0.4043376381538764  0.6985965739584045  1.0000
  C   C46       1.0  0.5956605445271919  0.1307310200772491  0.30140528341116374  1.0000
  N   N1        1.0  0.7992648368454595  0.5906059785516646  0.08053595845309042  1.0000
  N   N2        1.0  0.40939301734921685  0.2007355106499418  0.9194639527807948  1.0000
  N   N3        1.0  0.2007357170692998  0.4093931377180126  0.919463919343407  1.0000
  N   N4        1.0  0.5906055392646934  0.7992645990012762  0.08053625323731947  1.0000
  O   O1        1.0  0.011290433289829599  0.011290450713559603  0.8025921781775976  1.0000
  O   O2        1.0  0.988711986674879  0.9887116004716531  0.19740443545834555  1.0000
  O   O3        1.0  0.960609145153505  0.7716208125150388  0.07162607970337825  1.0000
  O   O4        1.0  0.22837916524391494  0.0393899607503059  0.928374770634356  1.0000
  O   O5        1.0  0.03938846269085159  0.2283783213774342  0.928375602786694  1.0000
  O   O6        1.0  0.7716194255062945  0.9606091681504194  0.07162659213658872  1.0000
  O   O7        1.0  0.8619898517661111  0.8619893103250079  0.846868667027799  1.0000
  O   O8        1.0  0.138010668012349  0.1380107866951619  0.1531300540158682  1.0000
