data_image0
_chemical_formula_structural       Zn2H26C30N14O2
_chemical_formula_sum              "Zn2 H26 C30 N14 O2"
_cell_length_a       7.789522309458309
_cell_length_b       8.73044438864868
_cell_length_c       13.681661528796859
_cell_angle_alpha    89.99766026827294
_cell_angle_beta     90.00048870887389
_cell_angle_gamma    114.4670682055475

_space_group_name_H-M_alt    "P 1"
_space_group_IT_number       1

loop_
  _space_group_symop_operation_xyz
  'x, y, z'

loop_
  _atom_site_type_symbol
  _atom_site_label
  _atom_site_symmetry_multiplicity
  _atom_site_fract_x
  _atom_site_fract_y
  _atom_site_fract_z
  _atom_site_occupancy
  Zn  Zn1       1.0  0.8676489253092754  0.7271118097238373  0.7591596839511323  1.0000
  Zn  Zn2       1.0  0.13236178775138535  0.27289168736188424  0.2591480243179447  1.0000
  H   H1        1.0  0.7845340029508778  0.25440843342602903  0.7421257503365624  1.0000
  H   H2        1.0  0.215456560887759  0.7455947349474883  0.24212395998336683  1.0000
  H   H3        1.0  0.5179677559164163  0.23816651004502631  0.8126901213182831  1.0000
  H   H4        1.0  0.48202023169051966  0.7618267067572333  0.31269449416654976  1.0000
  H   H5        1.0  0.23926076725248183  0.18936229039040603  0.8811935740896215  1.0000
  H   H6        1.0  0.7607138273237768  0.8106199415841006  0.3812029093267951  1.0000
  H   H7        1.0  0.006946568047546001  0.27557843556953543  0.9618372413867886  1.0000
  H   H8        1.0  0.9930263370602788  0.7243977897317109  0.46184228497060076  1.0000
  H   H9        1.0  0.07734449058565217  0.5820824176857116  0.9724803755968308  1.0000
  H   H10       1.0  0.9226398446168744  0.417895385773825  0.47248384633103047  1.0000
  H   H11       1.0  0.376838612759009  0.7957825938470081  0.9043347824295508  1.0000
  H   H12       1.0  0.6231550357873917  0.20419979053428963  0.4043367823687731  1.0000
  H   H13       1.0  0.3487026402058929  0.26197813955644017  0.6377108350097058  1.0000
  H   H14       1.0  0.6512876603889524  0.7380289480352361  0.13771263006687914  1.0000
  H   H15       1.0  0.5091727390012154  0.43567154261189955  0.5673335691447008  1.0000
  H   H16       1.0  0.49081606767833835  0.5643391309268753  0.0673409087161758  1.0000
  H   H17       1.0  0.29470364268063787  0.29049513324859066  0.5153125960334108  1.0000
  H   H18       1.0  0.7052725684283204  0.7095271184270048  0.015310192113396699  1.0000
  H   H19       1.0  0.4742362691293352  0.7031241709237932  0.5755848719794014  1.0000
  H   H20       1.0  0.525777801019956  0.29689642868780913  0.075578100439607  1.0000
  H   H21       1.0  0.32881905449657006  0.9584038559914845  0.7177213778264144  1.0000
  H   H22       1.0  0.6712059046063532  0.04160695591393451  0.21770312219923937  1.0000
  H   H23       1.0  0.20805618356384759  0.9498650605490652  0.6076750421029544  1.0000
  H   H24       1.0  0.7919758484972379  0.050161091284586214  0.10765557550045196  1.0000
  H   H25       1.0  0.4445745474840379  0.965548705319904  0.6033841401199211  1.0000
  H   H26       1.0  0.5554547756598821  0.0344746271366034  0.10336345556455478  1.0000
  C   C1        1.0  0.1603778181100779  0.03848566838694011  0.08957331165044019  1.0000
  C   C2        1.0  0.8396293761894784  0.9615178783718576  0.5895752966179015  1.0000
  C   C3        1.0  0.11290362672968257  0.9029328961670872  0.9426843219619696  1.0000
  C   C4        1.0  0.8871028207355139  0.0970485081610875  0.4426738352841183  1.0000
  C   C5        1.0  0.0019420291490063655  0.46857880105859817  0.6917643070407207  1.0000
  C   C6        1.0  0.9980657215689634  0.5314275662525675  0.1917549473821296  1.0000
  C   C7        1.0  0.5660028361934551  0.37587563342545144  0.80992282864392  1.0000
  C   C8        1.0  0.43399050127004574  0.6241183441212571  0.3099215240536565  1.0000
  C   C9        1.0  0.44151991467287394  0.44124420592822844  0.8506474170910747  1.0000
  C   C10       1.0  0.5584751505362746  0.55874673754424  0.3506475693244154  1.0000
  C   C11       1.0  0.26867344060732273  0.3221489184350617  0.8888131556570114  1.0000
  C   C12       1.0  0.7312966588817319  0.6778252426951924  0.38881539576721735  1.0000
  C   C13       1.0  0.13828830376351678  0.3695700039870076  0.9325349112323522  1.0000
  C   C14       1.0  0.8617020182383899  0.6304195537169265  0.43254062189411957  1.0000
  C   C15       1.0  0.17844727502883018  0.5422913523467798  0.9379930959594415  1.0000
  C   C16       1.0  0.8215424310076999  0.4576757829727143  0.4379948541294566  1.0000
  C   C17       1.0  0.3441332293659727  0.6619980311545035  0.8999341021536578  1.0000
  C   C18       1.0  0.6558532709292636  0.33798020812007223  0.39993151457696285  1.0000
  C   C19       1.0  0.48296999638627375  0.6183957462787291  0.8551657261091135  1.0000
  C   C20       1.0  0.5170179899241559  0.3815815483093274  0.35516105788948227  1.0000
  C   C21       1.0  0.2593788730962529  0.45968874429379974  0.6182130731411772  1.0000
  C   C22       1.0  0.7406208830395827  0.5403242677401252  0.11820781909769099  1.0000
  C   C23       1.0  0.36043405711292564  0.3575206077358787  0.5829163890375142  1.0000
  C   C24       1.0  0.6395558733747537  0.6424940038455987  0.08291877796400368  1.0000
  C   C25       1.0  0.33607831835549  0.6355865645403892  0.6084924828949949  1.0000
  C   C26       1.0  0.6639264401517695  0.3644300326061725  0.10848047902713628  1.0000
  C   C27       1.0  0.23478469239987731  0.7222074208747458  0.6451381640359201  1.0000
  C   C28       1.0  0.7652355579880635  0.2778086489569914  0.14512121850363258  1.0000
  C   C29       1.0  0.3098057049232921  0.9098500565860591  0.642394994502922  1.0000
  C   C30       1.0  0.6902219096585825  0.0901742855905354  0.14237236512135348  1.0000
  N   N1        1.0  0.2019735041519509  0.9529402797325446  0.024075670818845693  1.0000
  N   N2        1.0  0.7980390140849566  0.0470497216317511  0.5240654568403257  1.0000
  N   N3        1.0  0.04727342611077027  0.8549490292163215  0.8651719567695222  1.0000
  N   N4        1.0  0.9527297547635243  0.1450238559046397  0.3651589764631352  1.0000
  N   N5        1.0  0.06384697373043476  0.6373336110672908  0.687070082498252  1.0000
  N   N6        1.0  0.9361680596326138  0.36268396203846714  0.1870526525159804  1.0000
  N   N7        1.0  0.8293136088145374  0.3811680687438468  0.7335614777197106  1.0000
  N   N8        1.0  0.17068893253549078  0.6188398325675378  0.23355361780909326  1.0000
  N   N9        1.0  0.7297587556879035  0.46442482180473377  0.7699995210715824  1.0000
  N   N10       1.0  0.2702365084280559  0.5355745844909595  0.26999268800263815  1.0000
  N   N11       1.0  0.09046310466663947  0.37540738835500775  0.6599396105443985  1.0000
  N   N12       1.0  0.9095358919165194  0.6246085254683464  0.1599338653543114  1.0000
  N   N13       1.0  0.13589175534551154  0.1180585148863997  0.15282286028056544  1.0000
  N   N14       1.0  0.8641167329226819  0.8819592496468261  0.6528330441604595  1.0000
  O   O1        1.0  0.637914834576698  0.7373202986274449  0.8231045628425449  1.0000
  O   O2        1.0  0.36208813093968933  0.2626708999995486  0.32309989232070535  1.0000
