data_image0
_chemical_formula_structural       Ni4H108C72N20O16
_chemical_formula_sum              "Ni4 H108 C72 N20 O16"
_cell_length_a       14.772775296580857
_cell_length_b       14.77029797865694
_cell_length_c       14.666499597988814
_cell_angle_alpha    116.21744025187296
_cell_angle_beta     99.97618984734584
_cell_angle_gamma    112.74883830744363

_space_group_name_H-M_alt    "P 1"
_space_group_IT_number       1

loop_
  _space_group_symop_operation_xyz
  'x, y, z'

loop_
  _atom_site_type_symbol
  _atom_site_label
  _atom_site_symmetry_multiplicity
  _atom_site_fract_x
  _atom_site_fract_y
  _atom_site_fract_z
  _atom_site_occupancy
  Ni  Ni1       1.0  0.29670367345663345  0.544504312775338  0.22634174506260507  1.0000
  Ni  Ni2       1.0  0.8177319412734647  0.07024412847127341  0.2734286251940645  1.0000
  Ni  Ni3       1.0  0.7032873535186611  0.45549265849549425  0.7736523333374948  1.0000
  Ni  Ni4       1.0  0.18227197619171423  0.929742308306949  0.7265683360918517  1.0000
  H   H1        1.0  0.2853309834524395  0.4426154729805348  0.9292487389564174  1.0000
  H   H2        1.0  0.012068926881774241  0.35549366704835006  0.5700728156357827  1.0000
  H   H3        1.0  0.7145734992015634  0.5573662132221102  0.07071052176713971  1.0000
  H   H4        1.0  0.9879457959037624  0.6445003102702174  0.4299250889033174  1.0000
  H   H5        1.0  0.2808008949763661  0.36828771453193127  0.9981475518642285  1.0000
  H   H6        1.0  0.8690156015363256  0.2819279702415329  0.5013786369915821  1.0000
  H   H7        1.0  0.7191300788731283  0.6316909117541271  0.0018089051231271096  1.0000
  H   H8        1.0  0.1310000322797079  0.7180692677359845  0.49863077143903217  1.0000
  H   H9        1.0  0.9984553684739623  0.543866768908785  0.11576040633585194  1.0000
  H   H10       1.0  0.9283644090015315  0.8831170625224727  0.3842497457668586  1.0000
  H   H11       1.0  0.001524057673584836  0.4561665184365823  0.8842921906229791  1.0000
  H   H12       1.0  0.07164427506023681  0.11687112318876558  0.6157522606952597  1.0000
  H   H13       1.0  0.11321849588760101  0.6014468410845596  0.09243851921473127  1.0000
  H   H14       1.0  0.009133119212862075  0.021154016990046008  0.4075664960456393  1.0000
  H   H15       1.0  0.8867613097960785  0.3985791641113964  0.9076118675374546  1.0000
  H   H16       1.0  0.9908797012861258  0.9788293419864472  0.5924290969869972  1.0000
  H   H17       1.0  0.4719566633269139  0.5282857672989748  0.05920306178224176  1.0000
  H   H18       1.0  0.967497937235848  0.4119835187901941  0.43993941568331246  1.0000
  H   H19       1.0  0.5279627029000623  0.47169341501413015  0.9407169163208808  1.0000
  H   H20       1.0  0.032514413327291374  0.5880019161324553  0.5600527612980883  1.0000
  H   H21       1.0  0.43405421189167737  0.6355945581244384  0.10997541284304904  1.0000
  H   H22       1.0  0.024492374657789584  0.32374485880847464  0.389250244457898  1.0000
  H   H23       1.0  0.565869602224474  0.36438668879350194  0.8899683977751778  1.0000
  H   H24       1.0  0.9755081461039836  0.6762276557150457  0.610737216308479  1.0000
  H   H25       1.0  0.5416764355669272  0.7416043727039466  0.30352680227850476  1.0000
  H   H26       1.0  0.9372403898218664  0.23768446942369786  0.19551128405214505  1.0000
  H   H27       1.0  0.45829952625371806  0.25838619881682223  0.6964047195855728  1.0000
  H   H28       1.0  0.06275173196590332  0.7622993179864394  0.8044869791172786  1.0000
  H   H29       1.0  0.6045224128035259  0.6570057869550894  0.2720071312184658  1.0000
  H   H30       1.0  0.8839305289532788  0.3318257622893057  0.22692997990950659  1.0000
  H   H31       1.0  0.39544896024288784  0.3429782530375505  0.7279040091117678  1.0000
  H   H32       1.0  0.1160600055430193  0.6681543628009903  0.7730720351378082  1.0000
  H   H33       1.0  0.5393626585929852  0.584702444463808  0.3888885894056672  1.0000
  H   H34       1.0  0.695236682778095  0.15004855639683967  0.11031142290132584  1.0000
  H   H35       1.0  0.4606560044263474  0.41530643169106435  0.6110510303329874  1.0000
  H   H36       1.0  0.3047567651069302  0.8499317202791588  0.8896932003140352  1.0000
  H   H37       1.0  0.6344490755295737  0.7379403185795183  0.4631173339923436  1.0000
  H   H38       1.0  0.7743033392281616  0.17083499995809595  0.035798455254223455  1.0000
  H   H39       1.0  0.36557227189937436  0.2620615246151772  0.536806819651936  1.0000
  H   H40       1.0  0.2256835161177263  0.82915161453775  0.9642036338882106  1.0000
  H   H41       1.0  0.4798739696577243  0.776083923762009  0.4588587146342108  1.0000
  H   H42       1.0  0.8169585081361318  0.020894703238461394  0.040532465204506644  1.0000
  H   H43       1.0  0.5201492156275549  0.22392856075855155  0.5411241228890377  1.0000
  H   H44       1.0  0.18303000011051293  0.9790862478842685  0.9594499830576453  1.0000
  H   H45       1.0  0.5072887551877585  0.7240311584109094  0.5421351501042934  1.0000
  H   H46       1.0  0.6817986713535477  0.9650263086326234  0.9574529589026781  1.0000
  H   H47       1.0  0.4927720991216519  0.27598527402984274  0.45784321490521757  1.0000
  H   H48       1.0  0.31818554461609244  0.03495625233783533  0.04254549737044042  1.0000
  H   H49       1.0  0.3032493078508979  0.7104180915767557  0.45468887740629793  1.0000
  H   H50       1.0  0.7559305447389448  0.8489011376491931  0.04534278542460867  1.0000
  H   H51       1.0  0.6967982904298184  0.28959577980318574  0.5453383855167075  1.0000
  H   H52       1.0  0.24406496970693334  0.15107646453532222  0.9546460048023421  1.0000
  H   H53       1.0  0.3037227301756501  0.6341804054329644  0.5198205551315453  1.0000
  H   H54       1.0  0.6146899753662467  0.7842368129419058  0.9804839830902311  1.0000
  H   H55       1.0  0.6963412632969079  0.3658286257032941  0.48020133854259944  1.0000
  H   H56       1.0  0.3853072718091255  0.21574701683594807  0.019514573250468525  1.0000
  H   H57       1.0  0.15883885409964912  0.4401589433734473  0.33201705703329065  1.0000
  H   H58       1.0  0.6083988376302543  0.827094996480696  0.16845902873266985  1.0000
  H   H59       1.0  0.8411916764405875  0.559852094895234  0.6680059801847166  1.0000
  H   H60       1.0  0.3916104996416934  0.17289667789486188  0.8315410791475912  1.0000
  H   H61       1.0  0.1154134044183124  0.5418110205728937  0.3871572516179925  1.0000
  H   H62       1.0  0.655181408428838  0.7287781811001395  0.11334445064752438  1.0000
  H   H63       1.0  0.8846404167011173  0.4582195770691158  0.6129024144450809  1.0000
  H   H64       1.0  0.3448194259213366  0.27121104972034266  0.8866580252406636  1.0000
  H   H65       1.0  0.05538199927644165  0.34352103551763247  0.13773929731752327  1.0000
  H   H66       1.0  0.7059855394433043  0.917874670116724  0.36296055383232334  1.0000
  H   H67       1.0  0.9445922947940913  0.6565042861524476  0.8623112683198926  1.0000
  H   H68       1.0  0.294029814739055  0.08212345897158724  0.6370405257380441  1.0000
  H   H69       1.0  0.9869224888729349  0.42282662841013524  0.1700712815848535  1.0000
  H   H70       1.0  0.7530981095176302  0.8172429023396717  0.3305747101827734  1.0000
  H   H71       1.0  0.013097092304626374  0.5772486476255452  0.830018663673549  1.0000
  H   H72       1.0  0.24691006204980678  0.18275359800723842  0.6694264120429666  1.0000
  H   H73       1.0  0.08010888838617806  0.36848716269880566  0.9123196266053882  1.0000
  H   H74       1.0  0.9559404911403674  0.16770367167396227  0.5876091719622141  1.0000
  H   H75       1.0  0.9198151958025065  0.6314979115390571  0.08769744514238924  1.0000
  H   H76       1.0  0.04407557955578059  0.8322861318050486  0.4123900190096991  1.0000
  H   H77       1.0  0.10590545735144735  0.3125618980082978  0.9925377282305947  1.0000
  H   H78       1.0  0.8198847573060704  0.11338052046546909  0.5079139384212751  1.0000
  H   H79       1.0  0.8940392391940506  0.6874376490729829  0.007490020584526752  1.0000
  H   H80       1.0  0.18013586893935948  0.8866177923660246  0.4920926687375911  1.0000
  H   H81       1.0  0.48676099342706175  0.1623582186279222  0.26927638813761223  1.0000
  H   H82       1.0  0.3929141844799204  0.21763385653704861  0.23048563443300202  1.0000
  H   H83       1.0  0.5132466176355948  0.8376424878385933  0.7307163599420577  1.0000
  H   H84       1.0  0.6070968507206871  0.7823831199076281  0.7695208941146134  1.0000
  H   H85       1.0  0.2172137353644176  0.8902918001125713  0.25803530694908977  1.0000
  H   H86       1.0  0.13162217380065042  0.9588979519736825  0.24095056340882348  1.0000
  H   H87       1.0  0.7827970671447418  0.10972526348028573  0.7419779980593617  1.0000
  H   H88       1.0  0.8684005903998511  0.04112608705334263  0.759078167669074  1.0000
  H   H89       1.0  0.5170779157758717  0.9033347968488101  0.3070078446901406  1.0000
  H   H90       1.0  0.09635769348695794  0.21049852339383793  0.19255134457222317  1.0000
  H   H91       1.0  0.4829273914815175  0.09667057290715786  0.692990543865868  1.0000
  H   H92       1.0  0.9036450649631217  0.7895006626633077  0.8074483692093108  1.0000
  H   H93       1.0  0.2387053645669681  0.5615110926098908  0.06589989781440408  1.0000
  H   H94       1.0  0.9949449138399162  0.17265091850528352  0.43359003524147965  1.0000
  H   H95       1.0  0.7612349129305684  0.43847897731529895  0.9340993466965629  1.0000
  H   H96       1.0  0.005069450154614716  0.8273447653785979  0.5664126213025399  1.0000
  H   H97       1.0  0.4251982142453699  0.48090681274592123  0.1906469788171918  1.0000
  H   H98       1.0  0.7893598495414268  0.23395804856679087  0.30872168157358704  1.0000
  H   H99       1.0  0.574776811019092  0.5190884329153677  0.8093029634917529  1.0000
  H   H100      1.0  0.21064447348776844  0.7660332140602081  0.6912863011915321  1.0000
  H   H101      1.0  0.35880607896410777  0.5270341824111285  0.38545537797970303  1.0000
  H   H102      1.0  0.641431936887102  0.9733156485405132  0.11440397862146774  1.0000
  H   H103      1.0  0.6412444730165278  0.4729779920954727  0.6145390933377756  1.0000
  H   H104      1.0  0.3585736573702576  0.026667407905407014  0.88560180429279  1.0000
  H   H105      1.0  0.16778549430339498  0.6070618878597998  0.2688401029937991  1.0000
  H   H106      1.0  0.8382574974119875  0.8992723437030036  0.23126568979979117  1.0000
  H   H107      1.0  0.8322413039569697  0.3929685632671396  0.7312093208703488  1.0000
  H   H108      1.0  0.16174824582651576  0.10071334269906633  0.768729428545882  1.0000
  C   C1        1.0  0.2993953509959795  0.4538622798758495  0.01110989453088252  1.0000
  C   C2        1.0  0.9416611192984592  0.2877308240613985  0.4883642489179251  1.0000
  C   C3        1.0  0.7005335012543553  0.5461216618314638  0.9888545037111172  1.0000
  C   C4        1.0  0.058351187468751606  0.7122632734487838  0.5116387434527567  1.0000
  C   C5        1.0  0.03549967042877  0.5191529718495218  0.0572111820419892  1.0000
  C   C6        1.0  0.9620182209680197  0.9784922495372612  0.44284166699655  1.0000
  C   C7        1.0  0.9644783724467628  0.4808766422023752  0.9428423939599143  1.0000
  C   C8        1.0  0.03799216276751583  0.021496805214958652  0.5571564720693941  1.0000
  C   C9        1.0  0.4167260870581444  0.5491493852179586  0.09422780620226232  1.0000
  C   C10       1.0  0.9537051161000889  0.32194901391261505  0.40498385730416697  1.0000
  C   C11       1.0  0.5832097186587859  0.45083633706158116  0.9057191432849622  1.0000
  C   C12       1.0  0.04630281732393367  0.6780372263768727  0.5950140196578603  1.0000
  C   C13       1.0  0.5369394995830419  0.661047889540832  0.29276197396022496  1.0000
  C   C14       1.0  0.8674093339068493  0.24362119958318829  0.20628614961763955  1.0000
  C   C15       1.0  0.4630433284507873  0.3389471149738342  0.7071723936015603  1.0000
  C   C16       1.0  0.13258402340923672  0.7563612072662592  0.7937135155028727  1.0000
  C   C17       1.0  0.5504231477717454  0.668550265936986  0.402165628664747  1.0000
  C   C18       1.0  0.7658415742129918  0.1478749723001015  0.09702989957769148  1.0000
  C   C19       1.0  0.4495929170231534  0.33145807827771284  0.5977767781271909  1.0000
  C   C20       1.0  0.23415106675852826  0.8521084237819423  0.9029709859782358  1.0000
  C   C21       1.0  0.4772950161179494  0.6991386752609968  0.45537335149701624  1.0000
  C   C22       1.0  0.7435363922566437  0.021804235564751237  0.04412177239804281  1.0000
  C   C23       1.0  0.522739438802354  0.30087626302486836  0.5446044917691212  1.0000
  C   C24       1.0  0.25645575134447546  0.9781788887399686  0.9558714171582637  1.0000
  C   C25       1.0  0.288920099806198  0.6250073502401251  0.43911876634395247  1.0000
  C   C26       1.0  0.6860765500805215  0.8500750065524725  0.06098989218670428  1.0000
  C   C27       1.0  0.7111230414210323  0.3750013810234449  0.5608994930626565  1.0000
  C   C28       1.0  0.313924180152668  0.14990784420301415  0.9390048174694101  1.0000
  C   C29       1.0  0.17328140312491064  0.5273881209359389  0.35303294952044695  1.0000
  C   C30       1.0  0.6746510758247267  0.8205967882592374  0.14739347300073988  1.0000
  C   C31       1.0  0.8267552554705802  0.47262900266464697  0.6469992274438142  1.0000
  C   C32       1.0  0.32535451950085564  0.17939118066536977  0.8526046945021336  1.0000
  C   C33       1.0  0.057306268593549724  0.4242010407770209  0.15284677386345186  1.0000
  C   C34       1.0  0.7715611295962219  0.9047530225044795  0.3476996505342457  1.0000
  C   C35       1.0  0.9426934262437427  0.5758398395640756  0.8472144404043861  1.0000
  C   C36       1.0  0.2284506511286039  0.09524087940293666  0.6522996494628259  1.0000
  C   C37       1.0  0.11184682534577217  0.3915616263101925  0.9983417237205359  1.0000
  C   C38       1.0  0.8929503561905463  0.1134168240620427  0.5017543083974872  1.0000
  C   C39       1.0  0.8880951125825547  0.608436073593708  0.0016814377564458127  1.0000
  C   C40       1.0  0.10706522961503132  0.8865763053994087  0.4982476101234213  1.0000
  C   C41       1.0  0.6274739812128233  0.10067419957862721  0.3045407887357642  1.0000
  C   C42       1.0  0.2962713935627121  0.3233668839644324  0.19522155042755432  1.0000
  C   C43       1.0  0.37252590640702016  0.8993185962032937  0.6954537850628739  1.0000
  C   C44       1.0  0.7037243655467763  0.6766362379617874  0.804772891376274  1.0000
  C   C45       1.0  0.5121130008442875  0.03954203056264302  0.29009224663417393  1.0000
  C   C46       1.0  0.2493977983853597  0.22230029803274937  0.20953141807066805  1.0000
  C   C47       1.0  0.48788980685369404  0.9604588401125583  0.7099066734826422  1.0000
  C   C48       1.0  0.7506136986550088  0.7777164394329292  0.7904857401154928  1.0000
  C   C49       1.0  0.4482310211226874  0.08449498576931806  0.27176673298856713  1.0000
  C   C50       1.0  0.3125242562903878  0.1765977848643203  0.2278463507778241  1.0000
  C   C51       1.0  0.5517766379504181  0.9155098292132706  0.7282335050008087  1.0000
  C   C52       1.0  0.6874888774585771  0.8234169631625436  0.7721655937026882  1.0000
  C   C53       1.0  0.3407211009473556  0.03298836814154531  0.2590120517900019  1.0000
  C   C54       1.0  0.27357300813855545  0.0816254126440796  0.2403867633222632  1.0000
  C   C55       1.0  0.6592892043606325  0.967021087297283  0.7409928890557892  1.0000
  C   C56       1.0  0.7264419856769136  0.9183915196609647  0.7596286881535051  1.0000
  C   C57       1.0  0.29942648359189405  0.9342857871791492  0.26599426575734947  1.0000
  C   C58       1.0  0.16786804124117796  0.03333480768119301  0.23320821155609653  1.0000
  C   C59       1.0  0.7005833218708021  0.06572824427839669  0.7340195462376614  1.0000
  C   C60       1.0  0.8321498933975562  0.966684623933027  0.766814128036117  1.0000
  C   C61       1.0  0.3615524792165132  0.8871572222855943  0.2826256893765303  1.0000
  C   C62       1.0  0.10425601713215114  0.0790270537016724  0.2167031620620179  1.0000
  C   C63       1.0  0.6384518652875926  0.11284804998940969  0.7173785561015363  1.0000
  C   C64       1.0  0.8957609902839253  0.9209927911878993  0.7833221008133223  1.0000
  C   C65       1.0  0.46810964158449064  0.9394496054441177  0.29400977077295226  1.0000
  C   C66       1.0  0.14535809895060944  0.17438908638251863  0.20548379439357944  1.0000
  C   C67       1.0  0.5318930319178463  0.060554721615353815  0.7059943384752643  1.0000
  C   C68       1.0  0.8546508368026337  0.8256178696245798  0.7945242654694908  1.0000
  C   C69       1.0  0.3105284441458309  0.7789712583742556  0.28609562647255876  1.0000
  C   C70       1.0  0.9926356188302776  0.024554909155952463  0.21334124482126526  1.0000
  C   C71       1.0  0.6894784973452628  0.2210369697389396  0.7139141155266486  1.0000
  C   C72       1.0  0.007372826580422039  0.9754450256279911  0.7866595208662376  1.0000
  N   N1        1.0  0.2285416720494524  0.48590909879239774  0.05935379451587858  1.0000
  N   N2        1.0  0.9259178634297952  0.16895497003637416  0.4403021638431781  1.0000
  N   N3        1.0  0.7714059702691076  0.5140832520059818  0.9406477081180074  1.0000
  N   N4        1.0  0.07409741283267829  0.8310415506084325  0.5597037130179247  1.0000
  N   N5        1.0  0.43358318223359044  0.5587580326072086  0.2001813257872413  1.0000
  N   N6        1.0  0.8577122576961003  0.23290297751697156  0.29917704647922966  1.0000
  N   N7        1.0  0.5663840770295822  0.44123554105900115  0.7997729740555217  1.0000
  N   N8        1.0  0.1422913776605128  0.7670891981680725  0.70082815309528  1.0000
  N   N9        1.0  0.36370436942704726  0.600793255878301  0.3916765799459441  1.0000
  N   N10       1.0  0.7089785354246985  0.9720303873917119  0.10818460588308199  1.0000
  N   N11       1.0  0.6363275493349931  0.39921176009178083  0.6083123439313028  1.0000
  N   N12       1.0  0.2910200964293566  0.02794735540488365  0.8918040196770961  1.0000
  N   N13       1.0  0.15864850799906793  0.5264356680583119  0.2509972776731217  1.0000
  N   N14       1.0  0.7754587051388883  0.9078832905848558  0.24921549008175956  1.0000
  N   N15       1.0  0.8413762492261372  0.47358952276063376  0.7490380548430481  1.0000
  N   N16       1.0  0.22454580959915652  0.09209702693206627  0.7507786281368851  1.0000
  N   N17       1.0  0.046461790114278805  0.4232383096875054  0.052824242622143934  1.0000
  N   N18       1.0  0.8704615919785255  0.9937748945606157  0.44744958312593036  1.0000
  N   N19       1.0  0.9535116396987675  0.5767902837377151  0.9472305926078806  1.0000
  N   N20       1.0  0.12955068735413977  0.00621685522609994  0.5525491292963522  1.0000
  O   O1        1.0  0.6624304902925431  0.19349506264548208  0.3040680086647001  1.0000
  O   O2        1.0  0.3894926930300572  0.35871667680405755  0.1955872725143522  1.0000
  O   O3        1.0  0.33757547613465266  0.8065021338502874  0.6959364985449028  1.0000
  O   O4        1.0  0.6105126333965814  0.6413002140192389  0.8044232777404118  1.0000
  O   O5        1.0  0.6814639147429489  0.05262861066694317  0.3148751224014533  1.0000
  O   O6        1.0  0.23803981583917988  0.3672293795290217  0.18510996344995334  1.0000
  O   O7        1.0  0.3185342320513129  0.947359794488797  0.6851168988707529  1.0000
  O   O8        1.0  0.7619539915666351  0.6327687758137729  0.814883628675169  1.0000
  O   O9        1.0  0.35558228883257936  0.7173676298307257  0.2644493434293693  1.0000
  O   O10       1.0  0.9526517763088407  0.0912323320882392  0.2351091223498757  1.0000
  O   O11       1.0  0.644410303790046  0.2826263304886539  0.7355453885429243  1.0000
  O   O12       1.0  0.04735069458071435  0.9087622456701325  0.7648888079957031  1.0000
  O   O13       1.0  0.22787617802217142  0.7554314682919454  0.306880247570561  1.0000
  O   O14       1.0  0.9484152748409898  0.9212122017530504  0.19263155734768841  1.0000
  O   O15       1.0  0.7721469711664353  0.24459563579126367  0.6931562950252328  1.0000
  O   O16       1.0  0.05160561715162268  0.07879138248262073  0.8073819068602647  1.0000
