data_image0
_chemical_formula_structural       Cu4H48C44N4O16
_chemical_formula_sum              "Cu4 H48 C44 N4 O16"
_cell_length_a       8.677152628788454
_cell_length_b       13.122770918135055
_cell_length_c       14.271724794144902
_cell_angle_alpha    117.38056813770908
_cell_angle_beta     93.91803500908046
_cell_angle_gamma    89.98963879790068

_space_group_name_H-M_alt    "P 1"
_space_group_IT_number       1

loop_
  _space_group_symop_operation_xyz
  'x, y, z'

loop_
  _atom_site_type_symbol
  _atom_site_label
  _atom_site_symmetry_multiplicity
  _atom_site_fract_x
  _atom_site_fract_y
  _atom_site_fract_z
  _atom_site_occupancy
  Cu  Cu1       1.0  0.06059399761583249  0.9964508486659794  0.5832450285918114  1.0000
  Cu  Cu2       1.0  0.43939343905971373  0.41313303405929236  0.4167327824436596  1.0000
  Cu  Cu3       1.0  0.9394015945050213  0.003545077961483366  0.41675354148441096  1.0000
  Cu  Cu4       1.0  0.5606008497828299  0.5868664269092462  0.5832667644636018  1.0000
  H   H1        1.0  0.4839748509676839  0.9667192833798025  0.3735298181098089  1.0000
  H   H2        1.0  0.3738499823114124  0.852330343736554  0.26926312876993563  1.0000
  H   H3        1.0  0.5860474621739866  0.7841224540452032  0.3546627380555235  1.0000
  H   H4        1.0  0.50810393860543  0.8597345570005784  0.4783838263431903  1.0000
  H   H5        1.0  0.2592508312486003  0.7430369403190511  0.40485181224632066  1.0000
  H   H6        1.0  0.3432224922551654  0.6569153091808956  0.284673025918174  1.0000
  H   H7        1.0  0.2297357878981643  0.16695795797972562  0.7908520557036168  1.0000
  H   H8        1.0  0.4291188647672114  0.17049574545814755  0.928240039465841  1.0000
  H   H9        1.0  0.382653520491523  0.7995606145537902  0.7754085350848355  1.0000
  H   H10       1.0  0.18607092344399942  0.8129531631762531  0.646992392776042  1.0000
  H   H11       1.0  0.5879705498612892  0.8993583129589238  0.9194593818106894  1.0000
  H   H12       1.0  0.632487496223085  0.04645713116981649  0.9629340138667714  1.0000
  H   H13       1.0  0.016107160043596  0.5934349067154441  0.6264562934548862  1.0000
  H   H14       1.0  0.12622678178242808  0.5832266317411126  0.73067183255624  1.0000
  H   H15       1.0  0.9139200147121965  0.4296923328715747  0.6452291440910897  1.0000
  H   H16       1.0  0.9919318556872408  0.38152789999247017  0.5215246531052813  1.0000
  H   H17       1.0  0.24071459896715902  0.3383016415206938  0.5950912379284148  1.0000
  H   H18       1.0  0.1567763102305051  0.37254144517599014  0.7152933627498754  1.0000
  H   H19       1.0  0.2700053560549591  0.37636303180527614  0.2091131735799578  1.0000
  H   H20       1.0  0.0706553782489436  0.24242443538065564  0.0716102868765063  1.0000
  H   H21       1.0  0.11717341965255909  0.02431058014396827  0.22440833210828257  1.0000
  H   H22       1.0  0.31376703696898284  0.16613274936588598  0.352851446018974  1.0000
  H   H23       1.0  0.911721875929366  0.9802541557672767  0.08057359635175479  1.0000
  H   H24       1.0  0.8675085363108292  0.08362550502724277  0.036722659807168205  1.0000
  H   H25       1.0  0.516018292404098  0.0332838110265  0.6264742553559799  1.0000
  H   H26       1.0  0.626153421293182  0.14767033548898212  0.7307350399377412  1.0000
  H   H27       1.0  0.4139501701483254  0.21588234557847125  0.6453404572505903  1.0000
  H   H28       1.0  0.49188797368016396  0.14026808655896145  0.5216180701513409  1.0000
  H   H29       1.0  0.7407468466253204  0.25696228022703577  0.595145760473109  1.0000
  H   H30       1.0  0.6567786336250875  0.34308616133752406  0.7153268073588279  1.0000
  H   H31       1.0  0.770263147702451  0.8330433073028728  0.20915016277145076  1.0000
  H   H32       1.0  0.570883355338232  0.8295083680847951  0.07176159266266074  1.0000
  H   H33       1.0  0.6173534014822478  0.20044341026945026  0.2245947232791607  1.0000
  H   H34       1.0  0.8139338633603898  0.18704876337741885  0.3530122054537088  1.0000
  H   H35       1.0  0.4120350478876275  0.10064695493095847  0.0805416817766442  1.0000
  H   H36       1.0  0.36751935538783437  0.9535457980280455  0.03706641539848476  1.0000
  H   H37       1.0  0.9838852026826854  0.40655627861791993  0.3735418176355978  1.0000
  H   H38       1.0  0.8737701896735288  0.4167661587859611  0.26932788696434073  1.0000
  H   H39       1.0  0.08608522253287988  0.5702981354559356  0.35477166873462096  1.0000
  H   H40       1.0  0.008066413353070305  0.61846205357822  0.4784747924075887  1.0000
  H   H41       1.0  0.7592879727463567  0.6616934050941834  0.4049072938139703  1.0000
  H   H42       1.0  0.8432331422430791  0.6274551127244123  0.2847058156766167  1.0000
  H   H43       1.0  0.7299898692052125  0.6236389730911183  0.7908846224513296  1.0000
  H   H44       1.0  0.9293434109320273  0.7575753360358704  0.9283869762244095  1.0000
  H   H45       1.0  0.8828311180348863  0.9756878604132024  0.7755867156875382  1.0000
  H   H46       1.0  0.6862316704612325  0.8338673211946457  0.6471443936298727  1.0000
  H   H47       1.0  0.08828048856030078  0.019741987399974813  0.9194217281721321  1.0000
  H   H48       1.0  0.13249494517982896  0.9163704916257485  0.9632716522748694  1.0000
  C   C1        1.0  0.2550023072010035  0.9434714008411901  0.4088153602243665  1.0000
  C   C2        1.0  0.4022961473259555  0.894603218907555  0.3552792148687232  1.0000
  C   C3        1.0  0.4776133636874745  0.8130180111615672  0.3929265386878811  1.0000
  C   C4        1.0  0.36980713750727995  0.710821150224092  0.37007937792866835  1.0000
  C   C5        1.0  0.42603513162512735  0.6340129973448895  0.41770278121592946  1.0000
  C   C6        1.0  0.26610839721288215  0.08803917890266175  0.7922570744961348  1.0000
  C   C7        1.0  0.3771634926905633  0.08898681094859019  0.8676120578965508  1.0000
  C   C8        1.0  0.4220541333146102  0.9850430807586432  0.864617931682062  1.0000
  C   C9        1.0  0.35203384995304526  0.8838381974216672  0.7839613662789873  1.0000
  C   C10       1.0  0.2418028522269751  0.8903410845101333  0.7113597478803584  1.0000
  C   C11       1.0  0.5371994020901739  0.9841679621636101  0.9476278262773261  1.0000
  C   C12       1.0  0.2449739321707796  0.5347551850710701  0.5911064019266945  1.0000
  C   C13       1.0  0.09773071966090899  0.5394957835866379  0.6446571651569002  1.0000
  C   C14       1.0  0.022385031395373303  0.42026762068191903  0.6069900572213172  1.0000
  C   C15       1.0  0.13016717719903434  0.34089392499944177  0.6298769267474427  1.0000
  C   C16       1.0  0.07398351307932668  0.21641722789492945  0.5823786138788307  1.0000
  C   C17       1.0  0.23363169694147962  0.29600932946841135  0.2076371531555949  1.0000
  C   C18       1.0  0.12261918449127049  0.2215724749243364  0.132252252615487  1.0000
  C   C19       1.0  0.07777039947494298  0.12063001262118428  0.1352693694295368  1.0000
  C   C20       1.0  0.14782495397005138  0.10003230043358971  0.21587486607871403  1.0000
  C   C21       1.0  0.2580199431737427  0.17914695779801088  0.2884990824121374  1.0000
  C   C22       1.0  0.9626709602287065  0.03672121438481209  0.05228488704200631  1.0000
  C   C23       1.0  0.7449908323060938  0.0565273101365803  0.5911834331637138  1.0000
  C   C24       1.0  0.5976979115169241  0.10540012815215487  0.6447199361133755  1.0000
  C   C25       1.0  0.522380902379254  0.18698423934576866  0.6070758195127297  1.0000
  C   C26       1.0  0.6301894823405901  0.28918070723104716  0.6299234419780221  1.0000
  C   C27       1.0  0.5739647271759479  0.3659972874481809  0.582305074930872  1.0000
  C   C28       1.0  0.7338927990302154  0.9119633872411441  0.20774558787961436  1.0000
  C   C29       1.0  0.6228387711372247  0.9110168043299963  0.13238993454631037  1.0000
  C   C30       1.0  0.577951589907414  0.014961389722877501  0.13538491567170746  1.0000
  C   C31       1.0  0.6479730663267702  0.11616652478627999  0.2160425949083447  1.0000
  C   C32       1.0  0.7582006977972708  0.10966108858147547  0.2886433762014704  1.0000
  C   C33       1.0  0.46280646938075887  0.015832921370758896  0.05237399354953709  1.0000
  C   C34       1.0  0.7550249312377203  0.4652500653993669  0.40889897035067696  1.0000
  C   C35       1.0  0.9022649104883412  0.46050034216116836  0.3553424680570245  1.0000
  C   C36       1.0  0.9776199758500396  0.5797267337367557  0.3930103596792236  1.0000
  C   C37       1.0  0.8698353945144814  0.6591011216154428  0.3701216049949494  1.0000
  C   C38       1.0  0.9260226321136288  0.7835792712839121  0.4176239621875765  1.0000
  C   C39       1.0  0.7663646833480867  0.7039927280340591  0.7923606935715455  1.0000
  C   C40       1.0  0.8773818710261307  0.7784278999686975  0.8677447515627819  1.0000
  C   C41       1.0  0.9222330269054593  0.8793678770655545  0.864725987984805  1.0000
  C   C42       1.0  0.8521784229940508  0.8999667849021976  0.7841208338445896  1.0000
  C   C43       1.0  0.7419799630082192  0.8208526671042476  0.711497168246936  1.0000
  C   C44       1.0  0.03733136623255719  0.9632747296620964  0.9477093743441715  1.0000
  N   N1        1.0  0.19824136239631673  0.9904731173322787  0.715242944819302  1.0000
  N   N2        1.0  0.30150722113345546  0.27540561369197286  0.2846243280366281  1.0000
  N   N3        1.0  0.80175992698544  0.009527754898115843  0.28475973536184535  1.0000
  N   N4        1.0  0.6984892960171293  0.7245942516327374  0.7153738968102772  1.0000
  O   O1        1.0  0.25163587188831826  0.960653156049531  0.5039977220654279  1.0000
  O   O2        1.0  0.1453014237701993  0.9619927935231656  0.35490247502738737  1.0000
  O   O3        1.0  0.39318544424442337  0.5268740863895971  0.36222235751656473  1.0000
  O   O4        1.0  0.49697813756731785  0.6810641961658844  0.5096039782952816  1.0000
  O   O5        1.0  0.2483899426488064  0.4566341985542265  0.4959684610961972  1.0000
  O   O6        1.0  0.3546311006759026  0.6072171058030091  0.6449765845826505  1.0000
  O   O7        1.0  0.10689722771458318  0.1648163478119286  0.6378744931072546  1.0000
  O   O8        1.0  0.0030316657144596  0.1714675344622093  0.4904639477745931  1.0000
  O   O9        1.0  0.7483572903945869  0.039342765389441946  0.49599826002931013  1.0000
  O   O10       1.0  0.8546926464605844  0.038009158767145834  0.6450952703080404  1.0000
  O   O11       1.0  0.606808810434401  0.4731295588871374  0.637781406330717  1.0000
  O   O12       1.0  0.5030205356991857  0.3189400587028359  0.4903960782935783  1.0000
  O   O13       1.0  0.7516112763700987  0.5433655780507818  0.5040313899862099  1.0000
  O   O14       1.0  0.6453620160553939  0.39278439471355137  0.3550250200987648  1.0000
  O   O15       1.0  0.8931065693911788  0.8351798470344105  0.36212691842973754  1.0000
  O   O16       1.0  0.9969663828848281  0.8285299912434849  0.509539679067487  1.0000
