data_image0
_chemical_formula_structural       Cu4H28C28I4N4O8
_chemical_formula_sum              "Cu4 H28 C28 I4 N4 O8"
_cell_length_a       4.025312545518276
_cell_length_b       13.58300033962036
_cell_length_c       15.797868499449889
_cell_angle_alpha    90.00094381759706
_cell_angle_beta     89.93213527669538
_cell_angle_gamma    90.000599736577

_space_group_name_H-M_alt    "P 1"
_space_group_IT_number       1

loop_
  _space_group_symop_operation_xyz
  'x, y, z'

loop_
  _atom_site_type_symbol
  _atom_site_label
  _atom_site_symmetry_multiplicity
  _atom_site_fract_x
  _atom_site_fract_y
  _atom_site_fract_z
  _atom_site_occupancy
  Cu  Cu1       1.0  0.1666338850073572  0.028690136259534402  0.9332389630277833  1.0000
  Cu  Cu2       1.0  0.1666525854998113  0.4713083423086814  0.4332383419968552  1.0000
  Cu  Cu3       1.0  0.8333878437254824  0.9713101843277485  0.0667541238449303  1.0000
  Cu  Cu4       1.0  0.833369191390986  0.5286838799144178  0.5667541119283329  1.0000
  H   H1        1.0  0.9609642656773331  0.222342039308785  0.9859794253001439  1.0000
  H   H2        1.0  0.9609734011783999  0.2776518548141667  0.48597992096884474  1.0000
  H   H3        1.0  0.039109188509591795  0.7776649073468319  0.014019600345925204  1.0000
  H   H4        1.0  0.039025779704232384  0.7223285879739052  0.5140155933185043  1.0000
  H   H5        1.0  0.5508088673250099  0.36771213523264384  0.7668946444596687  1.0000
  H   H6        1.0  0.5508382259078886  0.1322842711305299  0.26688692319677904  1.0000
  H   H7        1.0  0.44916460650994583  0.6322948113434066  0.2331121464887289  1.0000
  H   H8        1.0  0.4491990817244585  0.8677064786078574  0.7330973724694516  1.0000
  H   H9        1.0  0.7834998042676418  0.23153185133685386  0.6787361379734166  1.0000
  H   H10       1.0  0.7835511804942213  0.2684687011160278  0.1787322732580634  1.0000
  H   H11       1.0  0.21649845947083426  0.7684802487857781  0.3212714014747108  1.0000
  H   H12       1.0  0.21648774174377647  0.7315330919524782  0.8212634260924148  1.0000
  H   H13       1.0  0.6552463644573479  0.45241771567857825  0.04574743665948231  1.0000
  H   H14       1.0  0.6552243248896729  0.04758423947276211  0.5457356371309245  1.0000
  H   H15       1.0  0.3448358655821123  0.5475781879249694  0.9542668245406675  1.0000
  H   H16       1.0  0.34482248343027067  0.9524146086949232  0.4542544008455637  1.0000
  H   H17       1.0  0.32510319197336196  0.0337966259444187  0.769174247108481  1.0000
  H   H18       1.0  0.325116455925766  0.4661998576758323  0.26917732991797294  1.0000
  H   H19       1.0  0.6748833288047394  0.9662095843573013  0.23082437402877795  1.0000
  H   H20       1.0  0.6748277435117557  0.5338092974278794  0.7308223605497661  1.0000
  H   H21       1.0  0.9344706716528464  0.0175576700300226  0.7193709734337832  1.0000
  H   H22       1.0  0.9344864576401691  0.48244047107630195  0.21938125343880444  1.0000
  H   H23       1.0  0.06551088158008869  0.9824529575499312  0.2806276246194202  1.0000
  H   H24       1.0  0.06544454968322813  0.5175539598184643  0.7806285054086787  1.0000
  H   H25       1.0  0.2262107614260529  0.09954536777720337  0.6738819305629208  1.0000
  H   H26       1.0  0.2262213331566869  0.4004489341236805  0.17388917029057893  1.0000
  H   H27       1.0  0.7737936289662954  0.9004571614191264  0.32611044253255284  1.0000
  H   H28       1.0  0.7737501398923924  0.599559484815664  0.8261112801935513  1.0000
  C   C1        1.0  0.9158781068213387  0.2268439886887421  0.9180831882353504  1.0000
  C   C2        1.0  0.9158920521278447  0.2731535835615517  0.4180836449945177  1.0000
  C   C3        1.0  0.08413267240580072  0.7731585406547552  0.08192314314963063  1.0000
  C   C4        1.0  0.08409953273079651  0.7268445283778107  0.5819137334179985  1.0000
  C   C5        1.0  0.7454432226197127  0.30650177553096825  0.8832955038151056  1.0000
  C   C6        1.0  0.7454602596063182  0.19349163634839783  0.3832828608116402  1.0000
  C   C7        1.0  0.2544983961742062  0.6934941277224452  0.11670544078749863  1.0000
  C   C8        1.0  0.25449035616865257  0.8065013218628322  0.6166978659074972  1.0000
  C   C9        1.0  0.6889393871437335  0.30759631473674887  0.7958378993500476  1.0000
  C   C10       1.0  0.688986288125136  0.1923996189187775  0.2958241141817268  1.0000
  C   C11       1.0  0.31103054006131003  0.692398116326281  0.20418280357260704  1.0000
  C   C12       1.0  0.3110452792788507  0.8076021741254776  0.7041702847135696  1.0000
  C   C13       1.0  0.815706488947754  0.2314729415206642  0.7472366158733337  1.0000
  C   C14       1.0  0.8157605924605846  0.2685224320712933  0.24722959903290592  1.0000
  C   C15       1.0  0.1842698066562392  0.7685259066583185  0.2527657563344832  1.0000
  C   C16       1.0  0.1842614743590758  0.7314771522585986  0.7527590575927263  1.0000
  C   C17       1.0  0.9888278462202461  0.15403856363805343  0.7858272839055263  1.0000
  C   C18       1.0  0.9888465870944504  0.34595884475820066  0.2858319201406445  1.0000
  C   C19       1.0  0.011182933032714  0.8459654381341795  0.2141790474896013  1.0000
  C   C20       1.0  0.0111491925357967  0.6540363224300024  0.7141756076335355  1.0000
  C   C21       1.0  0.6303765196646082  0.3894418180796179  0.9361963218699502  1.0000
  C   C22       1.0  0.6303860185155727  0.11055521974408583  0.436178082390498  1.0000
  C   C23       1.0  0.3696210192646348  0.6105526129903897  0.0638207108321467  1.0000
  C   C24       1.0  0.3696108240107349  0.8894568802393579  0.5638155218826171  1.0000
  C   C25       1.0  0.1283464677488482  0.0720430482957823  0.7342334147734207  1.0000
  C   C26       1.0  0.12836072940540078  0.4279580245707706  0.23423788070486046  1.0000
  C   C27       1.0  0.8716525687373746  0.9279661068710539  0.26576399838694453  1.0000
  C   C28       1.0  0.8716082597807285  0.5720474495071173  0.765762558201722  1.0000
  I   I1        1.0  0.6649060670945061  0.9072270620549078  0.9093315071211168  1.0000
  I   I2        1.0  0.6648840737776426  0.5927636407201363  0.4093268073986422  1.0000
  I   I3        1.0  0.3351446943035938  0.09275779817683373  0.09067184459951251  1.0000
  I   I4        1.0  0.3351071247458605  0.40723815234023425  0.5906756341729746  1.0000
  N   N1        1.0  0.031806602868826396  0.15136471672568064  0.8712501628129703  1.0000
  N   N2        1.0  0.031817986044117716  0.3486306503550125  0.3712548012153221  1.0000
  N   N3        1.0  0.9681951103574562  0.8486289779188425  0.12874473023123303  1.0000
  N   N4        1.0  0.9681789529013897  0.6513711426149981  0.6287375372033355  1.0000
  O   O1        1.0  0.7367363914171392  0.3892363629615616  0.0153294981450145  1.0000
  O   O2        1.0  0.7367069703152679  0.11075788613201347  0.5153140929070972  1.0000
  O   O3        1.0  0.26327156570531673  0.6107551232054647  0.9846812518486276  1.0000
  O   O4        1.0  0.26328724330620895  0.8892431706503744  0.48468139840780833  1.0000
  O   O5        1.0  0.44816801623321123  0.45517781811816604  0.906010964297167  1.0000
  O   O6        1.0  0.4481509993583046  0.04480922337358351  0.4059834755591113  1.0000
  O   O7        1.0  0.5518395547606545  0.544829128599737  0.09400484893674842  1.0000
  O   O8        1.0  0.5518137464980697  0.9551844711742633  0.5940074467760541  1.0000
