data_image0
_chemical_formula_structural       Ba2H32C24N16O16
_chemical_formula_sum              "Ba2 H32 C24 N16 O16"
_cell_length_a       9.083708768963326
_cell_length_b       10.359568761969362
_cell_length_c       11.682923594323743
_cell_angle_alpha    102.55886738295958
_cell_angle_beta     95.4628340386025
_cell_angle_gamma    105.2637348968532

_space_group_name_H-M_alt    "P 1"
_space_group_IT_number       1

loop_
  _space_group_symop_operation_xyz
  'x, y, z'

loop_
  _atom_site_type_symbol
  _atom_site_label
  _atom_site_symmetry_multiplicity
  _atom_site_fract_x
  _atom_site_fract_y
  _atom_site_fract_z
  _atom_site_occupancy
  Ba  Ba1       1.0  0.7512271565045906  0.5098017064835079  0.0004578636293999494  1.0000
  Ba  Ba2       1.0  0.24877366735644565  0.49019759554416015  0.9995417425690079  1.0000
  H   H1        1.0  0.4226373799496628  0.4651381583342271  0.3618190958339794  1.0000
  H   H2        1.0  0.5773616662015401  0.5348590734179839  0.638180000273053  1.0000
  H   H3        1.0  0.3585640478114342  0.31002108755497204  0.2457542186511859  1.0000
  H   H4        1.0  0.6414342331108999  0.6899771875341474  0.7542458699790017  1.0000
  H   H5        1.0  0.5045172126427603  0.9327005833789603  0.2741508466515797  1.0000
  H   H6        1.0  0.4954861366576395  0.0672997110612528  0.7258457014758619  1.0000
  H   H7        1.0  0.5652362582216454  0.7123862824966668  0.27278773049463473  1.0000
  H   H8        1.0  0.43476710274498487  0.2876140349608818  0.7272105347256003  1.0000
  H   H9        1.0  0.7538350912452854  0.7007931245832283  0.43785446473075496  1.0000
  H   H10       1.0  0.24616497321999015  0.29920723229001567  0.5621469925372153  1.0000
  H   H11       1.0  0.8282308870356657  0.1343913053874601  0.5971808894929893  1.0000
  H   H12       1.0  0.17176439793592385  0.8656079740998807  0.4028174545959046  1.0000
  H   H13       1.0  0.22525658962020154  0.8065777604772038  0.8435050535419109  1.0000
  H   H14       1.0  0.7747459294865778  0.19342674624929407  0.15649820174260043  1.0000
  H   H15       1.0  0.12105551387966784  0.6615493783917828  0.7256438793371133  1.0000
  H   H16       1.0  0.8789492126165327  0.3384551212387096  0.2743586788262391  1.0000
  H   H17       1.0  0.6223817439806751  0.186881563096378  0.9102458308140626  1.0000
  H   H18       1.0  0.3776176435529237  0.813116714199069  0.089754338528742  1.0000
  H   H19       1.0  0.48282812755128657  0.21050601173239164  0.9749359728678398  1.0000
  H   H20       1.0  0.5171730318590306  0.7894943243298443  0.025063848019954094  1.0000
  H   H21       1.0  0.8723866053836531  0.33132542380370483  0.7809161061790277  1.0000
  H   H22       1.0  0.1276137771315717  0.6686759325780898  0.21908299013912114  1.0000
  H   H23       1.0  0.7284004689836364  0.3298503333717023  0.6958224357745522  1.0000
  H   H24       1.0  0.2716010201428531  0.670151025216427  0.30417674125621375  1.0000
  H   H25       1.0  0.9532230070169874  0.7880102862190415  0.2496709119215694  1.0000
  H   H26       1.0  0.0467770457820649  0.2119900476368599  0.7503288282535933  1.0000
  H   H27       1.0  0.8689252658494767  0.6316160440896612  0.25593491031568055  1.0000
  H   H28       1.0  0.13107589356084054  0.3683842919725749  0.7440649105721134  1.0000
  H   H29       1.0  0.7696368619327743  0.7929588849379883  0.9784871407100937  1.0000
  H   H30       1.0  0.23036243147051752  0.20704250376348915  0.021514450534631618  1.0000
  H   H31       1.0  0.7717334493407576  0.8838288250972826  0.10563825564153012  1.0000
  H   H32       1.0  0.22826406635270757  0.11617049332873822  0.8943628255118128  1.0000
  C   C1        1.0  0.5714441187580874  0.45844633189510386  0.22852156518575842  1.0000
  C   C2        1.0  0.42855460934317346  0.5415499003485638  0.7714798918710954  1.0000
  C   C3        1.0  0.4609004893597302  0.38673430875235953  0.3025270880766229  1.0000
  C   C4        1.0  0.5390981037794375  0.6132649543366357  0.6974697810573431  1.0000
  C   C5        1.0  0.6266143329488544  0.17539608603384957  0.4327433343568572  1.0000
  C   C6        1.0  0.3733839479734797  0.8246021890552627  0.5672567542733304  1.0000
  C   C7        1.0  0.6633742815913167  0.047078894590598  0.4349512254320516  1.0000
  C   C8        1.0  0.336624329047183  0.9529204030244146  0.5650482193411152  1.0000
  C   C9        1.0  0.5893983102114363  0.9274588169406999  0.34402890964863525  1.0000
  C   C10       1.0  0.41060283753265747  0.0725414961041935  0.6559691941463583  1.0000
  C   C11       1.0  0.6224994338126352  0.8039075099261128  0.34462208700924185  1.0000
  C   C12       1.0  0.3775013900484013  0.19609179210155506  0.6553775191891731  1.0000
  C   C13       1.0  0.7281595717097246  0.7974825509044268  0.4363266924285085  1.0000
  C   C14       1.0  0.2718415877005995  0.20251778515780935  0.5636731284592855  1.0000
  C   C15       1.0  0.8025857688515643  0.9167593303123595  0.5276921140063067  1.0000
  C   C16       1.0  0.19741318316933132  0.08324101284588893  0.4723084040026393  1.0000
  C   C17       1.0  0.7704490577623773  0.041576069240285604  0.5267459024312872  1.0000
  C   C18       1.0  0.22955098920355974  0.9584242531069408  0.4732529791974756  1.0000
  C   C19       1.0  0.915120616995999  0.910986780188061  0.6227146894180676  1.0000
  C   C20       1.0  0.08487944163616132  0.08901356517651493  0.37728590930350236  1.0000
  C   C21       1.0  0.11009500204620078  0.7500316971571904  0.7918788524227337  1.0000
  C   C22       1.0  0.8899082881225695  0.24997177774108076  0.20812426888501528  1.0000
  C   C23       1.0  0.9987940851668924  0.698655425318755  0.874837364368517  1.0000
  C   C24       1.0  0.0012069859462258306  0.30134803365817936  0.1251647369675837  1.0000
  N   N1        1.0  0.5412027988385333  0.19094347361310332  0.3391720336247204  1.0000
  N   N2        1.0  0.45879548208380083  0.809054801476016  0.6608280550054673  1.0000
  N   N3        1.0  0.5348190018423152  0.31948094629004953  0.37702907747181774  1.0000
  N   N4        1.0  0.46517927324690317  0.6805173172903949  0.6229701526119698  1.0000
  N   N5        1.0  0.6119864608632283  0.3834550417050552  0.48608486377446514  1.0000
  N   N6        1.0  0.3880140216154118  0.6165432147793839  0.5139136691881703  1.0000
  N   N7        1.0  0.6704341043091732  0.2930679520745514  0.5230508648967884  1.0000
  N   N8        1.0  0.32956671371874785  0.7069313384444484  0.47694788275522626  1.0000
  N   N9        1.0  0.9453848053033481  0.79443772514788  0.6361344498860291  1.0000
  N   N10       1.0  0.0546159360935974  0.20556471130316825  0.36386829530709264  1.0000
  N   N11       1.0  0.05458506977469576  0.840317015554895  0.7313215056695057  1.0000
  N   N12       1.0  0.9454164310180105  0.1596843660505698  0.2686793884540677  1.0000
  N   N13       1.0  0.09119566580108078  0.9760929269062545  0.7769985706842064  1.0000
  N   N14       1.0  0.9088039514852682  0.023909472812441407  0.2230015181570906  1.0000
  N   N15       1.0  0.0047092074838773  0.022774679294549603  0.7089247843660758  1.0000
  N   N16       1.0  0.9952916163771588  0.977224622733118  0.29107482183233907  1.0000
  O   O1        1.0  0.7152064760188638  0.4843718183273253  0.2599624051634706  1.0000
  O   O2        1.0  0.2847922345830582  0.5156243793903245  0.7400364762541827  1.0000
  O   O3        1.0  0.5074430706904778  0.49023192579274183  0.14107751060322468  1.0000
  O   O4        1.0  0.4925552043987409  0.5097663377877029  0.8589217194805556  1.0000
  O   O5        1.0  0.03993543169031712  0.6230266908305496  0.9356843139831881  1.0000
  O   O6        1.0  0.9600652922072965  0.376975711094481  0.06431585557074022  1.0000
  O   O7        1.0  0.8749079942966203  0.7327729791988774  0.8750495295163673  1.0000
  O   O8        1.0  0.12509529003903452  0.26723048419071926  0.12495273324498872  1.0000
  O   O9        1.0  0.5979772535464889  0.23138589162258688  0.9854074805467334  1.0000
  O   O10       1.0  0.402022793419448  0.7686144307246465  0.014591401082036324  1.0000
  O   O11       1.0  0.7650175832463689  0.3384961186053347  0.7803164925255076  1.0000
  O   O12       1.0  0.2349846711089896  0.6615041966458861  0.21968169198211027  1.0000
  O   O13       1.0  0.945373399165277  0.6887844526038763  0.21822915693996245  1.0000
  O   O14       1.0  0.05462776024504024  0.3112158834583598  0.7817706639478245  1.0000
  O   O15       1.0  0.7087554971810873  0.8002956013715875  0.044562373997123914  1.0000
  O   O16       1.0  0.29124244819196576  0.19970163968296362  0.9554374999436845  1.0000
