data_image0
_chemical_formula_structural       Hg2H20C24I4N8
_chemical_formula_sum              "Hg2 H20 C24 I4 N8"
_cell_length_a       6.852960021494325
_cell_length_b       7.850331163836099
_cell_length_c       15.030824195109142
_cell_angle_alpha    97.04426523614816
_cell_angle_beta     90.00140984782948
_cell_angle_gamma    89.9996144301357

_space_group_name_H-M_alt    "P 1"
_space_group_IT_number       1

loop_
  _space_group_symop_operation_xyz
  'x, y, z'

loop_
  _atom_site_type_symbol
  _atom_site_label
  _atom_site_symmetry_multiplicity
  _atom_site_fract_x
  _atom_site_fract_y
  _atom_site_fract_z
  _atom_site_occupancy
  Hg  Hg1       1.0  0.5038536281193514  0.24997700826921232  0.7500150583307813  1.0000
  Hg  Hg2       1.0  0.496143379595722  0.7500301001942303  0.24999094031041116  1.0000
  H   H1        1.0  0.2874995268375713  0.38484955392621606  0.9426269069692095  1.0000
  H   H2        1.0  0.287517331488516  0.1151574973211353  0.5574180867209577  1.0000
  H   H3        1.0  0.7124799700375846  0.6151782522890415  0.05737595628384182  1.0000
  H   H4        1.0  0.7124884325013241  0.88483690741851  0.4426195826094457  1.0000
  H   H5        1.0  0.9862509252169501  0.35318935842861526  0.033080242740219  1.0000
  H   H6        1.0  0.9863134442283865  0.1468591897248359  0.4669549653801113  1.0000
  H   H7        1.0  0.013708142308196596  0.6468220710330073  0.9669127653310596  1.0000
  H   H8        1.0  0.013736096200965199  0.8531509207273159  0.5330752091944078  1.0000
  H   H9        1.0  0.8246480844019217  0.922770777982123  0.8394161848605747  1.0000
  H   H10       1.0  0.8246310939578549  0.5772472420613538  0.6605951572195251  1.0000
  H   H11       1.0  0.17535767859240542  0.07719797264792311  0.16058299964456066  1.0000
  H   H12       1.0  0.1753308917159515  0.42277737368981155  0.3393888397164417  1.0000
  H   H13       1.0  0.1347670668733443  0.9720300179242471  0.7570070586028592  1.0000
  H   H14       1.0  0.1347462926402727  0.5279883565983565  0.7430308073649385  1.0000
  H   H15       1.0  0.8652664216496646  0.02796528167419149  0.2430053910672854  1.0000
  H   H16       1.0  0.8652259080563454  0.4720715557805732  0.25697375226027214  1.0000
  H   H17       1.0  0.6768718296119829  0.21109117017487486  0.0544573746257839  1.0000
  H   H18       1.0  0.6769380169042378  0.2889408616266778  0.4455320273461183  1.0000
  H   H19       1.0  0.3231135034103757  0.7889209186443721  0.9455170505685189  1.0000
  H   H20       1.0  0.32310860405203806  0.7110526013997929  0.5544596595337978  1.0000
  C   C1        1.0  0.1805425828242093  0.2845428424979062  0.921905309612498  1.0000
  C   C2        1.0  0.1805448202352693  0.2154564193929787  0.57811666462905  1.0000
  C   C3        1.0  0.8194369141071078  0.7154567074804917  0.0780961404409126  1.0000
  C   C4        1.0  0.8194507283074088  0.7845262827483879  0.4218882040155876  1.0000
  C   C5        1.0  0.0124327470536656  0.266801591589264  0.9717228730653673  1.0000
  C   C6        1.0  0.012487511710844496  0.23319833841172505  0.5282980034930347  1.0000
  C   C7        1.0  0.9875321577777497  0.7331952269583794  0.028283033858080796  1.0000
  C   C8        1.0  0.9875634874185906  0.7667829625595386  0.4717100894340263  1.0000
  C   C9        1.0  0.8793453510392909  0.1361625510782574  0.9425589166536027  1.0000
  C   C10       1.0  0.8794008689939404  0.3638041427189195  0.5574369220782813  1.0000
  C   C11       1.0  0.12062830909025019  0.8638381644639921  0.05744594616826498  1.0000
  C   C12       1.0  0.1206486701738712  0.6361409315588845  0.44254055861543407  1.0000
  C   C13       1.0  0.9239592760458705  0.0262065168905607  0.8641604267490095  1.0000
  C   C14       1.0  0.9239542524274071  0.47379333579753075  0.63583899735098  1.0000
  C   C15       1.0  0.0760508645558602  0.973795623183058  0.13584054859302339  1.0000
  C   C16       1.0  0.0760237843718912  0.5261855755378948  0.3641276638792945  1.0000
  C   C17       1.0  0.0952196643030305  0.05360156419079232  0.8185643507308811  1.0000
  C   C18       1.0  0.09524074019352469  0.44639667125782984  0.6814592898159475  1.0000
  C   C19       1.0  0.9047948540747655  0.9464055677870393  0.1814409843229612  1.0000
  C   C20       1.0  0.9047694002121601  0.5535980280467996  0.3185338186345916  1.0000
  C   C21       1.0  0.702877143282997  0.11863810187180951  0.9945343433283468  1.0000
  C   C22       1.0  0.7029252407262305  0.38138524181709244  0.5054790645157112  1.0000
  C   C23       1.0  0.2970863023301503  0.8813830523526677  0.005474684613638199  1.0000
  C   C24       1.0  0.29709511432889  0.6186157562340853  0.49451783440170516  1.0000
  I   I1        1.0  0.603330531806769  0.5506303207958965  0.8446211302018797  1.0000
  I   I2        1.0  0.6033311511065733  0.9493502521132413  0.655381078582856  1.0000
  I   I3        1.0  0.3966591794910385  0.44937716448922765  0.15537424953559759  1.0000
  I   I4        1.0  0.3966454272858329  0.05066222511211999  0.3446186607746782  1.0000
  N   N1        1.0  0.2206986414726586  0.1808618543657872  0.8464430718416125  1.0000
  N   N2        1.0  0.22073652366510288  0.31911652094417786  0.6535831223609777  1.0000
  N   N3        1.0  0.7792910700535385  0.8191427817064819  0.15356008323782078  1.0000
  N   N4        1.0  0.7792955054247129  0.6808534187340811  0.3464188114017333  1.0000
  N   N5        1.0  0.5785826762322228  0.9974369427052708  0.9708233429939099  1.0000
  N   N6        1.0  0.5785631771316629  0.5025578719758315  0.5291789811107819  1.0000
  N   N7        1.0  0.4214172499195143  0.002563772782942  0.0291815199655829  1.0000
  N   N8        1.0  0.421411941825852  0.4974305286332878  0.4708103367429004  1.0000
