data_image0
_chemical_formula_structural       Zn2H36C44N6O10
_chemical_formula_sum              "Zn2 H36 C44 N6 O10"
_cell_length_a       8.682046347721874
_cell_length_b       10.769592274838262
_cell_length_c       12.450292164628996
_cell_angle_alpha    113.64092337384234
_cell_angle_beta     92.5444512495394
_cell_angle_gamma    112.30797645922937

_space_group_name_H-M_alt    "P 1"
_space_group_IT_number       1

loop_
  _space_group_symop_operation_xyz
  'x, y, z'

loop_
  _atom_site_type_symbol
  _atom_site_label
  _atom_site_symmetry_multiplicity
  _atom_site_fract_x
  _atom_site_fract_y
  _atom_site_fract_z
  _atom_site_occupancy
  Zn  Zn1       1.0  0.5137537065493304  0.4016534814266066  0.7238272236919698  1.0000
  Zn  Zn2       1.0  0.4862469974705875  0.5983466177864615  0.2761723190473618  1.0000
  H   H1        1.0  0.20267341231090796  0.39615413673194405  0.41473878038365797  1.0000
  H   H2        1.0  0.7973255309470346  0.603847076737786  0.5852618980401374  1.0000
  H   H3        1.0  0.9798932313428707  0.5592656430828596  0.7116186113593487  1.0000
  H   H4        1.0  0.020108573446208255  0.44073669764095763  0.288382558777613  1.0000
  H   H5        1.0  0.947280716826356  0.8113517802790255  0.7878560181746012  1.0000
  H   H6        1.0  0.05271938839884881  0.18864944308408846  0.21214389938600678  1.0000
  H   H7        1.0  0.8101609483331202  0.9310400447552495  0.1294830033016581  1.0000
  H   H8        1.0  0.18983915689208433  0.06896117860787142  0.8705169142589497  1.0000
  H   H9        1.0  0.43829621809132396  0.3334997877893003  0.4152295929009995  1.0000
  H   H10       1.0  0.5617061940177807  0.6665014376431769  0.5847704025875301  1.0000
  H   H11       1.0  0.4313743709822263  0.20281318693064074  0.1976931917836211  1.0000
  H   H12       1.0  0.568625769865136  0.7971857782390046  0.802306736997636  1.0000
  H   H13       1.0  0.5565603777186255  0.0207828285151805  0.12300325920192279  1.0000
  H   H14       1.0  0.44343805503954314  0.9792150104350553  0.8769962168301361  1.0000
  H   H15       1.0  0.6934489854527897  0.9616733822478523  0.2659285795387873  1.0000
  H   H16       1.0  0.3065477392161852  0.038323330482981505  0.7340704437440735  1.0000
  H   H17       1.0  0.9086853085712647  0.14334711249117763  0.7338348238371921  1.0000
  H   H18       1.0  0.09131427762885379  0.8566507274937437  0.26616469115882785  1.0000
  H   H19       1.0  0.9613460673062878  0.21264398147157246  0.9504561557349405  1.0000
  H   H20       1.0  0.03865288447696705  0.7873572408568634  0.049543722861699335  1.0000
  H   H21       1.0  0.8230449728735323  0.36604611525709163  0.084329191835586  1.0000
  H   H22       1.0  0.1769551323516723  0.6339551081060222  0.9156707257250147  1.0000
  H   H23       1.0  0.6349222454577018  0.4380040190906342  0.9886731499737847  1.0000
  H   H24       1.0  0.365077868292822  0.5619972131311854  0.011325967759667375  1.0000
  H   H25       1.0  0.7108978010162305  0.9061904084474861  0.4211284391614782  1.0000
  H   H26       1.0  0.28910348474776276  0.0938085488981386  0.5788723284108883  1.0000
  H   H27       1.0  0.7513225787907558  0.9685445507417682  0.5775691094546148  1.0000
  H   H28       1.0  0.24867810817853098  0.03145553075389529  0.42243203293902803  1.0000
  H   H29       1.0  0.04739731749176459  0.1604207510531026  0.5977434928888101  1.0000
  H   H30       1.0  0.9526044787719953  0.8395815808120021  0.402258477075307  1.0000
  H   H31       1.0  0.9987162016041683  0.10153780628872511  0.44127868914666374  1.0000
  H   H32       1.0  0.0012833404484805856  0.8984622830309658  0.5587216144558623  1.0000
  H   H33       1.0  0.24453426757555968  0.36392844373006733  0.7857662246600654  1.0000
  H   H34       1.0  0.7554664279190393  0.6360716466243018  0.21423411790642896  1.0000
  H   H35       1.0  0.3307308370982369  0.3160823523139412  0.8743618875560202  1.0000
  H   H36       1.0  0.6692704215689176  0.6839188720838577  0.12563806896854152  1.0000
  C   C1        1.0  0.20910612728362563  0.44520505294774887  0.6493951768293866  1.0000
  C   C2        1.0  0.790893986466898  0.5547961792740708  0.3506039409040582  1.0000
  C   C3        1.0  0.10319661768892276  0.474475910632009  0.5716998079942783  1.0000
  C   C4        1.0  0.896804640978232  0.5255253137657903  0.42830014853029036  1.0000
  C   C5        1.0  0.1127549843737725  0.4404175572158239  0.45178039493210065  1.0000
  C   C6        1.0  0.8872468289406258  0.5595847923666994  0.5482199753776982  1.0000
  C   C7        1.0  0.9892076236176524  0.534320668405435  0.6189559192564146  1.0000
  C   C8        1.0  0.010794189696745992  0.4656816811770879  0.381044451053384  1.0000
  C   C9        1.0  0.7197042711696611  0.7001040539745559  0.9073101416883418  1.0000
  C   C10       1.0  0.28029638017746095  0.2998982857145763  0.09269098948465172  1.0000
  C   C11       1.0  0.8628549424000553  0.8559623587331089  0.9537746655711244  1.0000
  C   C12       1.0  0.13714459112728147  0.1440377217278694  0.04622643785855022  1.0000
  C   C13       1.0  0.9706608916665261  0.8945973443870657  0.8804449784294093  1.0000
  C   C14       1.0  0.029338650386122787  0.1054027449326256  0.119555325173117  1.0000
  C   C15       1.0  0.8936191950686734  0.9627756615432475  0.07323183923091402  1.0000
  C   C16       1.0  0.10638090163121922  0.0372255529611607  0.9267688781568493  1.0000
  C   C17       1.0  0.5734223417337321  0.22291308890951458  0.462906568557905  1.0000
  C   C18       1.0  0.42657779911362337  0.7770858762601306  0.5370933602233521  1.0000
  C   C19       1.0  0.49304916151287864  0.2532780569908795  0.3828323735157966  1.0000
  C   C20       1.0  0.5069509878597956  0.7467209170374716  0.6171667554382978  1.0000
  C   C21       1.0  0.49042907375658734  0.1793299541222808  0.2614259454895276  1.0000
  C   C22       1.0  0.509569913648818  0.8206690100126793  0.7385739443277615  1.0000
  C   C23       1.0  0.5626234460353958  0.0763686694398231  0.21912144322629956  1.0000
  C   C24       1.0  0.43737498672277286  0.9236291695104126  0.7808780328057522  1.0000
  C   C25       1.0  0.6410904756363751  0.04378073770449481  0.29743213857693007  1.0000
  C   C26       1.0  0.3589062405072881  0.9562159661676335  0.7025676845330865  1.0000
  C   C27       1.0  0.646346676235851  0.1200848096366158  0.419277209821928  1.0000
  C   C28       1.0  0.3536517479970059  0.8799130204549145  0.5807230660372795  1.0000
  C   C29       1.0  0.6850858557016154  0.21122933845575176  0.6179328423576749  1.0000
  C   C30       1.0  0.31491368635103356  0.7887707508639323  0.3820674612448514  1.0000
  C   C31       1.0  0.7352219099489831  0.24756829350291557  0.744411721605232  1.0000
  C   C32       1.0  0.2647804936348025  0.7524329230708632  0.25558907371045353  1.0000
  C   C33       1.0  0.8452726067062247  0.20483715761531576  0.7906057007824996  1.0000
  C   C34       1.0  0.15472637217386875  0.7951617976609384  0.20939498886194496  1.0000
  C   C35       1.0  0.8770923602648042  0.24619823537022975  0.9135448188369253  1.0000
  C   C36       1.0  0.12290833522979483  0.7538018549841398  0.0864555237295691  1.0000
  C   C37       1.0  0.8011822395376884  0.32969418162460323  0.9875059389858478  1.0000
  C   C38       1.0  0.1988184730075416  0.6703059264471704  0.012492803926328134  1.0000
  C   C39       1.0  0.6967784927332586  0.37178162424842737  0.9352362003968366  1.0000
  C   C40       1.0  0.30322161249194585  0.6282195991146864  0.06476371716377122  1.0000
  C   C41       1.0  0.782544232885144  0.005351306968620399  0.5077806452759148  1.0000
  C   C42       1.0  0.21745646260945495  0.9946487833857489  0.49221969729057247  1.0000
  C   C43       1.0  0.9724994163727773  0.0626314453047527  0.510850617782708  1.0000
  C   C44       1.0  0.02750127059650252  0.937368636190911  0.4891505246109348  1.0000
  N   N1        1.0  0.5982403432893263  0.27614351875837434  0.5866109838596927  1.0000
  N   N2        1.0  0.40176091537782815  0.7238577056394249  0.41338897266487623  1.0000
  N   N3        1.0  0.7141478574742379  0.11361319436097968  0.5189105815353514  1.0000
  N   N4        1.0  0.2858522748478051  0.8863857619499598  0.48109014707306136  1.0000
  N   N5        1.0  0.664648859007201  0.3320365053300094  0.8172375151500191  1.0000
  N   N6        1.0  0.33535240818526546  0.6679647279264954  0.1827616415473869  1.0000
  O   O1        1.0  0.33171481097414807  0.41402159084921664  0.6125518867391264  1.0000
  O   O2        1.0  0.6682858845204508  0.5859784995051527  0.38744845582736087  1.0000
  O   O3        1.0  0.1661206354999507  0.4490553345121527  0.7468100291113942  1.0000
  O   O4        1.0  0.8338772069888237  0.5509436374468352  0.2531890219147783  1.0000
  O   O5        1.0  0.6861369020904605  0.616321561388908  0.7928885548391947  1.0000
  O   O6        1.0  0.313863186084113  0.38367964425679446  0.20711296237571733  1.0000
  O   O7        1.0  0.6420224000153567  0.6595708804169148  0.9790189273138806  1.0000
  O   O8        1.0  0.3579788416011668  0.3404303262634727  0.020982628864999235  1.0000
  O   O9        1.0  0.3103623860362674  0.30349796364048837  0.7904652741921012  1.0000
  O   O10       1.0  0.6896377191889373  0.6965032597226257  0.20953464336850675  1.0000
