data_image0
_chemical_formula_structural       Cu4H28C28Br4N4
_chemical_formula_sum              "Cu4 H28 C28 Br4 N4"
_cell_length_a       8.78123675565706
_cell_length_b       9.42036797447087
_cell_length_c       9.737462378245683
_cell_angle_alpha    91.99272855267235
_cell_angle_beta     104.80444386523314
_cell_angle_gamma    90.35993851776475

_space_group_name_H-M_alt    "P 1"
_space_group_IT_number       1

loop_
  _space_group_symop_operation_xyz
  'x, y, z'

loop_
  _atom_site_type_symbol
  _atom_site_label
  _atom_site_symmetry_multiplicity
  _atom_site_fract_x
  _atom_site_fract_y
  _atom_site_fract_z
  _atom_site_occupancy
  Cu  Cu1       1.0  0.9099754578112138  0.5733272491212562  0.8492483245386779  1.0000
  Cu  Cu2       1.0  0.0900269836130931  0.426671663334311  0.15074905200354038  1.0000
  Cu  Cu3       1.0  0.9220166063933204  0.9256721807521658  0.6130696698125462  1.0000
  Cu  Cu4       1.0  0.07798231155535967  0.07432888307248932  0.38693310832709926  1.0000
  H   H1        1.0  0.0495557990732465  0.8241855960874035  0.8614043850719213  1.0000
  H   H2        1.0  0.9504465849857339  0.17581120832070954  0.1385970231081116  1.0000
  H   H3        1.0  0.9424901832407784  0.1350191269054833  0.7965786964061294  1.0000
  H   H4        1.0  0.05750988389744549  0.8649808822397633  0.2034263731281811  1.0000
  H   H5        1.0  0.1379660306635557  0.058333085908998314  0.807489547293265  1.0000
  H   H6        1.0  0.8620363965934458  0.9416658389529505  0.19251090723771105  1.0000
  H   H7        1.0  0.7164646442876189  0.08665104954052791  0.8165135613866139  1.0000
  H   H8        1.0  0.28353771581113574  0.9133446967083929  0.1834888366160712  1.0000
  H   H9        1.0  0.4508693528701854  0.020101687515889904  0.8438939676734732  1.0000
  H   H10       1.0  0.5491318725543906  0.9798961798425486  0.15610720110439757  1.0000
  H   H11       1.0  0.40376446833484175  0.768019276168282  0.9081596630820811  1.0000
  H   H12       1.0  0.596232016570184  0.2319764609526801  0.0918382790530501  1.0000
  H   H13       1.0  0.6220316511277418  0.5957008446133544  0.9291739692607379  1.0000
  H   H14       1.0  0.3779672472350838  0.4042980780801744  0.07082463254670296  1.0000
  H   H15       1.0  0.0532953161056682  0.6768899350909409  0.6734609721469551  1.0000
  H   H16       1.0  0.9467023996625201  0.32310899239373475  0.32653838008098285  1.0000
  H   H17       1.0  0.9318992373806906  0.3653814523594365  0.6742018544913435  1.0000
  H   H18       1.0  0.0680961658411121  0.6346195968904385  0.3257959929360155  1.0000
  H   H19       1.0  0.12679502299596382  0.4416995081459023  0.7679228998858105  1.0000
  H   H20       1.0  0.8732014764244342  0.5582972954051615  0.2320761044191713  1.0000
  H   H21       1.0  0.742886491579057  0.40287399407908  0.5013558687371499  1.0000
  H   H22       1.0  0.25710887823765194  0.5971260052825259  0.49864502050536413  1.0000
  H   H23       1.0  0.5008657156579162  0.4608534151204255  0.3179124024637757  1.0000
  H   H24       1.0  0.4991320915768185  0.5391508279729393  0.6820881566283885  1.0000
  H   H25       1.0  0.4419187270390878  0.7169633067330782  0.26420905957949253  1.0000
  H   H26       1.0  0.5580802773056491  0.28304199799925567  0.7357918112620324  1.0000
  H   H27       1.0  0.6335111560380469  0.9036774098739004  0.3992128258769014  1.0000
  H   H28       1.0  0.3664913100426119  0.09632471841381123  0.600791841159868  1.0000
  C   C1        1.0  0.8070825504767924  0.8747612399184632  0.8501695312989168  1.0000
  C   C2        1.0  0.1929197903841597  0.12523344403581407  0.1498328305301726  1.0000
  C   C3        1.0  0.9630807984151346  0.9076077800528002  0.8303137466872456  1.0000
  C   C4        1.0  0.0369228114365114  0.09239114001800174  0.1696859574232334  1.0000
  C   C5        1.0  0.013109810724380095  0.039992580292100406  0.7985193482877904  1.0000
  C   C6        1.0  0.9868902898189446  0.9600084787414221  0.2014826794313578  1.0000
  C   C7        1.0  0.689890433719853  0.9780760845040392  0.8387397196068419  1.0000
  C   C8        1.0  0.3101131234889039  0.021920723383843203  0.1612629901451967  1.0000
  C   C9        1.0  0.5429781497137682  0.9412643393301396  0.8556192665572978  1.0000
  C   C10       1.0  0.4570242485125108  0.05873245267159181  0.144379063633977  1.0000
  C   C11       1.0  0.5157270107165175  0.8021847800364985  0.8903225054310795  1.0000
  C   C12       1.0  0.4842706905363059  0.1978130810180758  0.10967578462700799  1.0000
  C   C13       1.0  0.6362474610806643  0.7055091368600233  0.9018180903614237  1.0000
  C   C14       1.0  0.36375138463926504  0.29448767365059336  0.09818351708758398  1.0000
  C   C15       1.0  0.8179989135020449  0.6221919404281098  0.5476624396523135  1.0000
  C   C16       1.0  0.1819989028294913  0.3778112155578628  0.45233192728874627  1.0000
  C   C17       1.0  0.963861111320135  0.5923286062227788  0.6549764149611831  1.0000
  C   C18       1.0  0.0361390371436414  0.4076745691291139  0.3450236331126532  1.0000
  C   C19       1.0  0.005143055803998203  0.4600207939477487  0.7106974613772363  1.0000
  C   C20       1.0  0.9948558617966228  0.5399791910404305  0.28930117660380006  1.0000
  C   C21       1.0  0.7149537558684996  0.5131057630587534  0.47670356547484954  1.0000
  C   C22       1.0  0.2850416136001428  0.48689315746637635  0.5232931836090555  1.0000
  C   C23       1.0  0.5802645516950803  0.545524508281055  0.3735023707321261  1.0000
  C   C24       1.0  0.41973325046915017  0.454478660111292  0.6264950741976917  1.0000
  C   C25       1.0  0.5478028746380871  0.6876063112962997  0.3433606989880075  1.0000
  C   C26       1.0  0.4521973315390824  0.3124000509395374  0.6566394576066159  1.0000
  C   C27       1.0  0.6532662364452335  0.790920429351232  0.41754979653866536  1.0000
  C   C28       1.0  0.34673508009782233  0.20908167477941939  0.5824484389448301  1.0000
  Br  Br1       1.0  0.8114107039274573  0.37208086123906275  0.9559434733083519  1.0000
  Br  Br2       1.0  0.1885905211490595  0.6279159272828992  0.044053555310910014  1.0000
  Br  Br3       1.0  0.8142156859600718  0.12613560231726245  0.4657081963315193  1.0000
  Br  Br4       1.0  0.1857904001332571  0.8738707649110753  0.5342953901344103  1.0000
  N   N1        1.0  0.7777273260187414  0.737987818354391  0.8788470552668597  1.0000
  N   N2        1.0  0.2222726975733949  0.2620089915005438  0.12115482775789839  1.0000
  N   N3        1.0  0.7865090354826447  0.7607646566956633  0.5163854751924004  1.0000
  N   N4        1.0  0.21349227598991397  0.23923637273396992  0.48360964612874113  1.0000
