data_image0
_chemical_formula_structural       Mg6H54C42N6O30
_chemical_formula_sum              "Mg6 H54 C42 N6 O30"
_cell_length_a       8.062235400001267
_cell_length_b       14.008217754922795
_cell_length_c       14.008205273018145
_cell_angle_alpha    120.0001475851375
_cell_angle_beta     89.99994851037705
_cell_angle_gamma    89.99999236971614

_space_group_name_H-M_alt    "P 1"
_space_group_IT_number       1

loop_
  _space_group_symop_operation_xyz
  'x, y, z'

loop_
  _atom_site_type_symbol
  _atom_site_label
  _atom_site_symmetry_multiplicity
  _atom_site_fract_x
  _atom_site_fract_y
  _atom_site_fract_z
  _atom_site_occupancy
  Mg  Mg1       1.0  0.6019501217031049  0.220674058892989  0.9844984031243909  1.0000
  Mg  Mg2       1.0  0.6019507311590216  0.015500474998248099  0.2361769385477928  1.0000
  Mg  Mg3       1.0  0.6019502215185992  0.7638249018301692  0.7793246844844715  1.0000
  Mg  Mg4       1.0  0.39805079330476895  0.77932459782091  0.01550038983003794  1.0000
  Mg  Mg5       1.0  0.39805018384718227  0.9845014789295448  0.7638235030179884  1.0000
  Mg  Mg6       1.0  0.39804945313709783  0.23617540349222568  0.22067564664405376  1.0000
  H   H1        1.0  0.8656301937047599  0.04525642275898889  0.8812990753394202  1.0000
  H   H2        1.0  0.8656270265542927  0.11870298983741631  0.16395869281031136  1.0000
  H   H3        1.0  0.8656275666831447  0.8360398456348647  0.9547412515965374  1.0000
  H   H4        1.0  0.13437320200314667  0.9547430582603696  0.1187015575028454  1.0000
  H   H5        1.0  0.13437140775063477  0.8813006126953409  0.8360411453261488  1.0000
  H   H6        1.0  0.13436838692297928  0.16395716247193085  0.045256003186082666  1.0000
  H   H7        1.0  0.05944694188443119  0.0731293297743818  0.7430414021589297  1.0000
  H   H8        1.0  0.05944724486140269  0.25696046821998664  0.3300881165809031  1.0000
  H   H9        1.0  0.059444250133971394  0.6699141244151505  0.9268710284686603  1.0000
  H   H10       1.0  0.9405539731205151  0.9268717998537639  0.2569607688578939  1.0000
  H   H11       1.0  0.940556150846646  0.7430398371015767  0.6699122145462437  1.0000
  H   H12       1.0  0.94055542452201  0.3300878295116476  0.07312869922962048  1.0000
  H   H13       1.0  0.5346304849799492  0.5527673366592794  0.4238399906895083  1.0000
  H   H14       1.0  0.5346344345173718  0.5761588736055998  0.1289254919782862  1.0000
  H   H15       1.0  0.5346329116199866  0.8710727051286682  0.4472319549638114  1.0000
  H   H16       1.0  0.46536422827400503  0.4472313200560052  0.5761588022672086  1.0000
  H   H17       1.0  0.46536896119081916  0.42384225601816183  0.871074537433742  1.0000
  H   H18       1.0  0.4653655226851967  0.12892595158832879  0.5527682657274511  1.0000
  H   H19       1.0  0.8029604950826722  0.045223685487258115  0.5430224026821833  1.0000
  H   H20       1.0  0.802961721201683  0.4569784922426336  0.502202801403932  1.0000
  H   H21       1.0  0.8029626023100035  0.49779794699004754  0.9547757250756204  1.0000
  H   H22       1.0  0.19703917957288297  0.9547757955329385  0.4569782301614607  1.0000
  H   H23       1.0  0.19703919380604157  0.5430193401690601  0.4977962932656154  1.0000
  H   H24       1.0  0.19703955304796486  0.5022031826327193  0.045223590468907594  1.0000
  H   H25       1.0  0.8307429896946273  0.11224387539379417  0.6898704395858102  1.0000
  H   H26       1.0  0.8307456578068438  0.3101312836482464  0.422374889684896  1.0000
  H   H27       1.0  0.8307452630833722  0.5776241226728941  0.8877551569137835  1.0000
  H   H28       1.0  0.16925544460916334  0.8877564299314287  0.31013131927908677  1.0000
  H   H29       1.0  0.1692577379024485  0.6898665487628929  0.5776242049837348  1.0000
  H   H30       1.0  0.16925689227542756  0.4223753583429257  0.11224333432506474  1.0000
  H   H31       1.0  0.6906701288807537  0.9992495857129453  0.6224903709417686  1.0000
  H   H32       1.0  0.6906703912386474  0.3775105638367577  0.3767611351072232  1.0000
  H   H33       1.0  0.6906706583172804  0.6232394851216299  0.0007504538241533149  1.0000
  H   H34       1.0  0.3093295457742399  0.0007498953085303  0.3775109757698373  1.0000
  H   H35       1.0  0.3093317641198609  0.6224872685746589  0.6232379595618622  1.0000
  H   H36       1.0  0.3093290163393902  0.3767599958960232  0.9992487512835663  1.0000
  H   H37       1.0  0.8862649285122116  0.8468306865462834  0.4357690083117374  1.0000
  H   H38       1.0  0.8862637392452439  0.5642316374500425  0.411062200011983  1.0000
  H   H39       1.0  0.8862664192734043  0.5889363547075703  0.1531679807865487  1.0000
  H   H40       1.0  0.11373474614195085  0.15317044308213917  0.5642331627055484  1.0000
  H   H41       1.0  0.11373593541016189  0.43576701926795647  0.5889387345467795  1.0000
  H   H42       1.0  0.11373201503303679  0.41106312630908803  0.846830510453671  1.0000
  H   H43       1.0  0.06275879398646819  0.8105962683152016  0.4900081270089344  1.0000
  H   H44       1.0  0.06275896049551478  0.5099925406226332  0.32058920785479467  1.0000
  H   H45       1.0  0.06276152498477217  0.6794095997867088  0.1894023557471484  1.0000
  H   H46       1.0  0.9372408806681063  0.1894040370097443  0.509993631855508  1.0000
  H   H47       1.0  0.9372407141592088  0.49000858900451044  0.6794122492945289  1.0000
  H   H48       1.0  0.9372381496713371  0.3205898812322161  0.8105975632285405  1.0000
  H   H49       1.0  0.856706063959251  0.7935619389506811  0.5263658626494845  1.0000
  H   H50       1.0  0.8567063029707142  0.4736347463387316  0.26719641019613477  1.0000
  H   H51       1.0  0.8567088021925854  0.7328028376180667  0.20643950281502296  1.0000
  H   H52       1.0  0.14329361069588487  0.20643836637299268  0.473635182347003  1.0000
  H   H53       1.0  0.14329337168442177  0.526365558984942  0.7328046348003452  1.0000
  H   H54       1.0  0.143290872463524  0.26719664340085814  0.7935604161606591  1.0000
  C   C1        1.0  0.7503208999161116  0.9959099057225842  0.8512247589840881  1.0000
  C   C2        1.0  0.7503178276375947  0.14877601813034147  0.14468609949091868  1.0000
  C   C3        1.0  0.7503178585079978  0.8553128463588067  0.004087767595336756  1.0000
  C   C4        1.0  0.24968373614299816  0.0040887509930272  0.1487754617048793  1.0000
  C   C5        1.0  0.24968184701894805  0.8512259357951777  0.8553129143394002  1.0000
  C   C6        1.0  0.24967809509827524  0.14468498605018706  0.9959091854721575  1.0000
  C   C7        1.0  0.5443013590009825  0.7733576064404771  0.5722230954359658  1.0000
  C   C8        1.0  0.5443016886000221  0.42777544001965134  0.2011320570224554  1.0000
  C   C9        1.0  0.5443053480050961  0.7988658624254299  0.22664298831237054  1.0000
  C   C10       1.0  0.45569583495328897  0.2266435231846771  0.42777693397835037  1.0000
  C   C11       1.0  0.4556967457058646  0.5722240409982788  0.7988671480857262  1.0000
  C   C12       1.0  0.45569804770295247  0.2011344428961337  0.7733573428147764  1.0000
  C   C13       1.0  0.06514382353316957  0.986727013163339  0.675345295961975  1.0000
  C   C14       1.0  0.0651441830724195  0.3246562959599828  0.3113826349786777  1.0000
  C   C15       1.0  0.06514189512943595  0.6886192195141518  0.013273817789958267  1.0000
  C   C16       1.0  0.9348570914721889  0.013273292161329697  0.3246564629020057  1.0000
  C   C17       1.0  0.9348579722846961  0.6753431850596527  0.6886179978640498  1.0000
  C   C18       1.0  0.9348590198774573  0.3113802615044889  0.9867261011852619  1.0000
  C   C19       1.0  0.5338973996920796  0.7177763032822496  0.448662073691217  1.0000
  C   C20       1.0  0.5338987994286697  0.551336895524308  0.26911503210569504  1.0000
  C   C21       1.0  0.5339000093535092  0.7308848927813401  0.2822220620999473  1.0000
  C   C22       1.0  0.46609855391152877  0.2822223534353084  0.551338147000962  1.0000
  C   C23       1.0  0.4661021155776622  0.4486625854956116  0.7308856007374941  1.0000
  C   C24       1.0  0.46610090565199863  0.2691162368455267  0.7177793950489145  1.0000
  C   C25       1.0  0.5330130929071544  0.6028148072811347  0.3843230487060651  1.0000
  C   C26       1.0  0.5330119810680359  0.6156761070431358  0.21849039205517332  1.0000
  C   C27       1.0  0.5330143031206446  0.7815071778572076  0.3971843003822569  1.0000
  C   C28       1.0  0.4669865817485358  0.3971854980412671  0.6156772824224602  1.0000
  C   C29       1.0  0.46698521288553246  0.3843241982810923  0.7815106529422307  1.0000
  C   C30       1.0  0.4669816504831131  0.21849230316254883  0.6028156185948033  1.0000
  C   C31       1.0  0.8093581697417419  0.032977970200064995  0.6145590114839833  1.0000
  C   C32       1.0  0.8093595242324908  0.3854420524800517  0.418420481859755  1.0000
  C   C33       1.0  0.809360312653318  0.5815800977333367  0.967021428719917  1.0000
  C   C34       1.0  0.19064150491339393  0.967022335123609  0.3854420335124971  1.0000
  C   C35       1.0  0.19064139077426026  0.6145566042363909  0.581579738830591  1.0000
  C   C36       1.0  0.19064184270450815  0.4184202075872321  0.03297818853972964  1.0000
  C   C37       1.0  0.9373177105800108  0.8454764740003069  0.5076857690293435  1.0000
  C   C38       1.0  0.9373178833612739  0.4923152028592027  0.33779145608109207  1.0000
  C   C39       1.0  0.9373180079085228  0.6622086160888047  0.1545241593998981  1.0000
  C   C40       1.0  0.06268072372336769  0.1545246556283928  0.49231640198839693  1.0000
  C   C41       1.0  0.06268179129386198  0.5076851024644711  0.6622095889153881  1.0000
  C   C42       1.0  0.06268042639695179  0.3377916892325956  0.8454754578611199  1.0000
  N   N1        1.0  0.9442325808413938  0.9575504870619653  0.6005577637597098  1.0000
  N   N2        1.0  0.944232834359937  0.3994435189390302  0.3569934468196791  1.0000
  N   N3        1.0  0.9442342938637721  0.6430054579889202  0.04244975410572486  1.0000
  N   N4        1.0  0.05576585346198469  0.042450642566734594  0.39944440725803076  1.0000
  N   N5        1.0  0.05576808064695629  0.6005559620796176  0.643006472155541  1.0000
  N   N6        1.0  0.055764140441141294  0.35699484733375897  0.9575505770232622  1.0000
  O   O1        1.0  0.6161820210450911  0.049997010961860204  0.8629058950907548  1.0000
  O   O2        1.0  0.6161788198210089  0.13709328117150926  0.18709075910273748  1.0000
  O   O3        1.0  0.6161793864535737  0.8129074853988669  0.9500003902661688  1.0000
  O   O4        1.0  0.3838226150140116  0.9500016457537509  0.1370943255982125  1.0000
  O   O5        1.0  0.38382085483650735  0.862907848449268  0.812907128706783  1.0000
  O   O6        1.0  0.3838165671525501  0.1870895227079288  0.049996864516451495  1.0000
  O   O7        1.0  0.7616949607704837  0.8933863514330083  0.8095536492001398  1.0000
  O   O8        1.0  0.761693127688957  0.1904452347374388  0.08383292283969718  1.0000
  O   O9        1.0  0.7616930283758591  0.9161655277763429  0.10661050323683688  1.0000
  O   O10       1.0  0.23830719458858596  0.10661148097713641  0.19044473160098355  1.0000
  O   O11       1.0  0.23830778731934285  0.8095558948830615  0.9161649649693684  1.0000
  O   O12       1.0  0.23830416558148215  0.08383395323676981  0.8933858463999655  1.0000
  O   O13       1.0  0.4193645101467211  0.09962063849331315  0.7139339648276816  1.0000
  O   O14       1.0  0.4193659867996472  0.2860682649582671  0.3856879045189031  1.0000
  O   O15       1.0  0.4193667869629677  0.6143147766912093  0.9003811340141465  1.0000
  O   O16       1.0  0.5806339241580502  0.900378842527168  0.2860666680164172  1.0000
  O   O17       1.0  0.5806336878557801  0.7139336889698099  0.6143125370473397  1.0000
  O   O18       1.0  0.5806316473426418  0.3856863529323887  0.09961818153175261  1.0000
  O   O19       1.0  0.5197473213783255  0.8766716910673578  0.6256949330635989  1.0000
  O   O20       1.0  0.5197489117710885  0.3743046644205206  0.25097529334843915  1.0000
  O   O21       1.0  0.5197526907918685  0.7490217456228834  0.12332824331483755  1.0000
  O   O22       1.0  0.48025111292589867  0.1233310871644662  0.37430592065594226  1.0000
  O   O23       1.0  0.48025324358867744  0.6256939922905502  0.7490220718696106  1.0000
  O   O24       1.0  0.48025194526681486  0.25097773539619783  0.8766723895269664  1.0000
  O   O25       1.0  0.17738813792642819  0.9227173998030552  0.6710684092721733  1.0000
  O   O26       1.0  0.17738977361039326  0.32893182250652586  0.2516487802925765  1.0000
  O   O27       1.0  0.17738738246943334  0.748354055074813  0.07728413291825824  1.0000
  O   O28       1.0  0.8226115367292692  0.0772829055193469  0.3289319218563448  1.0000
  O   O29       1.0  0.8226123817468718  0.6710684828153146  0.748351550835032  1.0000
  O   O30       1.0  0.8226122921864059  0.2516470745497869  0.9227158964951412  1.0000
