data_image0
_chemical_formula_structural       H36Pb4C52N12O8
_chemical_formula_sum              "H36 Pb4 C52 N12 O8"
_cell_length_a       8.498025629
_cell_length_b       11.16701135812315
_cell_length_c       13.6449
_cell_angle_alpha    111.58678940084225
_cell_angle_beta     90.0
_cell_angle_gamma    90.0

_space_group_name_H-M_alt    "P 1"
_space_group_IT_number       1

loop_
  _space_group_symop_operation_xyz
  'x, y, z'

loop_
  _atom_site_type_symbol
  _atom_site_label
  _atom_site_symmetry_multiplicity
  _atom_site_fract_x
  _atom_site_fract_y
  _atom_site_fract_z
  _atom_site_occupancy
  H   H1        1.0  0.1181180245649713  0.9059106727017934  0.3217777370765944  1.0000
  H   H2        1.0  0.6181176933703938  0.09408815864775023  0.17822169118230852  1.0000
  H   H3        1.0  0.8818789595580299  0.09409008473008382  0.6782215382479819  1.0000
  H   H4        1.0  0.3818792907526074  0.9059106727017934  0.8217799357002562  1.0000
  H   H5        1.0  0.3674971265493241  0.5586775137761606  0.2930723231548953  1.0000
  H   H6        1.0  0.8674909116351373  0.44132420669687633  0.2069279750143451  1.0000
  H   H7        1.0  0.632509271525052  0.44132709582036983  0.7069288449246899  1.0000
  H   H8        1.0  0.1325096027196295  0.558671735529181  0.7930720490833211  1.0000
  H   H9        1.0  0.2256088747787857  0.4485768697003465  0.11875490332347742  1.0000
  H   H10       1.0  0.7255991296328403  0.5514238877315307  0.3812429062519911  1.0000
  H   H11       1.0  0.7744010535273489  0.5514258138138572  0.8812449519413265  1.0000
  H   H12       1.0  0.2744013847219264  0.4485739805768603  0.6187554991622406  1.0000
  H   H13       1.0  0.0543938110074151  0.5840006811744233  0.05137389695606488  1.0000
  H   H14       1.0  0.5543887728371573  0.4159971871339607  0.44862524133272075  1.0000
  H   H15       1.0  0.9456102335791172  0.4159981501751276  0.9486255313028309  1.0000
  H   H16       1.0  0.4456082112858511  0.5840035702979166  0.5513747668664096  1.0000
  H   H17       1.0  0.214070900632727  0.12979772499601694  0.6031043372867515  1.0000
  H   H18       1.0  0.7140705694381495  0.8702030324358603  0.8968920065396092  1.0000
  H   H19       1.0  0.785928436978125  0.8702068846005133  0.396893899294625  1.0000
  H   H20       1.0  0.2859287681727025  0.1297938728313568  0.1031061089045053  1.0000
  H   H21       1.0  0.5910478762101619  0.1901466995163403  0.9515936019065594  1.0000
  H   H22       1.0  0.0910470306608175  0.8098492427097173  0.5484020249437834  1.0000
  H   H23       1.0  0.4089514614006831  0.8098502057508767  0.048403047788454515  1.0000
  H   H24       1.0  0.9089523069500276  0.1901495886398337  0.4515981361896735  1.0000
  H   H25       1.0  0.4660812020245757  0.4066113879529993  0.02440218712597189  1.0000
  H   H26       1.0  0.9660808708300053  0.593384554273058  0.4755963712225864  1.0000
  H   H27       1.0  0.5339204890741132  0.5933874433965514  0.975597241132924  1.0000
  H   H28       1.0  0.0339196435247686  0.4066133140353259  0.5244042328153071  1.0000
  H   H29       1.0  0.2788812488294283  0.47623155975581005  0.9133739994649801  1.0000
  H   H30       1.0  0.7788856246105382  0.5237672715937336  0.5866283602921386  1.0000
  H   H31       1.0  0.7211180887814166  0.5237711237583867  0.08662878729803945  1.0000
  H   H32       1.0  0.2211172432320723  0.4762305967146503  0.4133729766203089  1.0000
  H   H33       1.0  0.2161419699338012  0.32408453847489943  0.7323826038072099  1.0000
  H   H34       1.0  0.7161439922270674  0.6759171819981376  0.7676191601111455  1.0000
  H   H35       1.0  0.7838573676770437  0.6759191080804641  0.2676197400513729  1.0000
  H   H36       1.0  0.28385769887162143  0.32408261239257297  0.23238275674153644  1.0000
  Pb  Pb1       1.0  0.6008972228294951  0.8682037589801155  0.6026872905633739  1.0000
  Pb  Pb2       1.0  0.10089990751191642  0.13179603541059492  0.8973124276656393  1.0000
  Pb  Pb3       1.0  0.3990985845495843  0.1317969984517546  0.3973127176357565  1.0000
  Pb  Pb4       1.0  0.8991006068428504  0.8682037589801155  0.10268802343792771  1.0000
  C   C1        1.0  0.1493605756693128  0.805564672572622  0.278808039486087  1.0000
  C   C2        1.0  0.6493567142429697  0.1944341587769216  0.2211913887728159  1.0000
  C   C3        1.0  0.8506422921732979  0.19443704790041494  0.7211907929340456  1.0000
  C   C4        1.0  0.3506426233678752  0.8055637095314623  0.7788114138887394  1.0000
  C   C5        1.0  0.2551486774293394  0.7402521838948247  0.32038961565771734  1.0000
  C   C6        1.0  0.7551459927469253  0.2597476104958858  0.17960863682218794  1.0000
  C   C7        1.0  0.7448553671571858  0.2597533887428654  0.6796096437683232  1.0000
  C   C8        1.0  0.2448545216078415  0.7402512208536651  0.8203937229349237  1.0000
  C   C9        1.0  0.2846472940426565  0.61002590558099  0.2617802403803254  1.0000
  C   C10       1.0  0.7846422558723989  0.3899729257685607  0.2382169892549086  1.0000
  C   C11       1.0  0.7153579272877977  0.3899767779332138  0.7382181491353634  1.0000
  C   C12       1.0  0.21535825848236814  0.6100230164574968  0.7617830348427576  1.0000
  C   C13       1.0  0.2089920738693962  0.5503183164756535  0.1654595592164583  1.0000
  C   C14       1.0  0.7089835054673728  0.44968147791505697  0.334538693263454  1.0000
  C   C15       1.0  0.7910166776928165  0.44968340399738344  0.8345392732036814  1.0000
  C   C16       1.0  0.291017008887394  0.5503173534344867  0.665460002120895  1.0000
  C   C17       1.0  0.1108328029496448  0.6238262854561399  0.12839181447033354  1.0000
  C   C18       1.0  0.6108265880354651  0.3761715828522441  0.37160732381845213  1.0000
  C   C19       1.0  0.8891735951247242  0.3761735089345706  0.8716071708841255  1.0000
  C   C20       1.0  0.3891703960875432  0.6238262854561399  0.6283940130939955  1.0000
  C   C21       1.0  0.3369453241266527  0.804413838382061  0.4231082430210266  1.0000
  C   C22       1.0  0.8369449929320751  0.19558499296748982  0.07689118523786932  1.0000
  C   C23       1.0  0.6630540134841922  0.1955907712144693  0.5768921921840047  1.0000
  C   C24       1.0  0.16305316793484795  0.8044099862174009  0.9231100146387874  1.0000
  C   C25       1.0  0.3152791150519576  0.09274375318329223  0.6335945094483793  1.0000
  C   C26       1.0  0.8152787838573872  0.9072570042485851  0.8664033001270898  1.0000
  C   C27       1.0  0.6847213993028092  0.9072608564132381  0.3664051928820983  1.0000
  C   C28       1.0  0.1847182002656211  0.09274182710096572  0.13359539525725952  1.0000
  C   C29       1.0  0.3698682655502736  0.17293619088069792  0.736854128940273  1.0000
  C   C30       1.0  0.8698714645874619  0.8270645665511795  0.7631436806351958  1.0000
  C   C31       1.0  0.6301287185727349  0.8270674556746727  0.2631445505455332  1.0000
  C   C32       1.0  0.1301290497673051  0.1729342647983643  0.23685574762370723  1.0000
  C   C33       1.0  0.48257209133441853  0.1350048885678845  0.7992423381242021  1.0000
  C   C34       1.0  0.9825752903716066  0.8649929797404994  0.7007546015409218  1.0000
  C   C35       1.0  0.5174272462764336  0.8649949058228259  0.20075591435570325  1.0000
  C   C36       1.0  0.0174252239831674  0.1350048885678845  0.2992452696224177  1.0000
  C   C37       1.0  0.5099431549384406  0.22218226382526757  0.9043588650036867  1.0000
  C   C38       1.0  0.0099458396208618  0.7778156044831235  0.5956388075359982  1.0000
  C   C39       1.0  0.4900561826724045  0.77781753056545  0.09564012035077951  1.0000
  C   C40       1.0  0.9900570282217488  0.22218322686642722  0.4043613535974586  1.0000
  C   C41       1.0  0.43907963601176914  0.34192583907273644  0.9442493244376493  1.0000
  C   C42       1.0  0.9390804815611133  0.6580720292356476  0.5557512796002442  1.0000
  C   C43       1.0  0.5609208783429978  0.6580729922768072  0.0557515695703614  1.0000
  C   C44       1.0  0.0609200327936534  0.34192776515506307  0.44424990437787676  1.0000
  C   C45       1.0  0.3336622085868726  0.381365263847826  0.8822221333840832  1.0000
  C   C46       1.0  0.8336665843679826  0.6186306783782314  0.6177771578390293  1.0000
  C   C47       1.0  0.6663324220482849  0.6186326044605579  0.11777847065381053  1.0000
  C   C48       1.0  0.1663315764989406  0.38136815297131943  0.3822222704198737  1.0000
  C   C49       1.0  0.3003544719010662  0.2967563193739124  0.7808954684626459  1.0000
  C   C50       1.0  0.8003529639625668  0.703243475016798  0.7191027840172596  1.0000
  C   C51       1.0  0.6996460424537079  0.7032463641402913  0.21910438680215805  1.0000
  C   C52       1.0  0.1996428434165196  0.29675535633275274  0.2808973771161974  1.0000
  N   N1        1.0  0.08169309323225352  0.7489214804500365  0.18434885552882463  1.0000
  N   N2        1.0  0.5816892318059177  0.25107735089951433  0.3156513056046251  1.0000
  N   N3        1.0  0.9183085978664354  0.2510783139406811  0.8156508627001885  1.0000
  N   N4        1.0  0.4183089290610127  0.7489214804500365  0.6843488555288246  1.0000
  N   N5        1.0  0.2935575990129777  0.9261798000732001  0.4773182568482994  1.0000
  N   N6        1.0  0.793558444562322  0.0738199943175104  0.022679995631605696  1.0000
  N   N7        1.0  0.706442915341789  0.0738238464821634  0.5226811555120676  1.0000
  N   N8        1.0  0.2064408930485229  0.9261769109497139  0.9773203184361706  1.0000
  N   N9        1.0  0.36965527490055905  0.9804924325797516  0.5727503314849757  1.0000
  N   N10       1.0  0.8696549437059815  0.0195073618109589  0.9272479209949367  1.0000
  N   N11       1.0  0.6303440627102859  0.019512177016778803  0.4272486379709477  1.0000
  N   N12       1.0  0.1303420404170197  0.9804895434562582  0.07275312594740065  1.0000
  O   O1        1.0  0.439103170890192  0.7381103803468606  0.45068595291345304  1.0000
  O   O2        1.0  0.9391028396956145  0.26188845100268315  0.04931347534544983  1.0000
  O   O3        1.0  0.5608949899767381  0.2618942292496698  0.549315215166132  1.0000
  O   O4        1.0  0.0608941444273938  0.7381074912233744  0.9506865487522164  1.0000
  O   O5        1.0  0.5579778417964079  0.0258576552440886  0.7664772233355421  1.0000
  O   O6        1.0  0.057981703222751  0.9741402130642954  0.7335197163295818  1.0000
  O   O7        1.0  0.4420191423265933  0.9741411761054621  0.23352000629969183  1.0000
  O   O8        1.0  0.9420176343880938  0.025859581326415106  0.2664800018994313  1.0000
