data_image0
_chemical_formula_structural       Zn4H18C16N2O16
_chemical_formula_sum              "Zn4 H18 C16 N2 O16"
_cell_length_a       6.0837806255651685
_cell_length_b       7.39367199200933
_cell_length_c       12.240941077980157
_cell_angle_alpha    101.58443830907083
_cell_angle_beta     94.51451288980176
_cell_angle_gamma    96.31434938478723

_space_group_name_H-M_alt    "P 1"
_space_group_IT_number       1

loop_
  _space_group_symop_operation_xyz
  'x, y, z'

loop_
  _atom_site_type_symbol
  _atom_site_label
  _atom_site_symmetry_multiplicity
  _atom_site_fract_x
  _atom_site_fract_y
  _atom_site_fract_z
  _atom_site_occupancy
  Zn  Zn1       1.0  0.4276687019017515  0.6591211860810093  0.08852056855776883  1.0000
  Zn  Zn2       1.0  0.5723280429870528  0.3408760730106479  0.9114778525934142  1.0000
  Zn  Zn3       1.0  0.08569894268599403  0.4247672640942568  0.8231907034548342  1.0000
  Zn  Zn4       1.0  0.9142984296915204  0.5752341816561855  0.17680904917533272  1.0000
  H   H1        1.0  0.626823599293658  0.007327636701553801  0.1207707888441334  1.0000
  H   H2        1.0  0.373176454945245  0.9926696824988852  0.8792318530757797  1.0000
  H   H3        1.0  0.7445782500398935  0.8911652732274788  0.016587043853952817  1.0000
  H   H4        1.0  0.25541891590435023  0.1088347904456626  0.9834133559032879  1.0000
  H   H5        1.0  0.04904382556346583  0.7157009295159825  0.023025531123792617  1.0000
  H   H6        1.0  0.9509549858433174  0.28429911873129754  0.9769732970500867  1.0000
  H   H7        1.0  0.572366068312803  0.36116052647640373  0.1334805644757324  1.0000
  H   H8        1.0  0.4276321217469389  0.6388353654322714  0.8665193868643185  1.0000
  H   H9        1.0  0.902999005677337  0.8678857050752458  0.5359364138411848  1.0000
  H   H10       1.0  0.096996300182191  0.1321129515195736  0.46406293176629276  1.0000
  H   H11       1.0  0.2252932705888  0.6472622682922522  0.409826813502825  1.0000
  H   H12       1.0  0.7747049398051472  0.3527447664077101  0.5901752599093584  1.0000
  H   H13       1.0  0.13970218033924203  0.6627800137379012  0.6096266933127339  1.0000
  H   H14       1.0  0.8603013773996936  0.3372186870082743  0.3903746129585315  1.0000
  H   H15       1.0  0.002317544528054334  0.9660067301832174  0.7164967645194337  1.0000
  H   H16       1.0  0.9976827038607823  0.033991910454176405  0.2835003209831015  1.0000
  H   H17       1.0  0.7968784815087987  0.030630462909179805  0.8056489579575298  1.0000
  H   H18       1.0  0.20312548500223926  0.9693709817781268  0.194349417629482  1.0000
  C   C1        1.0  0.7309177038583385  0.8248220494130367  0.5470377558186144  1.0000
  C   C2        1.0  0.2690767822717319  0.17518215091683234  0.45296057286392966  1.0000
  C   C3        1.0  0.570888297143803  0.7584519412664579  0.45758493840838105  1.0000
  C   C4        1.0  0.4291111437989131  0.24155230374632453  0.5424160394595319  1.0000
  C   C5        1.0  0.3519636985341635  0.7031035172766097  0.4802528406276494  1.0000
  C   C6        1.0  0.6480326476806226  0.2969020901315816  0.5197465422046648  1.0000
  C   C7        1.0  0.3028844653742695  0.7137590798567857  0.5889348459143164  1.0000
  C   C8        1.0  0.6971178618158902  0.28624241057656974  0.41106755590121946  1.0000
  C   C9        1.0  0.4675106624135524  0.7868695805144982  0.6811694442646968  1.0000
  C   C10       1.0  0.5324924640338223  0.21312626511657135  0.3188257923252564  1.0000
  C   C11       1.0  0.6262789771341774  0.7378123630804511  0.33934094619348093  1.0000
  C   C12       1.0  0.37372830077418223  0.26218915182236197  0.6606624683773106  1.0000
  C   C13       1.0  0.8502827298474432  0.9132622988418151  0.7488692399047352  1.0000
  C   C14       1.0  0.1497193786261022  0.08673774887389382  0.2511288997475631  1.0000
  C   C15       1.0  0.9048861162351897  0.7629121459765714  0.8124388346685336  1.0000
  C   C16       1.0  0.09511722483435392  0.23708512215868185  0.1875590276545509  1.0000
  N   N1        1.0  0.6809863052758018  0.8414899508332498  0.6541723040045042  1.0000
  N   N2        1.0  0.3190164368281287  0.15851431386141718  0.3458296217719266  1.0000
  O   O1        1.0  0.8300331823140114  0.7242895932024427  0.3215528716605291  1.0000
  O   O2        1.0  0.16996893230120952  0.2757104848334393  0.6784477226369248  1.0000
  O   O3        1.0  0.6439066027705493  0.883398044720572  0.07583784860168662  1.0000
  O   O4        1.0  0.3560917937224702  0.11659922926538972  0.9241614556112907  1.0000
  O   O5        1.0  0.4653784179132927  0.7326271227646757  0.2664438456553597  1.0000
  O   O6        1.0  0.5346265809021346  0.2673701905850551  0.7335573543746676  1.0000
  O   O7        1.0  0.43749804151988775  0.8043249187223794  0.7840305412265849  1.0000
  O   O8        1.0  0.5625158224711342  0.19566551296636447  0.2159742835192304  1.0000
  O   O9        1.0  0.9245519890968624  0.803568586555727  0.9179135214693588  1.0000
  O   O10       1.0  0.07544661178220481  0.19643005940081082  0.0820843174014882  1.0000
  O   O11       1.0  0.9370779187133351  0.6077772238460355  0.7514855498901412  1.0000
  O   O12       1.0  0.06293057746045601  0.3922214407292517  0.2485118598460758  1.0000
  O   O13       1.0  0.11813227165774982  0.6943846720974066  0.09445291111737222  1.0000
  O   O14       1.0  0.8818667482295341  0.3056167683338913  0.905546088144483  1.0000
  O   O15       1.0  0.6227217523779202  0.45563366860405113  0.09058044517659881  1.0000
  O   O16       1.0  0.377276646162322  0.5443636154886421  0.9094196772514209  1.0000
