data_image0
_chemical_formula_structural       Cd2H32C38N8O10
_chemical_formula_sum              "Cd2 H32 C38 N8 O10"
_cell_length_a       8.453725323751177
_cell_length_b       10.203798853842324
_cell_length_c       12.540726953824764
_cell_angle_alpha    109.01109166257133
_cell_angle_beta     103.73250633271991
_cell_angle_gamma    98.64725561374237

_space_group_name_H-M_alt    "P 1"
_space_group_IT_number       1

loop_
  _space_group_symop_operation_xyz
  'x, y, z'

loop_
  _atom_site_type_symbol
  _atom_site_label
  _atom_site_symmetry_multiplicity
  _atom_site_fract_x
  _atom_site_fract_y
  _atom_site_fract_z
  _atom_site_occupancy
  Cd  Cd1       1.0  0.843226686722474  0.8807540882919653  0.29835856234841873  1.0000
  Cd  Cd2       1.0  0.1567772412666102  0.11924549767613261  0.7016401526559903  1.0000
  H   H1        1.0  0.1349164092904616  0.0936271287717361  0.4370204449824655  1.0000
  H   H2        1.0  0.8651021585780255  0.906361432269584  0.5629695610614431  1.0000
  H   H3        1.0  0.19010346373809028  0.9597555938235375  0.4470166720224639  1.0000
  H   H4        1.0  0.8098966881576785  0.040229289507316  0.5529820530189156  1.0000
  H   H5        1.0  0.13939835494630873  0.7003007128238182  0.9615597522052894  1.0000
  H   H6        1.0  0.8605962872213694  0.2997025356455651  0.03843063436123365  1.0000
  H   H7        1.0  0.42656990475913387  0.8980667790882392  0.2957589036986191  1.0000
  H   H8        1.0  0.573414061610066  0.10192373423144122  0.7042462477761476  1.0000
  H   H9        1.0  0.6005662159223918  0.5592856871051737  0.10319052460106093  1.0000
  H   H10       1.0  0.39943849101841516  0.44073587441861406  0.8967903393613382  1.0000
  H   H11       1.0  0.25473878870384675  0.46454472121715895  0.05693226578490134  1.0000
  H   H12       1.0  0.7452670229215459  0.5354673048870567  0.943030491762883  1.0000
  H   H13       1.0  0.12643818044315216  0.7456685842692394  0.2713921753312505  1.0000
  H   H14       1.0  0.8735423861258341  0.25430488928815725  0.7285925002635949  1.0000
  H   H15       1.0  0.05474837950659142  0.5730114369971558  0.16371750178694094  1.0000
  H   H16       1.0  0.9452460308575823  0.4269675972122542  0.8362551112469774  1.0000
  H   H17       1.0  0.9782346074613173  0.8020977456612642  0.7787391643137767  1.0000
  H   H18       1.0  0.0217455694031798  0.19790977779899072  0.22125275522380855  1.0000
  H   H19       1.0  0.7425591397406492  0.9139235396396685  0.7346427834757208  1.0000
  H   H20       1.0  0.2574359276184098  0.0861006256580836  0.2653630196119394  1.0000
  H   H21       1.0  0.568521269728379  0.9731809999452  0.8685611199226743  1.0000
  H   H22       1.0  0.4314598634983256  0.026813493822366807  0.13144061350431002  1.0000
  H   H23       1.0  0.6347863433530707  0.9321315780511771  0.05961128586393028  1.0000
  H   H24       1.0  0.3652031162923706  0.06786284393263027  0.9403891155541756  1.0000
  H   H25       1.0  0.8402235660332308  0.3609259940879356  0.3071471826139174  1.0000
  H   H26       1.0  0.15979220474859807  0.6390683327858825  0.6928678054798212  1.0000
  H   H27       1.0  0.7332072663404432  0.6933051680708716  0.573422171056869  1.0000
  H   H28       1.0  0.26680214963631954  0.3067000552940301  0.4265825933642446  1.0000
  H   H29       1.0  0.6400034736558808  0.5192427217819714  0.6594858946275649  1.0000
  H   H30       1.0  0.35997050936218494  0.48076296672364555  0.3405103776373082  1.0000
  H   H31       1.0  0.6450668816015366  0.26268506201370917  0.566208897161566  1.0000
  H   H32       1.0  0.3549410970845415  0.7373217231127429  0.43380404334387634  1.0000
  C   C1        1.0  0.42834151940267157  0.7950741426350518  0.23448508890718492  1.0000
  C   C2        1.0  0.571647857459496  0.20491936577204944  0.7655174821031069  1.0000
  C   C3        1.0  0.5112357529904373  0.6164815163153392  0.13235479366070987  1.0000
  C   C4        1.0  0.48876323338405575  0.38352568061065284  0.8676315020821406  1.0000
  C   C5        1.0  0.34141581581782526  0.5681846534607687  0.10948242440533558  1.0000
  C   C6        1.0  0.6585844972427709  0.4318251927119903  0.8904958826724682  1.0000
  C   C7        1.0  0.12129489499353241  0.6823935971862909  0.18094821272132577  1.0000
  C   C8        1.0  0.8786983023295748  0.3175880157431834  0.8190320481157443  1.0000
  C   C9        1.0  0.02429485535923701  0.7409009558708278  0.09881687702156229  1.0000
  C   C10       1.0  0.9756993781806075  0.2590959959823138  0.9011735580325391  1.0000
  C   C11       1.0  0.9303875853263079  0.7971825487950923  0.9412938224562096  1.0000
  C   C12       1.0  0.06961235144118663  0.20282963450270597  0.058704970538478604  1.0000
  C   C13       1.0  0.900612071553901  0.8249252681217385  0.8374043310606041  1.0000
  C   C14       1.0  0.0993891557493711  0.1750869787653784  0.162595444012112  1.0000
  C   C15       1.0  0.7683951817210327  0.88873882587707  0.8141486909636839  1.0000
  C   C16       1.0  0.23160073972466222  0.11128423097879651  0.1858561605166642  1.0000
  C   C17       1.0  0.6714760173842435  0.924696502150681  0.8917207093769405  1.0000
  C   C18       1.0  0.32852164005603157  0.07531921323636939  0.1082842210616946  1.0000
  C   C19       1.0  0.7048425581581199  0.9005950266328783  0.9969370351757263  1.0000
  C   C20       1.0  0.29515540327461315  0.0994131803142508  0.0030653508321734123  1.0000
  C   C21       1.0  0.8363069842221051  0.8357353029155025  0.021168157082478073  1.0000
  C   C22       1.0  0.1636944552806909  0.1642770990443054  0.9788340799567479  1.0000
  C   C23       1.0  0.760969721390886  0.14618243409181989  0.3830961220023426  1.0000
  C   C24       1.0  0.23904103694869858  0.8538186517761658  0.616942997015009  1.0000
  C   C25       1.0  0.7474475142560736  0.2969505024046128  0.43323308137140504  1.0000
  C   C26       1.0  0.25256015739709176  0.7030543521866195  0.5667825570074072  1.0000
  C   C27       1.0  0.7965166303810562  0.39514999668102757  0.38428315120470563  1.0000
  C   C28       1.0  0.20350616727407095  0.6048527719090516  0.6157323596071933  1.0000
  C   C29       1.0  0.7914589835258993  0.5379052618410325  0.43420416020912705  1.0000
  C   C30       1.0  0.2085644680664558  0.46209710512028584  0.5658049467812631  1.0000
  C   C31       1.0  0.7379498670501407  0.5823216592219042  0.5349188124138848  1.0000
  C   C32       1.0  0.2620519629494851  0.41767729951802585  0.4650866732707044  1.0000
  C   C33       1.0  0.6860803887808444  0.48433059106233856  0.5832401189139915  1.0000
  C   C34       1.0  0.31391396888668055  0.5156673310194648  0.41676574717216397  1.0000
  C   C35       1.0  0.6892923462250806  0.3418154223503578  0.5319366549126343  1.0000
  C   C36       1.0  0.3107162622980084  0.6581892373757013  0.46807586226668  1.0000
  C   C37       1.0  0.838384642410439  0.639364341390852  0.37664939071195386  1.0000
  C   C38       1.0  0.16162631538070127  0.36061623125386444  0.6233473170908042  1.0000
  N   N1        1.0  0.5629275386334811  0.7572595688798387  0.2095822277885303  1.0000
  N   N2        1.0  0.43706967931720436  0.2427455355008519  0.7904209224073995  1.0000
  N   N3        1.0  0.2906022167092103  0.6827802955912502  0.17490041434577822  1.0000
  N   N4        1.0  0.7093880933017758  0.3172198663073402  0.8250910727967237  1.0000
  N   N5        1.0  0.8995932033256369  0.8003306154680915  0.11827736224635998  1.0000
  N   N6        1.0  0.10040651820188629  0.19967197378186088  0.8817191222244388  1.0000
  N   N7        1.0  0.046922869955217515  0.7352085859794357  0.9929713491737218  1.0000
  N   N8        1.0  0.9530678885550119  0.2647936098361683  0.007019081406426219  1.0000
  O   O1        1.0  0.8189143947948239  0.10851898048302643  0.2955455838187646  1.0000
  O   O2        1.0  0.18111858479338847  0.8914627864840056  0.7045030205588744  1.0000
  O   O3        1.0  0.7150764742125234  0.058938253502695694  0.430256064648546  1.0000
  O   O4        1.0  0.2848874794076083  0.9410671946649531  0.5697700142071511  1.0000
  O   O5        1.0  0.854252238142969  0.592086116281365  0.2747742872098584  1.0000
  O   O6        1.0  0.14574076647291886  0.40788250674790305  0.7252164467495916  1.0000
  O   O7        1.0  0.8555550423025197  0.7742084071083042  0.43460381004583587  1.0000
  O   O8        1.0  0.1444578321403185  0.2257769520820005  0.5653854938405232  1.0000
  O   O9        1.0  0.1335392161054472  0.9949853307246529  0.3857659536501287  1.0000
  O   O10       1.0  0.8664814722852512  0.005000461692460984  0.6142300633598693  1.0000
