data_image0
_chemical_formula_structural       Cd2H60C56S4N4O12
_chemical_formula_sum              "Cd2 H60 C56 S4 N4 O12"
_cell_length_a       10.927764828999681
_cell_length_b       11.76995297195794
_cell_length_c       12.179941631502652
_cell_angle_alpha    118.90385803204434
_cell_angle_beta     94.5046379610422
_cell_angle_gamma    89.98406177381784

_space_group_name_H-M_alt    "P 1"
_space_group_IT_number       1

loop_
  _space_group_symop_operation_xyz
  'x, y, z'

loop_
  _atom_site_type_symbol
  _atom_site_label
  _atom_site_symmetry_multiplicity
  _atom_site_fract_x
  _atom_site_fract_y
  _atom_site_fract_z
  _atom_site_occupancy
  Cd  Cd1       1.0  0.7499989505278818  0.9523514412423779  3.6579848767739174e-05  1.0000
  Cd  Cd2       1.0  0.25000052082055646  0.04764936455762842  0.9999648427501882  1.0000
  H   H1        1.0  0.6218383936129966  0.803325462866468  0.7813430334136838  1.0000
  H   H2        1.0  0.8782255529640536  0.0221688113763392  0.21875866789777373  1.0000
  H   H3        1.0  0.37816382328246323  0.19667534765790862  0.21865774150218437  1.0000
  H   H4        1.0  0.1217765368811072  0.9778281269001353  0.7812411541981843  1.0000
  H   H5        1.0  0.5111088860787305  0.9060343243470258  0.8406083755497775  1.0000
  H   H6        1.0  0.9888358414364404  0.06560177597189212  0.1594030427795516  1.0000
  H   H7        1.0  0.4888924215140875  0.09396649328284211  0.1593931670055966  1.0000
  H   H8        1.0  0.0111645820016477  0.9344000070601195  0.8405988849070167  1.0000
  H   H9        1.0  0.8140487874756913  0.4805845505429006  0.5901391699115521  1.0000
  H   H10       1.0  0.685936558152157  0.8905192681295445  0.40988989304680956  1.0000
  H   H11       1.0  0.1859496625374604  0.5194142546263266  0.40985799201949646  1.0000
  H   H12       1.0  0.3140591891009805  0.10948051665281609  0.5901091892944519  1.0000
  H   H13       1.0  0.7568791339627124  0.26244578417101394  0.5515655009866691  1.0000
  H   H14       1.0  0.743021335057861  0.7109780822342061  0.4485983176940138  1.0000
  H   H15       1.0  0.24311752259306726  0.7375539935058486  0.44843281371508675  1.0000
  H   H16       1.0  0.2569744549822843  0.28902268688565863  0.5514020373743733  1.0000
  H   H17       1.0  0.1073387028513935  0.23925860556225584  0.725095344345817  1.0000
  H   H18       1.0  0.39264186880704693  0.514295391984831  0.27485795320158246  1.0000
  H   H19       1.0  0.892658947270327  0.7607440529195203  0.2749018828092176  1.0000
  H   H20       1.0  0.6073555536727113  0.48569956106240414  0.7251398511667874  1.0000
  H   H21       1.0  0.16888293546056588  0.4556816255357106  0.7581259126530852  1.0000
  H   H22       1.0  0.33113139908465433  0.6976794344545567  0.2417834100763159  1.0000
  H   H23       1.0  0.831115668061521  0.5443210909426809  0.24187468495103548  1.0000
  H   H24       1.0  0.6688642639051922  0.30231746241740615  0.758215992172161  1.0000
  H   H25       1.0  0.867808558677744  0.03501308972018791  0.5099076864591296  1.0000
  H   H26       1.0  0.6321202265813638  0.525394740206913  0.4902148631366926  1.0000
  H   H27       1.0  0.1321908447357742  0.9649857734456618  0.4900928459210049  1.0000
  H   H28       1.0  0.3678783681211756  0.4746079632510601  0.5097849068497098  1.0000
  H   H29       1.0  0.806460817519742  0.10015912335121162  0.6570222318399033  1.0000
  H   H30       1.0  0.6934942398770119  0.4432238975466519  0.3431077694370614  1.0000
  H   H31       1.0  0.19353867897661564  0.8998426407454475  0.34297880825074145  1.0000
  H   H32       1.0  0.3065043133492437  0.5567769023384203  0.6568935931836818  1.0000
  H   H33       1.0  0.9630076615678147  0.05815816960257792  0.6459395726994046  1.0000
  H   H34       1.0  0.5369492779748413  0.4123918454747298  0.3542095011568875  1.0000
  H   H35       1.0  0.03699186889600271  0.9418445658111663  0.35406191250064706  1.0000
  H   H36       1.0  0.46305106870877916  0.5876079819026999  0.6457907086931485  1.0000
  H   H37       1.0  0.9827719602544603  0.7620655659387978  0.6121156157901382  1.0000
  H   H38       1.0  0.5171909958126051  0.1501012804863038  0.38794422103610765  1.0000
  H   H39       1.0  0.0172321608202992  0.23793719904959693  0.3878861693009625  1.0000
  H   H40       1.0  0.48281020105828537  0.8498966101719032  0.6120551585733266  1.0000
  H   H41       1.0  0.8955211209018328  0.6126817225284641  0.5420510812244643  1.0000
  H   H42       1.0  0.604441434260572  0.0707421943483908  0.4579607586020201  1.0000
  H   H43       1.0  0.1044830592882988  0.38732297207366867  0.45795076646773936  1.0000
  H   H44       1.0  0.39555796915294644  0.9292566688174518  0.5420397737781144  1.0000
  H   H45       1.0  0.590693418154366  0.20505027590603214  0.09353855073066335  1.0000
  H   H46       1.0  0.9092472285566159  0.11144955520570929  0.9064793006907905  1.0000
  H   H47       1.0  0.40930427606507175  0.7949524476778506  0.9064628145129632  1.0000
  H   H48       1.0  0.0907503562516183  0.8885493221711229  0.09352276696835563  1.0000
  H   H49       1.0  0.5856428298840085  0.4161636099574224  0.10000728358184569  1.0000
  H   H50       1.0  0.914237321316591  0.3161217416829629  0.9000902511261798  1.0000
  H   H51       1.0  0.41436228606740844  0.583841116600489  0.8999962793240002  1.0000
  H   H52       1.0  0.08576381643892012  0.6838742193614991  0.09990906588215863  1.0000
  H   H53       1.0  0.5829596544267446  0.5826604663067556  0.09635969254605216  1.0000
  H   H54       1.0  0.9168829028302382  0.48618853954197766  0.9037447099480501  1.0000
  H   H55       1.0  0.4170462525965632  0.417340393918181  0.9036429775180963  1.0000
  H   H56       1.0  0.0831202573353238  0.5138132351939859  0.09625574243771949  1.0000
  H   H57       1.0  0.9113427590289261  0.6992762397835152  0.911844539307644  1.0000
  H   H58       1.0  0.5886015855323024  0.7876732955176422  0.08828792424417033  1.0000
  H   H59       1.0  0.0886585221052556  0.300724538785083  0.08815452039457479  1.0000
  H   H60       1.0  0.4114006401827055  0.2123275280271599  0.9117136782894162  1.0000
  C   C1        1.0  0.9968284403802697  0.4844236993427631  0.6764183502502519  1.0000
  C   C2        1.0  0.5031155615640088  0.8081268551292526  0.3235267904077262  1.0000
  C   C3        1.0  0.0031682325038886057  0.5155770236103407  0.32357875432547434  1.0000
  C   C4        1.0  0.49687998939319294  0.1918680340064327  0.6764675835333449  1.0000
  C   C5        1.0  0.8797882385157293  0.4287315062348966  0.6194055422522167  1.0000
  C   C6        1.0  0.6201564402451112  0.8094441359851319  0.3806390633876833  1.0000
  C   C7        1.0  0.1202093524906118  0.5712692226331413  0.3805916223017221  1.0000
  C   C8        1.0  0.37984005398219267  0.1905517173621476  0.6193549880232891  1.0000
  C   C9        1.0  0.8471041701756831  0.30492735917586344  0.5987339212218643  1.0000
  C   C10       1.0  0.6528328398592791  0.7063176989939777  0.4013711265023758  1.0000
  C   C11       1.0  0.15289436410076013  0.6950743339037545  0.40126292080196885  1.0000
  C   C12       1.0  0.34716554221894563  0.29367916354109275  0.5986251452098655  1.0000
  C   C13       1.0  0.9266366333141534  0.23356666548720997  0.6359726725928638  1.0000
  C   C14       1.0  0.5733023408959569  0.5977385688316376  0.3641101663460589  1.0000
  C   C15       1.0  0.0733619186013854  0.7664350536332522  0.36402582466641314  1.0000
  C   C16       1.0  0.42669695930446483  0.4022582996183603  0.6358861653443882  1.0000
  C   C17       1.0  0.042203276326745295  0.2919095909071033  0.6956574265035299  1.0000
  C   C18       1.0  0.45777898861621935  0.5963747929648521  0.3043682075919634  1.0000
  C   C19       1.0  0.9577942895316839  0.7080901796642749  0.3043401205587132  1.0000
  C   C20       1.0  0.5422193594945455  0.403621098253133  0.6956276190108637  1.0000
  C   C21       1.0  0.0771347280202122  0.41471621206716247  0.7151455611333402  1.0000
  C   C22       1.0  0.42286263791725515  0.6996804212541577  0.28483198493849216  1.0000
  C   C23       1.0  0.9228619876509468  0.585285495223438  0.28485281616951136  1.0000
  C   C24       1.0  0.5771338739491368  0.3003154581339659  0.7151637217079098  1.0000
  C   C25       1.0  0.8896534947380272  0.09973392652862148  0.6114099484072212  1.0000
  C   C26       1.0  0.6102970993000626  0.48848600443667334  0.3887085424271958  1.0000
  C   C27       1.0  0.11034691106097229  0.9002678304625532  0.3885903240439105  1.0000
  C   C28       1.0  0.38970232926137527  0.5115138170258291  0.6112916074446274  1.0000
  C   C29       1.0  0.9349463645673594  0.6925582638475589  0.6320103377393663  1.0000
  C   C30       1.0  0.5650525452304079  0.060661789377640205  0.367983387636876  1.0000
  C   C31       1.0  0.06505677795911419  0.30744348484756046  0.3679884594109665  1.0000
  C   C32       1.0  0.4349477423378331  0.9393361083860584  0.632016759612064  1.0000
  C   C33       1.0  0.8356088533762217  0.761420651915536  0.7208137875440954  1.0000
  C   C34       1.0  0.6644324529380582  0.04075218440044641  0.2792682758901392  1.0000
  C   C35       1.0  0.1643943156088881  0.23858113584084614  0.27918749245939267  1.0000
  C   C36       1.0  0.33556775036689146  0.9592428254528544  0.7207321912660163  1.0000
  C   C37       1.0  0.6618504015795351  0.2332132769502451  0.052271679928544784  1.0000
  C   C38       1.0  0.8380320428896367  0.18088978270587572  0.9477522259163961  1.0000
  C   C39       1.0  0.3381454312476108  0.7667884765071165  0.9477299478669676  1.0000
  C   C40       1.0  0.1619655507381381  0.8191091076913676  0.052250669360468203  1.0000
  C   C41       1.0  0.6590532025680317  0.35221877643667915  0.054450560920685113  1.0000
  C   C42       1.0  0.8407712464707515  0.2977377120728235  0.9455703312063546  1.0000
  C   C43       1.0  0.34094899799905676  0.6477810888114562  0.9455514241212127  1.0000
  C   C44       1.0  0.1592327563732567  0.702261193688095  0.054431328682561356  1.0000
  C   C45       1.0  0.7499140608693153  0.3874880927057305  6.27174718201491e-06  1.0000
  C   C46       1.0  0.25008913326371374  0.6125146533473185  0.9999946257479948  1.0000
  C   C47       1.0  0.749896247799903  0.5130897453741952  1.7217154273002387e-05  1.0000
  C   C48       1.0  0.250107830487849  0.48691203527669563  0.9999832952097094  1.0000
  C   C49       1.0  0.6574615416606874  0.6016062824059248  0.05228516222503296  1.0000
  C   C50       1.0  0.8423977715314946  0.5492763174243437  0.9478326907727774  1.0000
  C   C51       1.0  0.34253893338395597  0.39839649798401666  0.9477188658063794  1.0000
  C   C52       1.0  0.15760543142108216  0.4507264416491168  0.05216903434011748  1.0000
  C   C53       1.0  0.6603123063891515  0.7181954434349008  0.04948721629672535  1.0000
  C   C54       1.0  0.8396103098194626  0.6686873673233933  0.9506618984683113  1.0000
  C   C55       1.0  0.339690803480586  0.2818044147077501  0.9505140011056666  1.0000
  C   C56       1.0  0.16039374332037679  0.3313134550308376  0.049338996403975  1.0000
  S   S1        1.0  0.0564219737627667  0.6343475276699096  0.6992656668924012  1.0000
  S   S2        1.0  0.4436256333304698  0.9351955492131482  0.3006439740975821  1.0000
  S   S3        1.0  0.9435793677975111  0.3656542612770366  0.30073632077237983  1.0000
  S   S4        1.0  0.5563709817490263  0.06480232489082742  0.6993559332385146  1.0000
  N   N1        1.0  0.7499383074833473  0.1485017195888005  0.9999708854023551  1.0000
  N   N2        1.0  0.25005932762071836  0.8514990743813441  3.0417240175585397e-05  1.0000
  N   N3        1.0  0.7499821194201529  0.7519388786466409  9.205090848503709e-05  1.0000
  N   N4        1.0  0.25002016541023414  0.24806387451189246  0.9999096142261975  1.0000
  O   O1        1.0  0.8731251312217124  0.8592724041802956  0.827638834524663  1.0000
  O   O2        1.0  0.6269391974669957  0.0318315749723084  0.17245299535935027  1.0000
  O   O3        1.0  0.12687900749213551  0.14073038684894357  0.1723646058018744  1.0000
  O   O4        1.0  0.37306116685572016  0.9681682784459652  0.8275488697261293  1.0000
  O   O5        1.0  0.5766034089916658  0.8561598918194308  0.8580368162166678  1.0000
  O   O6        1.0  0.9234009447824932  0.9983178623222742  0.14205140603752392  1.0000
  O   O7        1.0  0.4233978646336922  0.1438399544933517  0.14196428122929913  1.0000
  O   O8        1.0  0.07660038795824421  0.001683913604253501  0.8579497540095389  1.0000
  O   O9        1.0  0.7259783485929817  0.7189013077837317  0.6842794900618614  1.0000
  O   O10       1.0  0.7740448722788356  0.03469542773977711  0.3158095389072528  1.0000
  O   O11       1.0  0.27402477760512056  0.2810994956351536  0.3157205172145012  1.0000
  O   O12       1.0  0.22595690303963065  0.9652927556625528  0.684185449586323  1.0000
