data_image0
_chemical_formula_structural       AlH9C21NO6F3
_chemical_formula_sum              "Al1 H9 C21 N1 O6 F3"
_cell_length_a       4.1085356420798105
_cell_length_b       13.495986572201225
_cell_length_c       13.495917574008592
_cell_angle_alpha    119.99907009567173
_cell_angle_beta     90.00072860464864
_cell_angle_gamma    89.99964901683133

_space_group_name_H-M_alt    "P 1"
_space_group_IT_number       1

loop_
  _space_group_symop_operation_xyz
  'x, y, z'

loop_
  _atom_site_type_symbol
  _atom_site_label
  _atom_site_symmetry_multiplicity
  _atom_site_fract_x
  _atom_site_fract_y
  _atom_site_fract_z
  _atom_site_occupancy
  Al  Al1       1.0  0.012929781891202202  0.4999959209050502  0.4999950825521254  1.0000
  H   H1        1.0  0.20932377916675193  0.8158822586480029  0.787797077847209  1.0000
  H   H2        1.0  0.2081635341297954  0.026742259592460103  0.8961204203803773  1.0000
  H   H3        1.0  0.785399997730444  0.02992882185822763  0.6301607512160672  1.0000
  H   H4        1.0  0.7854454539529029  0.10022119746454186  0.9700669863744906  1.0000
  H   H5        1.0  0.2093120496965  0.4719073105607309  0.18411171373450236  1.0000
  H   H6        1.0  0.20815919157039528  0.36936934093810675  0.9732504652630638  1.0000
  H   H7        1.0  0.7854533310800491  0.3698264229468506  0.8997629090043163  1.0000
  H   H8        1.0  0.20925635348636723  0.21221301652256844  0.5280983683654981  1.0000
  H   H9        1.0  0.2081083992005972  0.10388602864469478  0.6306351471602767  1.0000
  C   C1        1.0  0.5117032479952712  0.40953537903784104  0.32531374099682603  1.0000
  C   C2        1.0  0.511728303609587  0.415773574438944  0.5904492408744062  1.0000
  C   C3        1.0  0.5117060153565022  0.6746767892927393  0.5842213288286048  1.0000
  C   C4        1.0  0.33977538052798917  0.8632360875640473  0.7543300265383196  1.0000
  C   C5        1.0  0.33596872760882956  0.9822110399269945  0.814857920822199  1.0000
  C   C6        1.0  0.49560618268069595  0.04529154299505197  0.7722401357436793  1.0000
  C   C7        1.0  0.658652292302051  0.9854628717223262  0.6670831721995045  1.0000
  C   C8        1.0  0.6574742374428554  0.86701056850017  0.6085281543169928  1.0000
  C   C9        1.0  0.5026371523386217  0.8028291937832676  0.6494690428663717  1.0000
  C   C10       1.0  0.65864915721982  0.18163480019663328  0.014555056624480815  1.0000
  C   C11       1.0  0.6575144013406842  0.24149531557473836  0.1329650463279606  1.0000
  C   C12       1.0  0.5026444151892588  0.3466428830659538  0.1971749934363487  1.0000
  C   C13       1.0  0.33977441965171107  0.3910831197863729  0.13675155184490256  1.0000
  C   C14       1.0  0.3359584800645621  0.33264668831122884  0.017791782270954678  1.0000
  C   C15       1.0  0.4956325266027265  0.2269302416697841  0.9547025367090711  1.0000
  C   C16       1.0  0.6586866198048186  0.33291399938989485  0.8183788228905513  1.0000
  C   C17       1.0  0.6575188712554336  0.39146546250546516  0.758482664108513  1.0000
  C   C18       1.0  0.5026394900482885  0.35052580193116256  0.653359204392892  1.0000
  C   C19       1.0  0.3397470431381109  0.24567268423643168  0.6089207518422413  1.0000
  C   C20       1.0  0.33594464043810046  0.18515220554148476  0.66736123649914  1.0000
  C   C21       1.0  0.49560917647860253  0.227755087230129  0.7730561917636791  1.0000
  N   N1        1.0  0.49235202522257987  0.16666824090280835  0.8333345319183606  1.0000
  O   O1        1.0  0.7512691690434822  0.6274305058886043  0.6041361752991393  1.0000
  O   O2        1.0  0.751280401673796  0.4767050160655869  0.37256236303215223  1.0000
  O   O3        1.0  0.7512649794878711  0.39585245530398083  0.5232953380476602  1.0000
  O   O4        1.0  0.2788410908358331  0.6234018326420453  0.5153769595432394  1.0000
  O   O5        1.0  0.27885667300316197  0.48461341386941104  0.6080155939122278  1.0000
  O   O6        1.0  0.2788527028673613  0.39197493151566926  0.3765888988488372  1.0000
  F   F1        1.0  0.8180359325357075  0.8114820174924587  0.5066443920068054  1.0000
  F   F2        1.0  0.8180744873719376  0.1951589106307807  0.188518258110733  1.0000
  F   F3        1.0  0.8181039982199394  0.49334324156162507  0.8048295040808569  1.0000
