data_image0
_chemical_formula_structural       Cu6H42C54N6O18
_chemical_formula_sum              "Cu6 H42 C54 N6 O18"
_cell_length_a       6.876892667703928
_cell_length_b       15.776463325180542
_cell_length_c       15.775837759143997
_cell_angle_alpha    117.9196280879842
_cell_angle_beta     98.38012376472815
_cell_angle_gamma    98.37246966685787

_space_group_name_H-M_alt    "P 1"
_space_group_IT_number       1

loop_
  _space_group_symop_operation_xyz
  'x, y, z'

loop_
  _atom_site_type_symbol
  _atom_site_label
  _atom_site_symmetry_multiplicity
  _atom_site_fract_x
  _atom_site_fract_y
  _atom_site_fract_z
  _atom_site_occupancy
  Cu  Cu1       1.0  0.6192679797959357  0.4735855954599302  0.5710992486502918  1.0000
  Cu  Cu2       1.0  0.14569953431780652  0.09752851192694581  0.5264816113821739  1.0000
  Cu  Cu3       1.0  0.04802081745279446  0.4290148480146527  0.9023858724835919  1.0000
  Cu  Cu4       1.0  0.3807331387085142  0.5264127477408209  0.4288961022274337  1.0000
  Cu  Cu5       1.0  0.8542978964674292  0.9024713102738817  0.47351863146501233  1.0000
  Cu  Cu6       1.0  0.9519784616281727  0.5709857142325632  0.0976129338162295  1.0000
  H   H1        1.0  0.48270529370469006  0.3819474333726589  0.244439688652669  1.0000
  H   H2        1.0  0.1015017715803736  0.8622193258563087  0.6177122249976036  1.0000
  H   H3        1.0  0.23875932945306738  0.7555923070417806  0.13769540097217006  1.0000
  H   H4        1.0  0.5172991714225933  0.6180575682711907  0.755555823215524  1.0000
  H   H5        1.0  0.8984805902064679  0.13778271329781694  0.382290621493226  1.0000
  H   H6        1.0  0.7612410607397708  0.24441047469547078  0.8623045151801848  1.0000
  H   H7        1.0  0.6602744540326528  0.2833409977791278  0.12165685034170086  1.0000
  H   H8        1.0  0.37796794319640986  0.8381414476520777  0.7163686421614133  1.0000
  H   H9        1.0  0.5392082309884431  0.8784680469429916  0.16191271121977724  1.0000
  H   H10       1.0  0.3397472996592938  0.7166662258968799  0.8783389113013345  1.0000
  H   H11       1.0  0.6220114574252946  0.16186059108007814  0.2836390847526715  1.0000
  H   H12       1.0  0.4607903215384469  0.12153399472627062  0.838086106626257  1.0000
  H   H13       1.0  0.9767488294509193  0.24159890712140714  0.17511399405427147  1.0000
  H   H14       1.0  0.7362328913588244  0.9335440742493761  0.7583596452470759  1.0000
  H   H15       1.0  0.8022372252271384  0.8251565494862733  0.06676995438330381  1.0000
  H   H16       1.0  0.023284682963265035  0.7584053593061387  0.824878604710186  1.0000
  H   H17       1.0  0.2637531227427559  0.0664624041983402  0.24165502129215355  1.0000
  H   H18       1.0  0.19776757748145  0.1748462329433026  0.9332296119817798  1.0000
  H   H19       1.0  0.09912126886218434  0.29436303556526877  0.3538968096011246  1.0000
  H   H20       1.0  0.8055443737187179  0.0596004619966024  0.7056132128807279  1.0000
  H   H21       1.0  0.7457164627446105  0.646391408354326  0.9407929482031535  1.0000
  H   H22       1.0  0.9008993462434919  0.705639009565623  0.6461002593085896  1.0000
  H   H23       1.0  0.1944541362889751  0.9404015797590263  0.29439574438002575  1.0000
  H   H24       1.0  0.25429457330105987  0.3536091557588891  0.05920724894650681  1.0000
  H   H25       1.0  0.08407972640136313  0.3649515131040816  0.509036020383114  1.0000
  H   H26       1.0  0.719504817373462  0.14417505067661557  0.6350421607112653  1.0000
  H   H27       1.0  0.5754630288143262  0.49119888791189237  0.8562159479072022  1.0000
  H   H28       1.0  0.9159173419855975  0.6350475692505457  0.49096195137297394  1.0000
  H   H29       1.0  0.2804922607856784  0.8558299498799191  0.3649617499345582  1.0000
  H   H30       1.0  0.42454652930622677  0.5088016759849411  0.14378605574066236  1.0000
  H   H31       1.0  0.1060100615017846  0.49094072227812574  0.6989024379435451  1.0000
  H   H32       1.0  0.6149292051223015  0.2080659894100877  0.5092126521838409  1.0000
  H   H33       1.0  0.40739045093885556  0.301404242418272  0.7923733621133666  1.0000
  H   H34       1.0  0.8939826271587352  0.509061318428458  0.3010921990537625  1.0000
  H   H35       1.0  0.3850663596226698  0.7919271745586233  0.4907849894612398  1.0000
  H   H36       1.0  0.59261839657232  0.6985978008682212  0.207624850800194  1.0000
  H   H37       1.0  0.9709811272796999  0.3690911589355964  0.6613386992080879  1.0000
  H   H38       1.0  0.6018352408763192  0.2923342622174303  0.6310232042885958  1.0000
  H   H39       1.0  0.30981741569554805  0.33870495579793675  0.7079203668365114  1.0000
  H   H40       1.0  0.02900344781630799  0.6309034827731639  0.3386519543546456  1.0000
  H   H41       1.0  0.3981643536264485  0.7076611217496377  0.36898080620047585  1.0000
  H   H42       1.0  0.6901767278729523  0.6613000442826619  0.2920820870983647  1.0000
  C   C1        1.0  0.8606980103203343  0.3663963694026293  0.3994284257641497  1.0000
  C   C2        1.0  0.4948517381066538  0.0330404927521641  0.6336045037735616  1.0000
  C   C3        1.0  0.46163219583351645  0.6007749284826222  0.9671927236675943  1.0000
  C   C4        1.0  0.1393126712994146  0.6336034548481919  0.6005675991541467  1.0000
  C   C5        1.0  0.5051511702296381  0.9669585906137216  0.3664033522520285  1.0000
  C   C6        1.0  0.5383689146985802  0.3992234147343226  0.03280452835038263  1.0000
  C   C7        1.0  0.685604389137346  0.39484143795296944  0.369869600766542  1.0000
  C   C8        1.0  0.29128168078326416  0.9749217438823624  0.6049928602167898  1.0000
  C   C9        1.0  0.3160397693692405  0.6302386317155569  0.02512293797099844  1.0000
  C   C10       1.0  0.31440334370461204  0.6051554267398417  0.6301242159929147  1.0000
  C   C11       1.0  0.7087109564857955  0.02507733781772001  0.3950098973204987  1.0000
  C   C12       1.0  0.6839576862329579  0.36976414954575193  0.9748755214704021  1.0000
  C   C13       1.0  0.6161925019026385  0.36155256698415883  0.26797061265534694  1.0000
  C   C14       1.0  0.25539619492676024  0.9062252124497618  0.6381638350971458  1.0000
  C   C15       1.0  0.34870302758037064  0.7321149349583752  0.09378907922313577  1.0000
  C   C16       1.0  0.3838211497545104  0.638450216781493  0.7320225507144259  1.0000
  C   C17       1.0  0.7445832047950278  0.0937738671733399  0.3618399718019348  1.0000
  C   C18       1.0  0.6512999463345466  0.26789006649607944  0.906211407710373  1.0000
  C   C19       1.0  0.7187557313497096  0.3068984927168899  0.19944965008956939  1.0000
  C   C20       1.0  0.4127935889118461  0.8924102008702803  0.6928622483693019  1.0000
  C   C21       1.0  0.5198748879936234  0.8006897083879637  0.10769561435498082  1.0000
  C   C22       1.0  0.2812615814521564  0.6931028121026586  0.8005449584449381  1.0000
  C   C23       1.0  0.5871883980893813  0.10759405757368513  0.3071454156125172  1.0000
  C   C24       1.0  0.48012804957461713  0.19930937491854914  0.8923052708229948  1.0000
  C   C25       1.0  0.8955513778289446  0.2831023959047486  0.22899451595074546  1.0000
  C   C26       1.0  0.6134310341481142  0.9458444357306636  0.7167781207534321  1.0000
  C   C27       1.0  0.6671762507193364  0.7712245367129926  0.054420937474518004  1.0000
  C   C28       1.0  0.10446075599904964  0.7168915103929194  0.770997565860128  1.0000
  C   C29       1.0  0.38655056388034137  0.054159082921074714  0.283233609271484  1.0000
  C   C30       1.0  0.3328248465255116  0.22877380653093846  0.9455794831105637  1.0000
  C   C31       1.0  0.9638527603525588  0.3126404405565637  0.32802514765593577  1.0000
  C   C32       1.0  0.6520058161381499  0.015381597951133601  0.6873085037144622  1.0000
  C   C33       1.0  0.6363454559459498  0.6722235550573431  0.984923732278972  1.0000
  C   C34       1.0  0.03615756508373376  0.6873616029463107  0.6719712587594131  1.0000
  C   C35       1.0  0.3479930367657502  0.984618224579421  0.31270324061633664  1.0000
  C   C36       1.0  0.3636589568899567  0.3277755284709516  0.015075980114218644  1.0000
  C   C37       1.0  0.9419319978909543  0.38688982397578553  0.4981436828370748  1.0000
  C   C38       1.0  0.5553756425135746  0.11130178922299903  0.6131461687388227  1.0000
  C   C39       1.0  0.4441166835924976  0.5020708321161538  0.8889696389967272  1.0000
  C   C40       1.0  0.05806912948575875  0.6131114783178263  0.5018536869153821  1.0000
  C   C41       1.0  0.4446173624686481  0.8886980323124832  0.38685759246273227  1.0000
  C   C42       1.0  0.5558833238000958  0.4979252915945694  0.11102460202847204  1.0000
  C   C43       1.0  0.9540477976972426  0.44009816309338134  0.6679156507182356  1.0000
  C   C44       1.0  0.5138648629027431  0.22787039560139993  0.5600142905823091  1.0000
  C   C45       1.0  0.28631069279376226  0.33223774748957174  0.772403152698388  1.0000
  C   C46       1.0  0.04594486348886314  0.5599009185581211  0.33208140339827  1.0000
  C   C47       1.0  0.48613327493450964  0.7721249881061072  0.43998645669761083  1.0000
  C   C48       1.0  0.7136867433063685  0.6677620747004624  0.22759582272195897  1.0000
  C   C49       1.0  0.8227434892268873  0.4828448688144463  0.7400031629025818  1.0000
  C   C50       1.0  0.33970101890349014  0.25715660570936194  0.5172194797850551  1.0000
  C   C51       1.0  0.08294386065745839  0.2600425101929247  0.7430606335596792  1.0000
  C   C52       1.0  0.17725358888996107  0.5171512544095265  0.2599883539848307  1.0000
  C   C53       1.0  0.6602945635860067  0.7428424764450696  0.4827821996095025  1.0000
  C   C54       1.0  0.9170568813038502  0.7399610114121133  0.256944088537445  1.0000
  N   N1        1.0  0.8604378877658193  0.42627105454023007  0.5720285712380075  1.0000
  N   N2        1.0  0.434276765683407  0.14579030854059033  0.5738278221127758  1.0000
  N   N3        1.0  0.2886006395037128  0.42815129185159156  0.8543792294621185  1.0000
  N   N4        1.0  0.1395603094352396  0.5737272881575849  0.4279621543616657  1.0000
  N   N5        1.0  0.5657231664006658  0.854202856212204  0.4261802428731798  1.0000
  N   N6        1.0  0.7114045114159853  0.5718492713421173  0.14562185654617107  1.0000
  O   O1        1.0  0.5918644037515365  0.4518197478375044  0.4354022075604008  1.0000
  O   O2        1.0  0.1403792428707933  0.9834639504248276  0.5479967574420713  1.0000
  O   O3        1.0  0.15659670502307685  0.5646455417884938  0.016475501896046275  1.0000
  O   O4        1.0  0.4081433016160005  0.5481741578002257  0.5645940263182538  1.0000
  O   O5        1.0  0.8596215017479596  0.01653957117481041  0.45200733094164053  1.0000
  O   O6        1.0  0.843399272654004  0.43535723925642605  0.9835247640435656  1.0000
  O   O7        1.0  0.6594107649849051  0.5008854395264919  0.7069636160370366  1.0000
  O   O8        1.0  0.15824176652632369  0.2061896174761985  0.49936335208634836  1.0000
  O   O9        1.0  0.9522461727644541  0.2931351981073718  0.793844013936351  1.0000
  O   O10       1.0  0.34058926632473435  0.4991106841356441  0.2930249215673797  1.0000
  O   O11       1.0  0.8417471998681308  0.7938139023006272  0.5006444151548877  1.0000
  O   O12       1.0  0.04775455235223803  0.7068653644209988  0.20616059042630042  1.0000
  O   O13       1.0  0.8711453111763776  0.4984002603756253  0.8263896382135062  1.0000
  O   O14       1.0  0.37263190142046915  0.3278391088104016  0.5014473186430878  1.0000
  O   O15       1.0  0.04545107423831501  0.1735518680394179  0.6725282333541929  1.0000
  O   O16       1.0  0.12884037503149418  0.501596600823163  0.17360212520175372  1.0000
  O   O17       1.0  0.6273636695393066  0.6721570142565697  0.4985529755901511  1.0000
  O   O18       1.0  0.9545448724069916  0.8264449948467674  0.32747116340305393  1.0000
