data_image0
_chemical_formula_structural       V2Cu2P2H24C34N4O14
_chemical_formula_sum              "V2 Cu2 P2 H24 C34 N4 O14"
_cell_length_a       9.519680232525427
_cell_length_b       9.543439260545192
_cell_length_c       10.856294489396827
_cell_angle_alpha    111.47920377679858
_cell_angle_beta     95.85771253613065
_cell_angle_gamma    110.63154100790481

_space_group_name_H-M_alt    "P 1"
_space_group_IT_number       1

loop_
  _space_group_symop_operation_xyz
  'x, y, z'

loop_
  _atom_site_type_symbol
  _atom_site_label
  _atom_site_symmetry_multiplicity
  _atom_site_fract_x
  _atom_site_fract_y
  _atom_site_fract_z
  _atom_site_occupancy
  V   V1        1.0  0.8469468734328558  0.4642420862977801  0.27394227199819454  1.0000
  V   V2        1.0  0.15305208940385742  0.5357537578504507  0.7260512758165235  1.0000
  Cu  Cu1       1.0  0.6090774721303589  0.13081592118910382  0.24919271703176804  1.0000
  Cu  Cu2       1.0  0.3909218550481556  0.869186113950626  0.750806569360499  1.0000
  P   P1        1.0  0.006148931946363205  0.2999494631922133  0.4000687209935947  1.0000
  P   P2        1.0  0.993853553469947  0.700052578484275  0.5999280761282294  1.0000
  H   H1        1.0  0.26652255830276056  0.37422357106411397  0.2841411751585241  1.0000
  H   H2        1.0  0.7334799394538934  0.6257784296880403  0.7158620576476552  1.0000
  H   H3        1.0  0.353713207607136  0.2003059708378458  0.10615865422526845  1.0000
  H   H4        1.0  0.6462899211453818  0.799692292507949  0.8938443330395388  1.0000
  H   H5        1.0  0.9805504341135318  0.7601025140598737  0.07401908494257016  1.0000
  H   H6        1.0  0.01944797629044361  0.23989454593250062  0.9259794182222691  1.0000
  H   H7        1.0  0.8932947882568811  0.9351197524264521  0.25227788950183344  1.0000
  H   H8        1.0  0.10670516815459759  0.06487855115324241  0.7477202319655802  1.0000
  H   H9        1.0  0.6342486909644477  0.4330168845610913  0.48901797553963183  1.0000
  H   H10       1.0  0.36574486688250835  0.5669839391999645  0.5109785758929563  1.0000
  H   H11       1.0  0.4789939054801025  0.4822456691056018  0.6647582846510004  1.0000
  H   H12       1.0  0.5210033126807475  0.517756373368954  0.3352408224879327  1.0000
  H   H13       1.0  0.2656279878779699  0.2385227822633027  0.663363924546239  1.0000
  H   H14       1.0  0.7343708495647905  0.7614779997753589  0.3366367525535879  1.0000
  H   H15       1.0  0.21544038892781728  0.9528633274643356  0.49517596822288834  1.0000
  H   H16       1.0  0.7845558462356905  0.04713622050075371  0.5048240815642231  1.0000
  H   H17       1.0  0.18074735729720706  0.7240222183835385  0.3365608978803607  1.0000
  H   H18       1.0  0.819246768848636  0.27597733691636966  0.6634389726534168  1.0000
  H   H19       1.0  0.15569192401912352  0.4686064080793387  0.14232876414830295  1.0000
  H   H20       1.0  0.8443090957157154  0.5313918626012748  0.8576740438631704  1.0000
  H   H21       1.0  0.3444433414543581  0.4933102994178142  0.9953517832726816  1.0000
  H   H22       1.0  0.6555598570467538  0.5066854715974288  0.0046513168834750535  1.0000
  H   H23       1.0  0.5450764043792731  0.7783850969778073  0.048825871368130415  1.0000
  H   H24       1.0  0.4549256698644015  0.2216131700353969  0.9511770262700026  1.0000
  C   C1        1.0  0.0737649890807361  0.1665569596596939  0.27959115931192  1.0000
  C   C2        1.0  0.9262355338667234  0.8334400813051916  0.7204093618732019  1.0000
  C   C3        1.0  0.20464504665146427  0.23965121478656934  0.23866705124232376  1.0000
  C   C4        1.0  0.7953580158782644  0.7603495291971073  0.7613376618980825  1.0000
  C   C5        1.0  0.2521137763845402  0.14249816633288506  0.137399310319303  1.0000
  C   C6        1.0  0.7478882263476336  0.8575025988572024  0.8626025550439992  1.0000
  C   C7        1.0  0.16890686838443264  0.9691977652081861  0.07404138215469666  1.0000
  C   C8        1.0  0.8310951272961163  0.0308030233672341  0.9259568056746943  1.0000
  C   C9        1.0  0.21231947354997527  0.8688975600987519  0.955083281506262  1.0000
  C   C10       1.0  0.7876851244098263  0.13110446255024752  0.044915533635851525  1.0000
  C   C11       1.0  0.04211112579225341  0.8947238372607347  0.11867360420684768  1.0000
  C   C12       1.0  0.9578919243971383  0.1052769476472761  0.8813246732492033  1.0000
  C   C13       1.0  0.9946207126234656  0.9930613438713891  0.22049733104370275  1.0000
  C   C14       1.0  0.005380296533942899  0.0069369618872273  0.7794999606668965  1.0000
  C   C15       1.0  0.5390204431693063  0.3317916050385463  0.49393301198970363  1.0000
  C   C16       1.0  0.46097621374426717  0.6682116825118244  0.5060664535819657  1.0000
  C   C17       1.0  0.454421037278948  0.3572177060367779  0.5908883726045319  1.0000
  C   C18       1.0  0.5455751263730663  0.6427843401051874  0.40911064490774157  1.0000
  C   C19       1.0  0.33490446522047534  0.22039677461139462  0.5899220024540031  1.0000
  C   C20       1.0  0.6650932479648475  0.7796065034252281  0.41007847212780757  1.0000
  C   C21       1.0  0.3039030879686635  0.0616968618493345  0.49362444023010005  1.0000
  C   C22       1.0  0.6960941301921794  0.9383051806252212  0.5063746669088403  1.0000
  C   C23       1.0  0.392116263029429  0.044699733151773606  0.3984426833306003  1.0000
  C   C24       1.0  0.6078799023854843  0.9553023071438531  0.6015572535651473  1.0000
  C   C25       1.0  0.37133321381028145  0.8849766182897838  0.29145798056909206  1.0000
  C   C26       1.0  0.6286630213532335  0.1150229296752983  0.7085420692180122  1.0000
  C   C27       1.0  0.2586331725548662  0.7314124964579278  0.2702310889920981  1.0000
  C   C28       1.0  0.7413646103790511  0.26858828924814293  0.729769498481069  1.0000
  C   C29       1.0  0.24685606980087735  0.5883924647458088  0.16246327685144032  1.0000
  C   C30       1.0  0.753143402163559  0.4116045681938232  0.8375389934739772  1.0000
  C   C31       1.0  0.35144628893136337  0.6016868886603247  0.08190183375500477  1.0000
  C   C32       1.0  0.6485574045942285  0.398310117916992  0.918102633844029  1.0000
  C   C33       1.0  0.4622875802203978  0.7586763516493705  0.1095325769552958  1.0000
  C   C34       1.0  0.5377129462528742  0.24132067762285203  0.8904697829967817  1.0000
  N   N1        1.0  0.5064782092546523  0.17916827630340043  0.39932218289932564  1.0000
  N   N2        1.0  0.4935169643484017  0.820831298714431  0.6006740997272075  1.0000
  N   N3        1.0  0.47045770955192284  0.896546698329786  0.21052840784501126  1.0000
  N   N4        1.0  0.5295406346292638  0.10345284230047008  0.7894718211954199  1.0000
  O   O1        1.0  0.02317050544790795  0.4405464987129904  0.3521000340807704  1.0000
  O   O2        1.0  0.9768314937584603  0.5594542781697668  0.6478999925155763  1.0000
  O   O3        1.0  0.12979816491246515  0.3813878416269248  0.5394777510035668  1.0000
  O   O4        1.0  0.8701996197843587  0.6186129382328147  0.4605237558530818  1.0000
  O   O5        1.0  0.8407964298964786  0.20223028057997547  0.3972288247387041  1.0000
  O   O6        1.0  0.15920296703063752  0.7977692622292026  0.6027705745449127  1.0000
  O   O7        1.0  0.3201304729076072  0.951364846456329  0.9151635275129096  1.0000
  O   O8        1.0  0.6798736353164258  0.04863592309160229  0.08483667833676378  1.0000
  O   O9        1.0  0.13732862395873727  0.7113379777662203  0.9008102984718818  1.0000
  O   O10       1.0  0.8626749177293149  0.2886640543965201  0.09918750766009055  1.0000
  O   O11       1.0  0.8722840013566754  0.5944401093191516  0.2068150083335142  1.0000
  O   O12       1.0  0.12772481463846935  0.4055618986601958  0.7931841653152603  1.0000
  O   O13       1.0  0.6547911658158441  0.3445304218427482  0.24036859629325855  1.0000
  O   O14       1.0  0.34521343038105107  0.6554716066525829  0.7596292994653738  1.0000
