data_image0
_chemical_formula_structural       Tm2H32C36N6O16
_chemical_formula_sum              "Tm2 H32 C36 N6 O16"
_cell_length_a       9.549405826145708
_cell_length_b       11.417402913882695
_cell_length_c       11.547739833284455
_cell_angle_alpha    119.62892937123316
_cell_angle_beta     109.97087299717853
_cell_angle_gamma    89.99857382747561

_space_group_name_H-M_alt    "P 1"
_space_group_IT_number       1

loop_
  _space_group_symop_operation_xyz
  'x, y, z'

loop_
  _atom_site_type_symbol
  _atom_site_label
  _atom_site_symmetry_multiplicity
  _atom_site_fract_x
  _atom_site_fract_y
  _atom_site_fract_z
  _atom_site_occupancy
  Tm  Tm1       1.0  0.7500012584482149  0.5320568799274383  3.373482499594548e-06  1.0000
  Tm  Tm2       1.0  0.250006778794763  0.46794298992242034  0.9999962997969191  1.0000
  H   H1        1.0  0.8525862382601448  0.3220599263030763  0.0763876052054329  1.0000
  H   H2        1.0  0.647409722287506  0.24567733071227593  0.9236217401968432  1.0000
  H   H3        1.0  0.14741182501025213  0.6779493562140432  0.923613684522664  1.0000
  H   H4        1.0  0.35259947525349133  0.7543318255969425  0.07638196008036852  1.0000
  H   H5        1.0  0.0034056485808094147  0.41759261796031677  0.11972280283117705  1.0000
  H   H6        1.0  0.4965911918224251  0.2978699353332104  0.8802604804124954  1.0000
  H   H7        1.0  0.996589471032394  0.5824136073995521  0.8802752417271691  1.0000
  H   H8        1.0  0.5034149781928933  0.7021310132997273  0.11973569620588626  1.0000
  H   H9        1.0  0.096657628057585  0.31922250497776616  0.61705187841045  1.0000
  H   H10       1.0  0.4033341359514395  0.7021614678116491  0.38293890487842214  1.0000
  H   H11       1.0  0.9033422034510467  0.6807670994622868  0.38294550720470255  1.0000
  H   H12       1.0  0.596663694162352  0.29783847537879654  0.6170646733753671  1.0000
  H   H13       1.0  0.925860269829812  0.2634280387189706  0.36826681530379096  1.0000
  H   H14       1.0  0.5741378839775209  0.8951484762337923  0.6317229058575861  1.0000
  H   H15       1.0  0.07414351817426021  0.7365821905880524  0.631739252951604  1.0000
  H   H16       1.0  0.4258640578800765  0.10485770401136564  0.3682719650118713  1.0000
  H   H17       1.0  0.2626847556563163  0.46051990804660653  0.3372516521848326  1.0000
  H   H18       1.0  0.2373163298763927  0.123278153472171  0.6627553344815169  1.0000
  H   H19       1.0  0.737322992975088  0.5394798994494823  0.6627574322430902  1.0000
  H   H20       1.0  0.7626764055494492  0.8767229307383814  0.3372403450429928  1.0000
  H   H21       1.0  0.4480030327670762  0.5249233811174108  0.5863493324235592  1.0000
  H   H22       1.0  0.05199515596632409  0.9385836465561113  0.4136548724337032  1.0000
  H   H23       1.0  0.5519934533867783  0.47506723593400585  0.41365620774512024  1.0000
  H   H24       1.0  0.9480035122641653  0.0614059597345289  0.5863438976885504  1.0000
  H   H25       1.0  0.855495652399796  0.841505173156925  0.8456065167508484  1.0000
  H   H26       1.0  0.6444969512167306  0.9959073924621152  0.15439011317388943  1.0000
  H   H27       1.0  0.14449058674710363  0.1584825810841934  0.1543780919112336  1.0000
  H   H28       1.0  0.3555139298900158  0.0041006453843551  0.84562307267705  1.0000
  H   H29       1.0  0.8501988003288546  0.0656944842301144  0.8509035397438255  1.0000
  H   H30       1.0  0.649789748103302  0.21480406883190278  0.14910220280469838  1.0000
  H   H31       1.0  0.14978705006528517  0.9342963667311753  0.1490833342555932  1.0000
  H   H32       1.0  0.3502247935549719  0.7852049761909045  0.8509099749981884  1.0000
  C   C1        1.0  0.39612390077567045  0.45059975716310424  0.7620792935764485  1.0000
  C   C2        1.0  0.10387197326272003  0.688517803123652  0.23791647493000306  1.0000
  C   C3        1.0  0.6038813058961168  0.5493929234071118  0.23791514595843202  1.0000
  C   C4        1.0  0.8961257467451702  0.3114769838792456  0.7620836803936584  1.0000
  C   C5        1.0  0.28649093384064633  0.42384768426679653  0.6183560261149736  1.0000
  C   C6        1.0  0.2135069985683629  0.805492501347608  0.38164039159628527  1.0000
  C   C7        1.0  0.713509427920286  0.5761491188226131  0.38164850669996037  1.0000
  C   C8        1.0  0.7864929955209945  0.19450227061705055  0.6183587058310849  1.0000
  C   C9        1.0  0.13694947803348612  0.35154671492878725  0.5575910229475269  1.0000
  C   C10       1.0  0.3630490418101219  0.793952799942325  0.4423978954952332  1.0000
  C   C11       1.0  0.8630496942118882  0.6484500843426915  0.44241574993346683  1.0000
  C   C12       1.0  0.6369532706991804  0.20604612311763765  0.5575969992568872  1.0000
  C   C13       1.0  0.042820752154042914  0.321321972640483  0.419581780023293  1.0000
  C   C14       1.0  0.45717641184345587  0.901733710087875  0.5804117133359271  1.0000
  C   C15       1.0  0.9571820170515438  0.6786892655767148  0.5804296737714197  1.0000
  C   C16       1.0  0.5428222500790127  0.09827252105726808  0.41958046658319864  1.0000
  C   C17       1.0  0.22967209584474807  0.4314728677829863  0.4028777245208205  1.0000
  C   C18       1.0  0.2703257421380272  0.028600329345579212  0.5971215728561319  1.0000
  C   C19       1.0  0.7703301985634925  0.5685218948119585  0.5971194594512924  1.0000
  C   C20       1.0  0.7296698319953522  0.971403789348123  0.4028807740739566  1.0000
  C   C21       1.0  0.3326642834489988  0.4665980098268037  0.5400867432625418  1.0000
  C   C22       1.0  0.16733400796562145  0.9265160802472181  0.4599139334097017  1.0000
  C   C23       1.0  0.6673296659014767  0.5333906138122018  0.45991099717904405  1.0000
  C   C24       1.0  0.8326705213418465  0.07347963468940578  0.5400921826110263  1.0000
  C   C25       1.0  0.7499926568072867  0.7725913015960657  1.6211702062761376e-06  1.0000
  C   C26       1.0  0.2500017226542894  0.22740767976624457  0.9999961206599935  1.0000
  C   C27       1.0  0.7499979170322321  0.9038866477732698  1.912883000628528e-06  1.0000
  C   C28       1.0  0.25000230054180866  0.09611551441044953  1.823797454411584e-06  1.0000
  C   C29       1.0  0.8086423896794912  0.9224959264989113  0.9132384742258992  1.0000
  C   C30       1.0  0.6913489855233051  0.0092582571669482  0.08675976039979362  1.0000
  C   C31       1.0  0.1913569318540098  0.07750506158020441  0.0867617316403226  1.0000
  C   C32       1.0  0.30864751059525025  0.9907406751459786  0.9132420568878389  1.0000
  C   C33       1.0  0.8058825775743088  0.04588037298535141  0.9165125706204262  1.0000
  C   C34       1.0  0.6941078291991829  0.12937482172202408  0.08349145468445582  1.0000
  C   C35       1.0  0.19411610062087456  0.9541175485668063  0.08348247662078004  1.0000
  C   C36       1.0  0.30589507417360545  0.8706271565278526  0.916510309810576  1.0000
  N   N1        1.0  0.0872325442170023  0.3579715591052803  0.34151427884471275  1.0000
  N   N2        1.0  0.4127670750043535  0.0164579343659881  0.6584832315596428  1.0000
  N   N3        1.0  0.9127661128970033  0.6420314902918065  0.6584884691213942  1.0000
  N   N4        1.0  0.5872324878221209  0.9835482382433157  0.3415161194419271  1.0000
  N   N5        1.0  0.7499945064570782  0.14772966716724062  1.9946653964438774e-06  1.0000
  N   N6        1.0  0.25000572892524536  0.8522702893275919  0.9999962478973217  1.0000
  O   O1        1.0  0.5353546586005749  0.4974637663417597  0.8022412912333436  1.0000
  O   O2        1.0  0.9646414298321705  0.6952294177267717  0.19776505206918674  1.0000
  O   O3        1.0  0.46465220505177746  0.5025258383317848  0.19774607622127852  1.0000
  O   O4        1.0  0.0353550843874473  0.3047736750511731  0.8022344759984464  1.0000
  O   O5        1.0  0.34295360949589343  0.42001394416394777  0.8331431845298026  1.0000
  O   O6        1.0  0.15704034191556812  0.5868684544270978  0.16684545347411023  1.0000
  O   O7        1.0  0.6570528675798146  0.579993179053183  0.1668587049330058  1.0000
  O   O8        1.0  0.8429518421767881  0.41313055897902734  0.8331507795755186  1.0000
  O   O9        1.0  0.8945756219809411  0.41343007179714414  0.09838165316356402  1.0000
  O   O10       1.0  0.6054279644127405  0.31505741555398714  0.9016293210036536  1.0000
  O   O11       1.0  0.10542048240473896  0.5865812455459151  0.9016278409663058  1.0000
  O   O12       1.0  0.3945805373151075  0.6849486628912161  0.09837093176646762  1.0000
  O   O13       1.0  0.6786816526599965  0.750921266524301  0.06506047715153335  1.0000
  O   O14       1.0  0.8213021869076087  0.6858522426269645  0.9349435762673154  1.0000
  O   O15       1.0  0.32130672640116836  0.24907573264589908  0.934932762913924  1.0000
  O   O16       1.0  0.1786946717262907  0.31414358729725217  0.06505683124193955  1.0000
