data_image0
_chemical_formula_structural       Ag4H24C12S4N4O20
_chemical_formula_sum              "Ag4 H24 C12 S4 N4 O20"
_cell_length_a       5.40430035083622
_cell_length_b       7.606374328030722
_cell_length_c       16.83974175030839
_cell_angle_alpha    90.00162336081372
_cell_angle_beta     93.00165148251784
_cell_angle_gamma    90.00019436857416

_space_group_name_H-M_alt    "P 1"
_space_group_IT_number       1

loop_
  _space_group_symop_operation_xyz
  'x, y, z'

loop_
  _atom_site_type_symbol
  _atom_site_label
  _atom_site_symmetry_multiplicity
  _atom_site_fract_x
  _atom_site_fract_y
  _atom_site_fract_z
  _atom_site_occupancy
  Ag  Ag1       1.0  0.2690185692385114  0.3904300400235528  0.7949281117759809  1.0000
  Ag  Ag2       1.0  0.7309664764263603  0.8904300529823459  0.205067165792606  1.0000
  Ag  Ag3       1.0  0.7057425531693581  0.42004273049383306  0.7145813583898644  1.0000
  Ag  Ag4       1.0  0.2942863838460211  0.9200663540561038  0.2854278240070087  1.0000
  H   H1        1.0  0.3471535909882846  0.0700156352085486  0.4990123676362117  1.0000
  H   H2        1.0  0.6528431995870747  0.5700187780544609  0.5009839179791697  1.0000
  H   H3        1.0  0.33682213069105416  0.8484080942426643  0.5087592386669327  1.0000
  H   H4        1.0  0.663187439649235  0.3484119590007849  0.49123238507770856  1.0000
  H   H5        1.0  0.5727521058265167  0.9651087721919113  0.5522603837246507  1.0000
  H   H6        1.0  0.42725085507131405  0.4651050013369301  0.44773638832433693  1.0000
  H   H7        1.0  0.3751129076222526  0.8108450413537227  0.9595206351014909  1.0000
  H   H8        1.0  0.6248926987544791  0.3108340885846914  0.040491717824785695  1.0000
  H   H9        1.0  0.5488215911308671  0.9909937142018066  0.985115224829258  1.0000
  H   H10       1.0  0.45120685615503214  0.49099374133846413  0.014891531662350101  1.0000
  H   H11       1.0  0.6693457889441915  0.7912515971059478  0.9906519476971879  1.0000
  H   H12       1.0  0.33066761758765034  0.2912524947443841  0.009351661028929899  1.0000
  H   H13       1.0  0.9325028382066163  0.9786377811367688  0.8078815331025879  1.0000
  H   H14       1.0  0.06747393560632278  0.4786467086901567  0.1921200644482042  1.0000
  H   H15       1.0  0.012958497499681698  0.8607699479324681  0.8970584259825785  1.0000
  H   H16       1.0  0.9870360277251891  0.3607833084854307  0.10293764766436202  1.0000
  H   H17       1.0  0.49078598376134147  0.995442645355162  0.8461642433279407  1.0000
  H   H18       1.0  0.5092071774081433  0.49544523980455324  0.1538436030913886  1.0000
  H   H19       1.0  0.10782331596384857  0.8143889696715549  0.7040933456149574  1.0000
  H   H20       1.0  0.892199394949813  0.3143920974039673  0.2959021174930285  1.0000
  H   H21       1.0  0.3955789261519058  0.7435090405886342  0.6656165828314116  1.0000
  H   H22       1.0  0.6044351514362559  0.24351329160207064  0.3343757832988672  1.0000
  H   H23       1.0  0.0506198971748901  0.027326980747666603  0.5889605425172846  1.0000
  H   H24       1.0  0.9493771787311543  0.5273395593204029  0.4110375548574652  1.0000
  C   C1        1.0  0.34423410452847486  0.1187592318859814  0.6672371548087028  1.0000
  C   C2        1.0  0.6557809607681334  0.6187578934380795  0.3327547087209339  1.0000
  C   C3        1.0  0.5729432067005433  0.7231938063479081  0.8271251135663106  1.0000
  C   C4        1.0  0.4270690975920743  0.2232007595386278  0.1728701989272636  1.0000
  C   C5        1.0  0.885553960244323  0.9584900312413113  0.8697832695794929  1.0000
  C   C6        1.0  0.1144396777026202  0.45850062256867835  0.1302174812077368  1.0000
  C   C7        1.0  0.6189494944420986  0.8967658397651807  0.8728743583299803  1.0000
  C   C8        1.0  0.381038987159357  0.3967704640142389  0.12712929664625958  1.0000
  C   C9        1.0  0.21277704463722805  0.8013797832752588  0.6504108098147156  1.0000
  C   C10       1.0  0.7872329235817475  0.30138626083059  0.34957966111868183  1.0000
  C   C11       1.0  0.2348818823798382  0.9794857811544802  0.6097755843012038  1.0000
  C   C12       1.0  0.7651154708527557  0.47949728365045985  0.39021869452381  1.0000
  S   S1        1.0  0.946723141519797  0.16605803143308862  0.9180303144820384  1.0000
  S   S2        1.0  0.053278238914735696  0.6660692162371477  0.0819743193247859  1.0000
  S   S3        1.0  0.0482830090731454  0.6445184910481246  0.5884212362959929  1.0000
  S   S4        1.0  0.951715022369271  0.14453172813431078  0.4115762182792436  1.0000
  N   N1        1.0  0.38503587023382824  0.9654317708945117  0.5380376936203745  1.0000
  N   N2        1.0  0.6149671353500635  0.46543408717790413  0.46195729754886367  1.0000
  N   N3        1.0  0.5470489826093825  0.8714920921453952  0.9564188372011342  1.0000
  N   N4        1.0  0.4529600143484912  0.37149056000217945  0.0435876084007276  1.0000
  O   O1        1.0  0.18154365565858646  0.6376713487712422  0.5140089107419925  1.0000
  O   O2        1.0  0.8184526392438156  0.13768509243757174  0.4859861384526809  1.0000
  O   O3        1.0  0.7930157574617525  0.7133302671151754  0.575116770240399  1.0000
  O   O4        1.0  0.20698348051980284  0.21334268228292796  0.4248848251843286  1.0000
  O   O5        1.0  0.3865794668171673  0.6375333572298062  0.8490815504068293  1.0000
  O   O6        1.0  0.6133556063695238  0.13752464992091973  0.1509152726064542  1.0000
  O   O7        1.0  0.8372208180431783  0.3043632603792119  0.8667539878345778  1.0000
  O   O8        1.0  0.1627571403982984  0.8043740922194615  0.1332542657854319  1.0000
  O   O9        1.0  0.8387998330623389  0.15724764367685404  0.9968004588596242  1.0000
  O   O10       1.0  0.16123305158301796  0.6572522835758081  0.0032071706667053984  1.0000
  O   O11       1.0  0.058198993301097304  0.47610333254453263  0.6312952669328948  1.0000
  O   O12       1.0  0.9418076190906601  0.9761090953177599  0.3687003823679618  1.0000
  O   O13       1.0  0.22307395796082827  0.14183937010495382  0.7290406963464164  1.0000
  O   O14       1.0  0.7769130245588727  0.6418272064148953  0.2709547624533215  1.0000
  O   O15       1.0  0.7168255602019897  0.6875734450956303  0.7727318065298048  1.0000
  O   O16       1.0  0.28315856757401286  0.18759796431046993  0.2272879181745679  1.0000
  O   O17       1.0  0.22117545826910148  0.17572624868271455  0.9263623366688023  1.0000
  O   O18       1.0  0.7788316730205196  0.6757360972841654  0.0736323083330888  1.0000
  O   O19       1.0  0.5388631463910868  0.19536163912768964  0.6470615678400051  1.0000
  O   O20       1.0  0.4611436429742923  0.6953809197994619  0.35294018541218003  1.0000
