data_image0
_chemical_formula_structural       Zn8H32C8S8N8
_chemical_formula_sum              "Zn8 H32 C8 S8 N8"
_cell_length_a       6.167008083087243
_cell_length_b       6.295538249020068
_cell_length_c       17.084281824195518
_cell_angle_alpha    90.0001238832714
_cell_angle_beta     90.00056609175218
_cell_angle_gamma    90.00019417239322

_space_group_name_H-M_alt    "P 1"
_space_group_IT_number       1

loop_
  _space_group_symop_operation_xyz
  'x, y, z'

loop_
  _atom_site_type_symbol
  _atom_site_label
  _atom_site_symmetry_multiplicity
  _atom_site_fract_x
  _atom_site_fract_y
  _atom_site_fract_z
  _atom_site_occupancy
  Zn  Zn1       1.0  0.3216484845960963  0.9025797798443095  0.20392999076371865  1.0000
  Zn  Zn2       1.0  0.32164694522513315  0.4025814549575274  0.29606942349964543  1.0000
  Zn  Zn3       1.0  0.8216487690616392  0.5974229810980347  0.20393312576386796  1.0000
  Zn  Zn4       1.0  0.17834400780036927  0.9025808364126106  0.7039331813237768  1.0000
  Zn  Zn5       1.0  0.6783476173432207  0.09741777062823327  0.7960657983982247  1.0000
  Zn  Zn6       1.0  0.6783459137718708  0.5974192723857784  0.7039351456580364  1.0000
  Zn  Zn7       1.0  0.17834084682647947  0.4025745693812155  0.7960685167195012  1.0000
  Zn  Zn8       1.0  0.8216504726786978  0.09742147934909443  0.2960672905041904  1.0000
  H   H1        1.0  0.6370804565156759  0.0338885417422432  0.12281585198980592  1.0000
  H   H2        1.0  0.6370962349913681  0.5338940693405475  0.3771814735193716  1.0000
  H   H3        1.0  0.1370918067679838  0.466116286381265  0.12282038531260045  1.0000
  H   H4        1.0  0.8628917598913474  0.03388367865097311  0.6228185623298544  1.0000
  H   H5        1.0  0.3628864578087772  0.9661074202622686  0.8771770104500336  1.0000
  H   H6        1.0  0.3628917593907842  0.4661082464192745  0.62282133962988  1.0000
  H   H7        1.0  0.8628978091318231  0.5338796756743279  0.8771824278367365  1.0000
  H   H8        1.0  0.1370897482888012  0.9661091065319739  0.37718015346936085  1.0000
  H   H9        1.0  0.44759499520374385  0.2176644760362691  0.11155845174362614  1.0000
  H   H10       1.0  0.44759647291873966  0.7176605282246913  0.38843950608041683  1.0000
  H   H11       1.0  0.9475928628828924  0.28235373458883833  0.11156058770044554  1.0000
  H   H12       1.0  0.05240176148712551  0.2176652364072353  0.6115623417997968  1.0000
  H   H13       1.0  0.5524043497966601  0.7823489586982576  0.8884344107649869  1.0000
  H   H14       1.0  0.5524012506514636  0.2823370222684006  0.6115638924181824  1.0000
  H   H15       1.0  0.052396753000117306  0.7176517580187821  0.888439298786537  1.0000
  H   H16       1.0  0.9475959621281688  0.7823593173340698  0.3884398860446226  1.0000
  H   H17       1.0  0.2552569119359376  0.00012582973354109998  0.017908166195951508  1.0000
  H   H18       1.0  0.255252719798122  0.5001382250910497  0.4820882848371683  1.0000
  H   H19       1.0  0.7552411579058075  0.49988670434841964  0.01791518669011081  1.0000
  H   H20       1.0  0.24477535179286034  0.00013180778591960002  0.5179180438770816  1.0000
  H   H21       1.0  0.7447716205392679  0.9998606017770512  0.9820817696879448  1.0000
  H   H22       1.0  0.7447644622182068  0.4998640907145672  0.5179192110335225  1.0000
  H   H23       1.0  0.24475656565114426  0.5001219651232348  0.982085285146866  1.0000
  H   H24       1.0  0.7552612885801581  0.9998863922964459  0.4820847693705375  1.0000
  H   H25       1.0  0.43525384887078633  0.7888942340062287  0.039054621706334613  1.0000
  H   H26       1.0  0.43524687215743546  0.28891101288643034  0.4609433560507129  1.0000
  H   H27       1.0  0.9352676135868377  0.711107986196865  0.0390590329102309  1.0000
  H   H28       1.0  0.0647419514099852  0.7888982002577622  0.5390603139317209  1.0000
  H   H29       1.0  0.5647584682900301  0.21109060906020016  0.9609358994798501  1.0000
  H   H30       1.0  0.5647589591577855  0.7110976566134043  0.5390647251350488  1.0000
  H   H31       1.0  0.06473173151823629  0.28889432957630135  0.9609437802602587  1.0000
  H   H32       1.0  0.9352703659193863  0.21110411552491828  0.46094015792960635  1.0000
  C   C1        1.0  0.42478554478501723  0.9627061911546448  0.0326921092124408  1.0000
  C   C2        1.0  0.4247884628652727  0.4627071169625054  0.46730716137517464  1.0000
  C   C3        1.0  0.924785560664226  0.5373070922269889  0.032699285746858216  1.0000
  C   C4        1.0  0.0751995156548944  0.9627054167092767  0.5326878899114718  1.0000
  C   C5        1.0  0.5752008280104022  0.037305655148131195  0.9673048506046559  1.0000
  C   C6        1.0  0.5752141252907634  0.5373031409414112  0.5326933104716434  1.0000
  C   C7        1.0  0.07520567681157081  0.46269840039401083  0.9673052834100063  1.0000
  C   C8        1.0  0.9247933431571836  0.0373080180061507  0.46730028991816414  1.0000
  S   S1        1.0  0.9516977341846983  0.9420862242608123  0.18238389616629297  1.0000
  S   S2        1.0  0.9516967556914223  0.4420880049599276  0.3176167411745752  1.0000
  S   S3        1.0  0.45169753125589557  0.5579151485219428  0.18238570928232187  1.0000
  S   S4        1.0  0.5482946846725766  0.9420806212629745  0.6823842588625058  1.0000
  S   S5        1.0  0.0482951247483285  0.057909737792854785  0.8176165756556913  1.0000
  S   S6        1.0  0.048294481735638294  0.5579127223743042  0.6823849013132987  1.0000
  S   S7        1.0  0.5482937061493517  0.44207922510472036  0.81761534786925  1.0000
  S   S8        1.0  0.45169817423707315  0.057918517638022124  0.31761387162753624  1.0000
  N   N1        1.0  0.4749757924190233  0.056285132210319916  0.10933123465605382  1.0000
  N   N2        1.0  0.4749578697755794  0.5563129638162109  0.3906649198037614  1.0000
  N   N3        1.0  0.9749516797345806  0.44370136335090393  0.10933820300078884  1.0000
  N   N4        1.0  0.025047751464200005  0.0562985356658317  0.6093496556677851  1.0000
  N   N5        1.0  0.5250705767446178  0.943666353921728  0.8906522625780868  1.0000
  N   N6        1.0  0.5250512046231606  0.44369094041357476  0.609345502719279  1.0000
  N   N7        1.0  0.025039557647808405  0.5562930102714533  0.890661098150716  1.0000
  N   N8        1.0  0.9749678091366435  0.9436910727528558  0.3906689615277303  1.0000
