data_image0
_chemical_formula_structural       Zn2H18C30N2O16
_chemical_formula_sum              "Zn2 H18 C30 N2 O16"
_cell_length_a       9.547293470192482
_cell_length_b       10.829871736769531
_cell_length_c       10.847061026212645
_cell_angle_alpha    91.56606143602059
_cell_angle_beta     85.9559405571447
_cell_angle_gamma    91.43472783553207

_space_group_name_H-M_alt    "P 1"
_space_group_IT_number       1

loop_
  _space_group_symop_operation_xyz
  'x, y, z'

loop_
  _atom_site_type_symbol
  _atom_site_label
  _atom_site_symmetry_multiplicity
  _atom_site_fract_x
  _atom_site_fract_y
  _atom_site_fract_z
  _atom_site_occupancy
  Zn  Zn1       1.0  0.6468114974640286  0.5075533431305956  0.4919453566668182  1.0000
  Zn  Zn2       1.0  0.35318662888004576  0.49244319648718  0.5080610403656393  1.0000
  H   H1        1.0  0.6436634293634215  0.930877448781615  0.31595414277666106  1.0000
  H   H2        1.0  0.3563442506486041  0.06911766171865  0.6840187012913075  1.0000
  H   H3        1.0  0.7475382662580826  0.06187951661856769  0.5225949785336181  1.0000
  H   H4        1.0  0.25247047436440073  0.9381137420814056  0.47737689077713685  1.0000
  H   H5        1.0  0.5816944144183793  0.9008008681948566  0.6809038861287178  1.0000
  H   H6        1.0  0.41831428303114376  0.09919148358541459  0.3190688995710147  1.0000
  H   H7        1.0  0.5668083035714702  0.7124922935497295  0.944964635600385  1.0000
  H   H8        1.0  0.4331833839274779  0.28750052679304616  0.055044720478072386  1.0000
  H   H9        1.0  0.7413546146863368  0.5432142302372185  0.058591583084698584  1.0000
  H   H10       1.0  0.25863723480868117  0.45677850606303144  0.9414131541198499  1.0000
  H   H11       1.0  0.12635949719223308  0.48744439924214333  0.2987986880599607  1.0000
  H   H12       1.0  0.8736384771498109  0.5125810280775411  0.7012217945542716  1.0000
  H   H13       1.0  0.8950011458595313  0.32522342584096015  0.39347529528904346  1.0000
  H   H14       1.0  0.10500008580812188  0.6748001241821414  0.6065413688219933  1.0000
  H   H15       1.0  0.6854751978416685  0.20499656890108753  0.7480805219395067  1.0000
  H   H16       1.0  0.3145364781684705  0.795000183182232  0.25192817567670284  1.0000
  H   H17       1.0  0.8417476918991367  0.7652852564705765  0.23934979130920195  1.0000
  H   H18       1.0  0.15823143081608743  0.2347101854814042  0.7606600214564665  1.0000
  C   C1        1.0  0.508227050986946  0.47499720254491257  0.2592631797432148  1.0000
  C   C2        1.0  0.49176157365965134  0.5249946062502885  0.7407435062575375  1.0000
  C   C3        1.0  0.5909768102919273  0.4204911320675038  0.939245168865412  1.0000
  C   C4        1.0  0.409017084695911  0.5795025865071963  0.060761350852878586  1.0000
  C   C5        1.0  0.0641136294474691  0.4916541610949991  0.38702831119356046  1.0000
  C   C6        1.0  0.9358875374997238  0.5083666345519973  0.6129892545348383  1.0000
  C   C7        1.0  0.975941616683933  0.6024831586667433  0.4396831170907233  1.0000
  C   C8        1.0  0.024052104754382193  0.3975376001534485  0.5603374734377269  1.0000
  C   C9        1.0  0.9481096658271607  0.4019802654804963  0.4396270208266557  1.0000
  C   C10       1.0  0.05188729123332079  0.5980423445729386  0.5603916282913984  1.0000
  C   C11       1.0  0.5148212918157425  0.2615697375456207  0.5213855367469691  1.0000
  C   C12       1.0  0.4851878505812053  0.7384238697891021  0.4786047718486158  1.0000
  C   C13       1.0  0.6377383338814935  0.034146100019775395  0.5127840414021279  1.0000
  C   C14       1.0  0.36227346959334017  0.9658481702277727  0.4871904979863331  1.0000
  C   C15       1.0  0.5805090830687903  0.9630218759385726  0.3982099444723274  1.0000
  C   C16       1.0  0.4194995711297976  0.03697235691512189  0.6017647035485822  1.0000
  C   C17       1.0  0.4878198948837563  0.8754911371595568  0.48588731350238124  1.0000
  C   C18       1.0  0.5121877419553016  0.12450306642101339  0.5140864469545647  1.0000
  C   C19       1.0  0.5457843174929663  0.9473719190875298  0.6009696640524069  1.0000
  C   C20       1.0  0.45422216161595214  0.052621398725740696  0.3990068965538923  1.0000
  C   C21       1.0  0.6345626520304676  0.5250999762920544  0.031471335930419286  1.0000
  C   C22       1.0  0.36543022559784066  0.4748937130095214  0.9685342962239075  1.0000
  C   C23       1.0  0.5383951615470294  0.6177224561139169  0.9707291688673789  1.0000
  C   C24       1.0  0.461599826450488  0.3822693938519776  0.029275452318920293  1.0000
  C   C25       1.0  0.4915881157892557  0.5132451390655106  0.8774686922469215  1.0000
  C   C26       1.0  0.5084046862668643  0.48674766012486975  0.12253878007116009  1.0000
  C   C27       1.0  0.6874602778070198  0.3398881966229155  0.8627910172148034  1.0000
  C   C28       1.0  0.31253782691157983  0.6601092835315681  0.1372163109782392  1.0000
  C   C29       1.0  0.9432735971740625  0.7159079888947133  0.3720525411756269  1.0000
  C   C30       1.0  0.0567172451114146  0.2841079458055447  0.6279588833084091  1.0000
  N   N1        1.0  0.8600958869625825  0.5113728159724998  0.4921036871351133  1.0000
  N   N2        1.0  0.1399009190315184  0.4886452258654401  0.5079176963782501  1.0000
  O   O1        1.0  0.6262894234693518  0.47232390754304276  0.30579134103086136  1.0000
  O   O2        1.0  0.37370003514915595  0.5276605911251764  0.694218944771741  1.0000
  O   O3        1.0  0.3873514977238485  0.4703911137595824  0.3170197544610147  1.0000
  O   O4        1.0  0.6126372561297656  0.5296145677671759  0.6829879661016348  1.0000
  O   O5        1.0  0.6334521048041992  0.31837489288056986  0.5174579800119119  1.0000
  O   O6        1.0  0.36655538302267127  0.6816199450793687  0.4825499239011534  1.0000
  O   O7        1.0  0.39473692269012156  0.3114393258381583  0.5275730116187276  1.0000
  O   O8        1.0  0.6052709863265376  0.6885552936111877  0.4724228832221726  1.0000
  O   O9        1.0  0.814776340237543  0.3562936822123177  0.8467679157510088  1.0000
  O   O10       1.0  0.6172526410649154  0.2448483031918869  0.8073844174079454  1.0000
  O   O11       1.0  0.18522284640511089  0.6437121575776246  0.15324129025305666  1.0000
  O   O12       1.0  0.3827538402541392  0.755144641230018  0.19262166039475653  1.0000
  O   O13       1.0  0.988990073459945  0.8188569939156378  0.3979059143026474  1.0000
  O   O14       1.0  0.8612495203604807  0.6878296717825947  0.2787904222614229  1.0000
  O   O15       1.0  0.010998083912035404  0.18115959179987576  0.602092693352688  1.0000
  O   O16       1.0  0.13874001336238706  0.31217244495551444  0.7212236989706609  1.0000
