data_image0
_chemical_formula_structural       Zn8H54C72Cl6O26
_chemical_formula_sum              "Zn8 H54 C72 Cl6 O26"
_cell_length_a       18.45704846478958
_cell_length_b       18.438004741557535
_cell_length_c       18.42766563993395
_cell_angle_alpha    60.67032884194545
_cell_angle_beta     60.05864245072166
_cell_angle_gamma    60.03206575964922

_space_group_name_H-M_alt    "P 1"
_space_group_IT_number       1

loop_
  _space_group_symop_operation_xyz
  'x, y, z'

loop_
  _atom_site_type_symbol
  _atom_site_label
  _atom_site_symmetry_multiplicity
  _atom_site_fract_x
  _atom_site_fract_y
  _atom_site_fract_z
  _atom_site_occupancy
  Zn  Zn1       1.0  0.9618396842173812  0.45392209128203825  0.130277294203431  1.0000
  Zn  Zn2       1.0  0.5472408502922547  0.0410323144378566  0.5438791385133827  1.0000
  Zn  Zn3       1.0  0.1349966396793222  0.454148265441141  0.956915153480303  1.0000
  Zn  Zn4       1.0  0.9561232897681438  0.455615288809561  0.9596176924904258  1.0000
  Zn  Zn5       1.0  0.3729464580868439  0.037954192094360885  0.5410689698075402  1.0000
  Zn  Zn6       1.0  0.5459133950812287  0.8683349520223943  0.5454177606865045  1.0000
  Zn  Zn7       1.0  0.9615299902697104  0.6270813449301116  0.9569491397161017  1.0000
  Zn  Zn8       1.0  0.546983007876861  0.043425090242855895  0.3701456549203144  1.0000
  H   H1        1.0  0.8462871050145466  0.2517452790299259  0.31551238455875824  1.0000
  H   H2        1.0  0.4109880914108217  0.2030130558130452  0.6977654206770794  1.0000
  H   H3        1.0  0.7351310963559429  0.4554274124191123  0.016197330457913595  1.0000
  H   H4        1.0  0.6538655621851676  0.43068612350705127  0.016432878186009265  1.0000
  H   H5        1.0  0.22848525499473743  0.9372004838568698  0.3815434314081187  1.0000
  H   H6        1.0  0.20318703500920787  0.8383422547840309  0.4388888260045221  1.0000
  H   H7        1.0  0.12681121627160513  0.9376775584295699  0.39297142561584764  1.0000
  H   H8        1.0  0.07751947028283729  0.8999514895667813  0.5583674426831851  1.0000
  H   H9        1.0  0.0959306402023756  0.0015410504582718005  0.5031537277356295  1.0000
  H   H10       1.0  0.24528059783056483  0.9302337488085825  0.5181012380768949  1.0000
  H   H11       1.0  0.23727938605810547  0.8247639110003888  0.5596986541041248  1.0000
  H   H12       1.0  0.3162803968545945  0.2982489495561821  0.7940109242483971  1.0000
  H   H13       1.0  0.1259166746662785  0.1484359110857554  0.7533444786683603  1.0000
  H   H14       1.0  0.029186710794249407  0.24654008476291264  0.849717389345145  1.0000
  H   H15       1.0  0.12352900642564181  0.24362948906058074  0.6573373846381187  1.0000
  H   H16       1.0  0.0278991109712194  0.3416415295808619  0.7536678351069668  1.0000
  H   H17       1.0  0.4061601831658095  0.6918676542774946  0.7606120758607846  1.0000
  H   H18       1.0  0.7983391155850939  0.5860350735482952  0.3175153295908972  1.0000
  H   H19       1.0  0.7023181587179296  0.6819683571485626  0.4132497161180736  1.0000
  H   H20       1.0  0.7542415666329563  0.9649346947019523  0.13156588548129403  1.0000
  H   H21       1.0  0.8514468795211485  0.8677478828000674  0.033827745576616094  1.0000
  H   H22       1.0  0.6579444743751922  0.9673156279458438  0.12899476646457236  1.0000
  H   H23       1.0  0.7549677574246586  0.8697172305532916  0.031991820210215814  1.0000
  H   H24       1.0  0.7514835732844459  0.1568626571609144  0.41030995680423404  1.0000
  H   H25       1.0  0.3118105361015325  0.5969307608205552  0.8584167401622269  1.0000
  H   H26       1.0  0.6123943610121289  0.28703514621759746  0.1616354799656677  1.0000
  H   H27       1.0  0.07947176683124016  0.8113828766758572  0.693788570655137  1.0000
  H   H28       1.0  0.7940835379080796  0.3009073199097827  0.029315198112669846  1.0000
  H   H29       1.0  0.1298220258071012  0.9647647650214779  0.654088054075892  1.0000
  H   H30       1.0  0.31098578961367457  0.3604246367990099  0.1013081324923633  1.0000
  H   H31       1.0  0.720678366797813  0.9104129484959884  0.6912724144757976  1.0000
  H   H32       1.0  0.404990614018665  0.2645358399676283  0.19708322206519568  1.0000
  H   H33       1.0  0.1897266493816545  0.08229412388824636  0.40576018589123924  1.0000
  H   H34       1.0  0.8166545854003359  0.8146354337890713  0.78525951004184  1.0000
  H   H35       1.0  0.13879316400571892  0.022893039317786197  0.2430431085138025  1.0000
  H   H36       1.0  0.12950102236902697  0.12154974660026598  0.1516217964593096  1.0000
  H   H37       1.0  0.2352444614127478  0.038992843341269186  0.15109685695834685  1.0000
  H   H38       1.0  0.21711227827425722  0.1643811471383997  0.18413212054860403  1.0000
  H   H39       1.0  0.22822518132340258  0.0668280566030788  0.2744303912442733  1.0000
  H   H40       1.0  0.06067942321116251  0.11614155656133819  0.34880609190089024  1.0000
  H   H41       1.0  0.050715295130373796  0.21245768120860484  0.25607676761563886  1.0000
  H   H42       1.0  0.728212020989638  0.5442139468599051  0.8671764493528471  1.0000
  H   H43       1.0  0.4230840895012166  0.7024111490278315  0.8689877638498447  1.0000
  H   H44       1.0  0.46675685324015614  0.5916667235668099  0.9329047210845687  1.0000
  H   H45       1.0  0.42921959366863394  0.6802298637922775  0.9712069542269717  1.0000
  H   H46       1.0  0.5938716817545143  0.6275138589954635  0.9110133164558862  1.0000
  H   H47       1.0  0.5518355721429062  0.7355061511401498  0.8441690539321557  1.0000
  H   H48       1.0  0.5733538223148358  0.6794898321208861  0.7342332530871617  1.0000
  H   H49       1.0  0.6101109708213529  0.56863716513228  0.8010465586721836  1.0000
  H   H50       1.0  0.6103486069368174  0.594117469006008  0.05816793755241196  1.0000
  H   H51       1.0  0.5261279073823389  0.5657811578133903  0.06810422152046414  1.0000
  H   H52       1.0  0.5207932427894165  0.5801725303678252  0.1592479874222408  1.0000
  H   H53       1.0  0.5736783697861371  0.4187568272137909  0.17970626685333013  1.0000
  H   H54       1.0  0.6545714042728933  0.44683504003972263  0.174511056662496  1.0000
  C   C1        1.0  0.8641278626071699  0.6367717603206983  0.8640160972782172  1.0000
  C   C2        1.0  0.19849729311517444  0.692437533351054  0.8175035140811674  1.0000
  C   C3        1.0  0.3602938571604001  0.1365090265051023  0.6354841991136766  1.0000
  C   C4        1.0  0.1436433752892655  0.6339886067693284  0.8702314498289995  1.0000
  C   C5        1.0  0.6495720302339336  0.1289659912000047  0.36519035081322937  1.0000
  C   C6        1.0  0.8708838098648783  0.3538242524693373  0.1422969854857071  1.0000
  C   C7        1.0  0.36677611491255396  0.8565954007439769  0.6420973023737134  1.0000
  C   C8        1.0  0.7694626385224482  0.28472524038625124  0.16589589974345384  1.0000
  C   C9        1.0  0.709420630669982  0.1826075281818618  0.3076127872315481  1.0000
  C   C10       1.0  0.22219163582937546  0.8299471991839197  0.7047168836508392  1.0000
  C   C11       1.0  0.816775119102367  0.2946156394443307  0.19848818994437065  1.0000
  C   C12       1.0  0.3087147323560942  0.8014123196985067  0.7025728167446132  1.0000
  C   C13       1.0  0.8099922876885658  0.24586345682150315  0.2878172893713966  1.0000
  C   C14       1.0  0.33876528815897455  0.7164805925094483  0.760793298487734  1.0000
  C   C15       1.0  0.0945778187454209  0.16359816948639858  0.29545284207356565  1.0000
  C   C16       1.0  0.18333409134836393  0.11651989832237318  0.23623210778814754  1.0000
  C   C17       1.0  0.17109527945111583  0.0724248510486944  0.19323165724428296  1.0000
  C   C18       1.0  0.6079417583499664  0.6360813451939222  0.7828282305156193  1.0000
  C   C19       1.0  0.5569030409609468  0.6666504783084051  0.8643389149305988  1.0000
  C   C20       1.0  0.46395267350079916  0.6598629625085548  0.9119506309017639  1.0000
  C   C21       1.0  0.7186247605863159  0.22936274457141073  0.21853257962342823  1.0000
  C   C22       1.0  0.6875837887549779  0.4193335798525409  0.0583567658691351  1.0000
  C   C23       1.0  0.6196756793913707  0.45652835769636363  0.13470354685077277  1.0000
  C   C24       1.0  0.5662776968684328  0.5544458351304441  0.10341553508314401  1.0000
  C   C25       1.0  0.1978029706444816  0.8940356572073968  0.5582734252153119  1.0000
  C   C26       1.0  0.1299215377703291  0.9300257270928896  0.5139259485121102  1.0000
  C   C27       1.0  0.1740707434051814  0.9101119308524516  0.4270679151424164  1.0000
  C   C28       1.0  0.1685543054128615  0.7774775135049908  0.761791472265351  1.0000
  C   C29       1.0  0.684504277273753  0.2556028893621018  0.14655119181051665  1.0000
  C   C30       1.0  0.09596763389888002  0.839679361206599  0.7215426241299313  1.0000
  C   C31       1.0  0.3682924623222092  0.14122810813798736  0.3592103497354843  1.0000
  C   C32       1.0  0.7404637634069858  0.32042687041995066  0.08696479272137482  1.0000
  C   C33       1.0  0.1590053843466563  0.8967974278303145  0.6525836541259339  1.0000
  C   C34       1.0  0.1704824578246331  0.2586342681721732  0.27940404474855296  1.0000
  C   C35       1.0  0.7216245673926309  0.7119688253023925  0.728600252944986  1.0000
  C   C36       1.0  0.20021184324419744  0.31505885463934663  0.1945124826047149  1.0000
  C   C37       1.0  0.6992093345529327  0.8038731794619449  0.6955722696238172  1.0000
  C   C38       1.0  0.2855071228300973  0.3169432448245998  0.16707714761457026  1.0000
  C   C39       1.0  0.7357166855608528  0.8390773009394649  0.7169574637375437  1.0000
  C   C40       1.0  0.33844451453811086  0.26294634269279266  0.2208474224727581  1.0000
  C   C41       1.0  0.789495976591454  0.7853569226961099  0.7697774205304313  1.0000
  C   C42       1.0  0.30929996543758875  0.2036647464735353  0.3049528456910481  1.0000
  C   C43       1.0  0.8095717477015328  0.693025615597179  0.8049609489225347  1.0000
  C   C44       1.0  0.14615556877507177  0.36678764082102316  0.13510459623493898  1.0000
  C   C45       1.0  0.6406871605287281  0.8621799193396953  0.6404067009025313  1.0000
  C   C46       1.0  0.22340203522730215  0.20445449397514173  0.33265942069416354  1.0000
  C   C47       1.0  0.7571939098674891  0.19215172941771638  0.3409432080576593  1.0000
  C   C48       1.0  0.7747113074975193  0.6585749397390542  0.781800541246362  1.0000
  C   C49       1.0  0.16168927817751214  0.1522867549548863  0.4005116372962477  1.0000
  C   C50       1.0  0.7650007400058672  0.5745877823468319  0.7985615020752519  1.0000
  C   C51       1.0  0.10149000397383653  0.21265416977610124  0.3378214169178478  1.0000
  C   C52       1.0  0.7036869139994694  0.6354969393533949  0.7369916048129427  1.0000
  C   C53       1.0  0.2856701604849976  0.6632097843743096  0.8160815651652772  1.0000
  C   C54       1.0  0.1560596609420629  0.27406249990717396  0.777677865971022  1.0000
  C   C55       1.0  0.2094440762911844  0.2201704913042661  0.7236972161230852  1.0000
  C   C56       1.0  0.19220125965243537  0.3037809256697414  0.804459926755854  1.0000
  C   C57       1.0  0.30192271859096564  0.1932698380572972  0.6932746845634341  1.0000
  C   C58       1.0  0.2858652042274415  0.27633078153197477  0.7742233028747523  1.0000
  C   C59       1.0  0.3389218731098256  0.22296568222149193  0.7203428732491588  1.0000
  C   C60       1.0  0.13064948416839434  0.2148789413550034  0.7225579539276837  1.0000
  C   C61       1.0  0.07035593381264252  0.2761038448057035  0.7831889969368434  1.0000
  C   C62       1.0  0.7793425124952693  0.7857609759876071  0.15947968698030474  1.0000
  C   C63       1.0  0.7253073755490786  0.8396602656823617  0.21326039407243527  1.0000
  C   C64       1.0  0.8065888035987925  0.6938191377235297  0.19480103742125737  1.0000
  C   C65       1.0  0.6956219083546955  0.8045181042008521  0.3052154355373061  1.0000
  C   C66       1.0  0.7775437348191689  0.6577068940085268  0.28795112233533626  1.0000
  C   C67       1.0  0.7237457509189937  0.7114051320214045  0.34153124370183735  1.0000
  C   C68       1.0  0.8632811452381189  0.6360206793302156  0.1382743193705167  1.0000
  C   C69       1.0  0.6374150677336631  0.8611641200085101  0.36290426326893044  1.0000
  C   C70       1.0  0.7236883501771136  0.9244258870191188  0.13554637329888664  1.0000
  C   C71       1.0  0.7846156044073214  0.8634323708123189  0.07462575158400832  1.0000
  C   C72       1.0  0.13672999500405336  0.36121543838025616  0.8616060779611133  1.0000
  Cl  Cl1       1.0  0.9924949242480353  0.2789051674920273  0.38821336138673257  1.0000
  Cl  Cl2       1.0  0.8627133476924911  0.4879228498835245  0.7660137940553114  1.0000
  Cl  Cl3       1.0  0.1131618110409889  0.15537736280967346  0.5102596474509795  1.0000
  Cl  Cl4       1.0  0.7503012639542349  0.6135464565866257  0.6353167129642755  1.0000
  Cl  Cl5       1.0  0.717535313191739  0.17087715517530458  0.10365591450210578  1.0000
  Cl  Cl6       1.0  0.992576127471466  0.8958038272603729  0.7901003083569835  1.0000
  O   O1        1.0  0.004547505283888137  0.4971436745757813  0.00033795597222051067  1.0000
  O   O2        1.0  0.321439064045407  0.11256979594814712  0.6139849444184123  1.0000
  O   O3        1.0  0.052621574870130375  0.3841689172215794  0.8840468132170543  1.0000
  O   O4        1.0  0.8959908670746304  0.6753900447665018  0.8766410727860505  1.0000
  O   O5        1.0  0.4507315414743687  0.1317057895075706  0.32100901462955284  1.0000
  O   O6        1.0  0.18770428405375134  0.3861300103146589  0.052009176621886935  1.0000
  O   O7        1.0  0.6183987301657653  0.9455087617749882  0.6199543686301754  1.0000
  O   O8        1.0  0.5034324085537067  0.9980220874746661  0.5001356794046715  1.0000
  O   O9        1.0  0.8736258928935288  0.5546999831152277  0.8973115942377136  1.0000
  O   O10       1.0  0.3307077036111609  0.10168538170156437  0.4395357111379212  1.0000
  O   O11       1.0  0.0625695190671607  0.3854045721188015  0.1739310020285245  1.0000
  O   O12       1.0  0.6178410681613471  0.8227261783125641  0.6188074774578713  1.0000
  O   O13       1.0  0.8854699278069948  0.6753068697320826  0.05477776289529146  1.0000
  O   O14       1.0  0.613973143621152  0.9446264567108001  0.3234554347690236  1.0000
  O   O15       1.0  0.17745749718752532  0.38268517978675476  0.8833934703700878  1.0000
  O   O16       1.0  0.4439847050037216  0.1166294745119671  0.6123407106821973  1.0000
  O   O17       1.0  0.06036690866168471  0.6730858433815072  0.8849883710931294  1.0000
  O   O18       1.0  0.6220031584277664  0.11320751060046058  0.3250752066406194  1.0000
  O   O19       1.0  0.8830687095604973  0.3838900849087209  0.059656074045058446  1.0000
  O   O20       1.0  0.3277608765521337  0.9384902464125486  0.6078283765960961  1.0000
  O   O21       1.0  0.1842965395100364  0.5507858684609772  0.8941669198435281  1.0000
  O   O22       1.0  0.6300547562844798  0.10467711753479847  0.44870506217804973  1.0000
  O   O23       1.0  0.9003034958432611  0.3697252295234037  0.18071388090013568  1.0000
  O   O24       1.0  0.8848441113746334  0.5525735692229929  0.1772979178881828  1.0000
  O   O25       1.0  0.4499200954557097  0.8182586321146205  0.6296245706722843  1.0000
  O   O26       1.0  0.6156262269081125  0.8220323518282768  0.44634138783207084  1.0000
