data_image0
_chemical_formula_structural       Cd2H30C38Br2N4O10
_chemical_formula_sum              "Cd2 H30 C38 Br2 N4 O10"
_cell_length_a       8.741986686548751
_cell_length_b       9.574042854342121
_cell_length_c       11.739298967356822
_cell_angle_alpha    103.54120906428375
_cell_angle_beta     90.00049671258759
_cell_angle_gamma    90.00252448152905

_space_group_name_H-M_alt    "P 1"
_space_group_IT_number       1

loop_
  _space_group_symop_operation_xyz
  'x, y, z'

loop_
  _atom_site_type_symbol
  _atom_site_label
  _atom_site_symmetry_multiplicity
  _atom_site_fract_x
  _atom_site_fract_y
  _atom_site_fract_z
  _atom_site_occupancy
  Cd  Cd1       1.0  0.7056046105264213  0.6421769239233224  0.983575717507989  1.0000
  Cd  Cd2       1.0  0.20561070179608265  0.35783624158658245  0.016439929729358486  1.0000
  H   H1        1.0  0.5595606795652301  0.015884930712388695  0.5505593456167688  1.0000
  H   H2        1.0  0.05961918336415548  0.9840908124790171  0.4494180855166334  1.0000
  H   H3        1.0  0.38354063257298066  0.8734221261130413  0.6460545759570522  1.0000
  H   H4        1.0  0.8835891989697374  0.12654031852283504  0.3539287929833748  1.0000
  H   H5        1.0  0.42424866375735354  0.8651509178714246  0.8535018689607339  1.0000
  H   H6        1.0  0.9242619827748227  0.13481649730756115  0.1464800961171235  1.0000
  H   H7        1.0  0.9573196910908593  0.15391631516172305  0.8383794684737537  1.0000
  H   H8        1.0  0.45735669476080437  0.8461091608419408  0.16160005279824222  1.0000
  H   H9        1.0  0.8824177596580255  0.11449782792504236  0.964961373141044  1.0000
  H   H10       1.0  0.38242540737372377  0.8855123036622028  0.035008132793755864  1.0000
  H   H11       1.0  0.6131098237898698  0.42900047160207305  0.14990120184539527  1.0000
  H   H12       1.0  0.11312694070557681  0.5710042442547517  0.8501114699617958  1.0000
  H   H13       1.0  0.6260482868890377  0.414764332487614  0.3584712041041128  1.0000
  H   H14       1.0  0.12606474642233678  0.585231018620412  0.6415297051002041  1.0000
  H   H15       1.0  0.7908342259122563  0.853426147381462  0.44193525567714426  1.0000
  H   H16       1.0  0.29081030925259904  0.14656957090836895  0.558086477642604  1.0000
  H   H17       1.0  0.7789430205498391  0.8458080114276496  0.22767260528222977  1.0000
  H   H18       1.0  0.27891287162972134  0.15418617047367178  0.7723513328072258  1.0000
  H   H19       1.0  0.5167841942728157  0.4884953547041061  0.5364785879065151  1.0000
  H   H20       1.0  0.0167858389221323  0.5115125091322168  0.4635313953504934  1.0000
  H   H21       1.0  0.5258853967434192  0.49541014916264436  0.7503495979069186  1.0000
  H   H22       1.0  0.025879584995465197  0.5045874487100047  0.2496612193215952  1.0000
  H   H23       1.0  0.8921227534941777  0.7781599983973988  0.8023133443499048  1.0000
  H   H24       1.0  0.3920878655499465  0.22187141501112245  0.19771616744954906  1.0000
  H   H25       1.0  0.9017418012205738  0.7808728580317347  0.5914323874342101  1.0000
  H   H26       1.0  0.4017401809702149  0.21915798044349794  0.408599648463337  1.0000
  H   H27       1.0  0.011639598477380296  0.7738115339258299  0.973141327564953  1.0000
  H   H28       1.0  0.5116307160111973  0.2261798964340968  0.026862351618923697  1.0000
  H   H29       1.0  0.03553191492257919  0.6531508940655256  0.0448797426058576  1.0000
  H   H30       1.0  0.535527308371165  0.34686187367777405  0.9551227059911227  1.0000
  C   C1        1.0  0.620653778604371  0.006609254508823897  0.8771064907023529  1.0000
  C   C2        1.0  0.12066651332017389  0.9933851897637778  0.12286951360747625  1.0000
  C   C3        1.0  0.7216393541117084  0.08883696308129169  0.8249752817550443  1.0000
  C   C4        1.0  0.22166362941615594  0.9111607333203433  0.1749951852955292  1.0000
  C   C5        1.0  0.6948781464648518  0.08890240355430017  0.7071826190196686  1.0000
  C   C6        1.0  0.1949038210879976  0.9110533964130378  0.29278462888663626  1.0000
  C   C7        1.0  0.575196055908762  0.01341765169738099  0.6421497680168214  1.0000
  C   C8        1.0  0.07523414006730178  0.986536301817203  0.35782653795160263  1.0000
  C   C9        1.0  0.4775587509851319  0.9331045472903623  0.696041883194674  1.0000
  C   C10       1.0  0.9776198689919227  0.06687818484814297  0.3039448278391959  1.0000
  C   C11       1.0  0.5005484064549391  0.9292275864235433  0.81271460352756  1.0000
  C   C12       1.0  0.0005644731315968  0.07076396410152336  0.18727197765323916  1.0000
  C   C13       1.0  0.6410500658524255  0.004052067778822299  0.005536689387525899  1.0000
  C   C14       1.0  0.1410458550994917  0.9959662335938118  0.9944580948148952  1.0000
  C   C15       1.0  0.8541263669492948  0.16565777529543613  0.8934536855033599  1.0000
  C   C16       1.0  0.3541472790475736  0.8343523739470056  0.10652329208870269  1.0000
  C   C17       1.0  0.8363131042416753  0.32679919311564015  0.9481384891833357  1.0000
  C   C18       1.0  0.33633019701032646  0.673207672964551  0.05186505640853768  1.0000
  C   C19       1.0  0.6539520968529543  0.5198964437226505  0.21739734432800623  1.0000
  C   C20       1.0  0.15396976109440888  0.48010472546729926  0.7826149987226145  1.0000
  C   C21       1.0  0.6592031688671438  0.5137377483413914  0.3344329742822865  1.0000
  C   C22       1.0  0.1592037197834983  0.4862572791784243  0.6655808931834741  1.0000
  C   C23       1.0  0.7083235507136506  0.6342034016798976  0.41932252774140005  1.0000
  C   C24       1.0  0.20831844545097064  0.36580213661962796  0.5806832911100059  1.0000
  C   C25       1.0  0.7534384121242182  0.7558307482545529  0.3803580295071142  1.0000
  C   C26       1.0  0.25343364591655865  0.24417246236222917  0.6196459988021061  1.0000
  C   C27       1.0  0.7458947354835671  0.7532976078806326  0.26152791072977516  1.0000
  C   C28       1.0  0.24587434793055243  0.24669036572625191  0.7384785250861724  1.0000
  C   C29       1.0  0.7101751167463419  0.633391608303256  0.5448239452646035  1.0000
  C   C30       1.0  0.2101799941890619  0.36661298471386045  0.45518342627705977  1.0000
  C   C31       1.0  0.6040579719724378  0.5519856711772775  0.5915249758584409  1.0000
  C   C32       1.0  0.10405133405964048  0.44801555535540405  0.4084921369800368  1.0000
  C   C33       1.0  0.6074390165823546  0.5560113191331411  0.7105994530328558  1.0000
  C   C34       1.0  0.10741589574602271  0.44399120100915457  0.2894204648238272  1.0000
  C   C35       1.0  0.8115922419799729  0.7142240560558973  0.7402930723206396  1.0000
  C   C36       1.0  0.3115909070484477  0.285816352731011  0.2597263597910597  1.0000
  C   C37       1.0  0.8159990380248273  0.7156558268520498  0.6222364252044554  1.0000
  C   C38       1.0  0.31601047956880984  0.28436864439206727  0.3777794127597359  1.0000
  Br  Br1       1.0  0.8296584416406246  0.19233767607296665  0.6269183576216192  1.0000
  Br  Br2       1.0  0.32968353520860927  0.8076685486053988  0.3730722488859541  1.0000
  N   N1        1.0  0.6959817777507593  0.6378390223868635  0.18163943906897373  1.0000
  N   N2        1.0  0.1959850489050154  0.3621509962909997  0.8183661482141815  1.0000
  N   N3        1.0  0.7090807361273191  0.6357920337915031  0.783591394059904  1.0000
  N   N4        1.0  0.20905863181373974  0.36422992512665775  0.21642751182371  1.0000
  O   O1        1.0  0.6961128283968135  0.8926554827387534  0.030345064280894046  1.0000
  O   O2        1.0  0.19609078690739776  0.10735243374061548  0.9696500056687541  1.0000
  O   O3        1.0  0.6013436973899714  0.11595415330640439  0.0814080692649171  1.0000
  O   O4        1.0  0.10136180207512518  0.884031111404681  0.918576425797113  1.0000
  O   O5        1.0  0.7219148773986319  0.3926477007284887  0.9172868530685533  1.0000
  O   O6        1.0  0.22191887844250857  0.6073646368151555  0.08271087253842778  1.0000
  O   O7        1.0  0.936281718114344  0.38653872981715404  0.021552876532936725  1.0000
  O   O8        1.0  0.43631384383129296  0.6134684651304241  0.9784573964706523  1.0000
  O   O9        1.0  0.9591398003679076  0.6919471093188958  0.9989298002201109  1.0000
  O   O10       1.0  0.4591341650027019  0.3080391411661693  0.0010590968114456997  1.0000
