data_image0
_chemical_formula_structural       Al6H20C90I30O28
_chemical_formula_sum              "Al6 H20 C90 I30 O28"
_cell_length_a       16.510102560959464
_cell_length_b       16.623909046686574
_cell_length_c       26.549431166247626
_cell_angle_alpha    89.80852267046251
_cell_angle_beta     90.3428064531979
_cell_angle_gamma    120.78026171937094

_space_group_name_H-M_alt    "P 1"
_space_group_IT_number       1

loop_
  _space_group_symop_operation_xyz
  'x, y, z'

loop_
  _atom_site_type_symbol
  _atom_site_label
  _atom_site_symmetry_multiplicity
  _atom_site_fract_x
  _atom_site_fract_y
  _atom_site_fract_z
  _atom_site_occupancy
  Al  Al1       1.0  0.5160696467194015  0.26610672521030654  0.5086248589295793  1.0000
  Al  Al2       1.0  0.710027609559724  0.26246899467964374  0.5017427314720494  1.0000
  Al  Al3       1.0  0.7178752487641447  0.44684222235781573  0.5022490471918745  1.0000
  Al  Al4       1.0  0.25406892142139986  0.5171069920772808  0.9998043126137759  1.0000
  Al  Al5       1.0  0.2635330497723131  0.7138084532583375  0.0021905271259968005  1.0000
  Al  Al6       1.0  0.4457387321773113  0.716078048727766  0.0021735489329160005  1.0000
  H   H1        1.0  0.008454621379876093  0.7044686699694296  0.719001660776911  1.0000
  H   H2        1.0  0.9655733767860684  0.6786575871458849  0.7818976626374124  1.0000
  H   H3        1.0  0.08916954211942134  0.7341719688294359  0.7702313407169967  1.0000
  H   H4        1.0  0.29558744922790947  0.30657042693704273  0.72629641077544  1.0000
  H   H5        1.0  0.32520799296216313  0.29000679827425546  0.7885401674074543  1.0000
  H   H6        1.0  0.2701646181896822  0.35729518400358984  0.7784836689593179  1.0000
  H   H7        1.0  0.6995124324537514  0.9917176585192562  0.7302167161815944  1.0000
  H   H8        1.0  0.7143989790778846  0.03612691599886377  0.7926641094879585  1.0000
  H   H9        1.0  0.6479025356149821  0.9127752270850706  0.7817171535106482  1.0000
  H   H10       1.0  0.707942553797274  0.009654590239030371  0.21868293546643264  1.0000
  H   H11       1.0  0.737629684121245  0.08948818218014037  0.2698531042059855  1.0000
  H   H12       1.0  0.6826197723522044  0.9667507568222644  0.2816642170881991  1.0000
  H   H13       1.0  0.30414844944139213  0.29583665873053616  0.22634258702903762  1.0000
  H   H14       1.0  0.35639005641925087  0.2708273749569301  0.27840968732557064  1.0000
  H   H15       1.0  0.28807022375502117  0.32476918656944764  0.288578600902774  1.0000
  H   H16       1.0  0.9911683971643866  0.6984185234895858  0.22940580177625952  1.0000
  H   H17       1.0  0.9118912236364596  0.6463812098370026  0.2807730092708169  1.0000
  H   H18       1.0  0.03612383151343595  0.7127347262749736  0.2919203657667993  1.0000
  H   H19       1.0  0.3634329645848382  0.19371461479603616  0.4754024293080477  1.0000
  H   H20       1.0  0.15859171085568854  0.36237035274700696  0.027439030274322804  1.0000
  C   C1        1.0  0.5952887923129423  0.44641172633311726  0.5693145225399264  1.0000
  C   C2        1.0  0.564486385641807  0.15700710257790013  0.5738959977626622  1.0000
  C   C3        1.0  0.8362120562222656  0.39599768946398917  0.5669647179385323  1.0000
  C   C4        1.0  0.4431374114904401  0.5930693117292519  0.06778960144568201  1.0000
  C   C5        1.0  0.15308593953660934  0.564910439954353  0.07195995435539261  1.0000
  C   C6        1.0  0.39660035872626775  0.8369028634699517  0.0673656799211599  1.0000
  C   C7        1.0  0.5667546490136531  0.4121733546819043  0.4345242666910565  1.0000
  C   C8        1.0  0.5953450154536527  0.14061706778663563  0.43432633814968824  1.0000
  C   C9        1.0  0.8372066965562439  0.43712428921041624  0.4365588055688221  1.0000
  C   C10       1.0  0.40991752441192375  0.5694956342413204  0.9324223639571798  1.0000
  C   C11       1.0  0.14399519097301547  0.5909318970706677  0.9344874082312059  1.0000
  C   C12       1.0  0.43524900526626453  0.8376675594289934  0.9371817700636457  1.0000
  C   C13       1.0  0.06524662761808044  0.5575260541990517  0.716354168770316  1.0000
  C   C14       1.0  0.4455607973571389  0.5116544872491742  0.7212052132952208  1.0000
  C   C15       1.0  0.49256645520961256  0.9293146284321522  0.7231696062195708  1.0000
  C   C16       1.0  0.5587862105195073  0.06488273101030022  0.21602042845166386  1.0000
  C   C17       1.0  0.5103088116297059  0.4446525029729357  0.22103288768835228  1.0000
  C   C18       1.0  0.929374096355666  0.4929548835620991  0.22257612575545244  1.0000
  C   C19       1.0  0.008970226654930996  0.58744554768964  0.7522644564466533  1.0000
  C   C20       1.0  0.4164913343057891  0.42596578409733604  0.7578698685849191  1.0000
  C   C21       1.0  0.5780196891329723  0.9873949576049055  0.7606878894735021  1.0000
  C   C22       1.0  0.5899810369270426  0.009120417952090152  0.25180100121964705  1.0000
  C   C23       1.0  0.4244730395993059  0.4161335062527625  0.257619029380308  1.0000
  C   C24       1.0  0.9874956547449332  0.5776801485616473  0.2600540405469616  1.0000
  C   C25       1.0  0.0891249717634536  0.5711017654259078  0.8890418534691733  1.0000
  C   C26       1.0  0.43974844656420947  0.5357489140280051  0.8907867871273326  1.0000
  C   C27       1.0  0.47138226854232823  0.8986390020172192  0.8942402668602368  1.0000
  C   C28       1.0  0.5786796063544131  0.08744507045965835  0.3886207482204398  1.0000
  C   C29       1.0  0.5341403776884662  0.4401650952032553  0.39137948172865583  1.0000
  C   C30       1.0  0.8981381586317737  0.4725384115405259  0.39351533577810477  1.0000
  C   C31       1.0  0.8972341502255433  0.4207517336302826  0.6101789612588532  1.0000
  C   C32       1.0  0.575320122990462  0.48383196105346826  0.6128917206084736  1.0000
  C   C33       1.0  0.5304848018922926  0.09453722142466593  0.6164444473593491  1.0000
  C   C34       1.0  0.4219042455353944  0.8976536544893817  0.11031615419280882  1.0000
  C   C35       1.0  0.47987762680173773  0.5722476291900945  0.11202158113280801  1.0000
  C   C36       1.0  0.09374590671489366  0.532036943946501  0.1157709928571933  1.0000
  C   C37       1.0  0.07922701018586774  0.5030524404159918  0.760798233444838  1.0000
  C   C38       1.0  0.5038521891900202  0.5822059984455874  0.7644364296591777  1.0000
  C   C39       1.0  0.4203523094675178  0.9135175705416  0.7657986522040973  1.0000
  C   C40       1.0  0.5044537799364478  0.07792529515443636  0.2606486132756345  1.0000
  C   C41       1.0  0.5818669365117587  0.5024806071484845  0.2641487272086139  1.0000
  C   C42       1.0  0.9139888006678022  0.42109681102755275  0.26535487305037014  1.0000
  C   C43       1.0  0.02306545860830063  0.5326557420832002  0.797129240407827  1.0000
  C   C44       1.0  0.4755320009980438  0.4969561945929043  0.801747590146057  1.0000
  C   C45       1.0  0.5052510585413547  0.9715458990866425  0.8039385772898414  1.0000
  C   C46       1.0  0.5354911636547827  0.022420537432765352  0.29681827856917664  1.0000
  C   C47       1.0  0.49645285715741505  0.4747672458954425  0.30131631532794506  1.0000
  C   C48       1.0  0.9719187802292525  0.5052740248310242  0.30347894624450333  1.0000
  C   C49       1.0  0.9855374033893155  0.411192658730357  0.7455022513492296  1.0000
  C   C50       1.0  0.5945830139188927  0.5811192747310513  0.7481486424067043  1.0000
  C   C51       1.0  0.4215544018856576  0.0050416230660062095  0.7493604444585386  1.0000
  C   C52       1.0  0.4120760573319234  0.984681603700892  0.245486616971391  1.0000
  C   C53       1.0  0.5809585916380299  0.592725253795791  0.2473322908025324  1.0000
  C   C54       1.0  0.00647295628682082  0.4231335424084292  0.24930378071902476  1.0000
  C   C55       1.0  0.9711966889492132  0.46499290985865094  0.7003501548012636  1.0000
  C   C56       1.0  0.5368772074803873  0.5112207514752709  0.7041047826559536  1.0000
  C   C57       1.0  0.4932514366569123  0.02055924380023547  0.7060315559037847  1.0000
  C   C58       1.0  0.46576146772280697  0.9712095849877967  0.20020111441456123  1.0000
  C   C59       1.0  0.5098287701760996  0.535263739799923  0.20340421704689501  1.0000
  C   C60       1.0  0.02177482407403644  0.49450878957097183  0.20581378814731724  1.0000
  C   C61       1.0  0.928888535188449  0.44027223332671633  0.7816748911979444  1.0000
  C   C62       1.0  0.566364187165327  0.49567907401061695  0.7848950726691513  1.0000
  C   C63       1.0  0.5064470599696662  0.06351693594935884  0.7870231790294114  1.0000
  C   C64       1.0  0.4425076041019266  0.928638812230211  0.28160438401690163  1.0000
  C   C65       1.0  0.4954212478137805  0.5651382204882436  0.2840246758559317  1.0000
  C   C66       1.0  0.06487941397100624  0.5072308722514051  0.28700886323418473  1.0000
  C   C67       1.0  0.9156483403097226  0.49499331382334294  0.7371222623699155  1.0000
  C   C68       1.0  0.5076522581336391  0.4257937759013401  0.7413381960139418  1.0000
  C   C69       1.0  0.5778389352488632  0.07817629334372354  0.7442279283033458  1.0000
  C   C70       1.0  0.497070456507089  0.9161826213859923  0.236910111961997  1.0000
  C   C71       1.0  0.4244862478626032  0.5068492886648028  0.24065640485859774  1.0000
  C   C72       1.0  0.07923500213426841  0.5782802499670436  0.2440065519189005  1.0000
  C   C73       1.0  0.054456842295927434  0.5595056689203586  0.8471291366001311  1.0000
  C   C74       1.0  0.4511590959685422  0.5053133563554013  0.8514586988175169  1.0000
  C   C75       1.0  0.4974652770038333  0.9384956609601927  0.8537715606368649  1.0000
  C   C76       1.0  0.5645192304443823  0.05333415887687915  0.34665498492140756  1.0000
  C   C77       1.0  0.5045587154085851  0.45089501007724647  0.3512936996073818  1.0000
  C   C78       1.0  0.9384640029313829  0.49759720518702005  0.35314485029726944  1.0000
  C   C79       1.0  0.9371641998827229  0.4362112350390389  0.6508688263758701  1.0000
  C   C80       1.0  0.5626777817576071  0.506727013386147  0.6542764263811096  1.0000
  C   C81       1.0  0.5012669130406097  0.053634606902285525  0.6563653013693554  1.0000
  C   C82       1.0  0.4365727864608147  0.9375231988099129  0.1507572615497423  1.0000
  C   C83       1.0  0.5044353220219764  0.5604305454973966  0.15336834592510232  1.0000
  C   C84       1.0  0.05443980244632479  0.5028527890791067  0.15609751282445933  1.0000
  C   C85       1.0  0.018955904852305146  0.681616548600175  0.7561264177097726  1.0000
  C   C86       1.0  0.32138508559648227  0.3404131724610977  0.7631599752208589  1.0000
  C   C87       1.0  0.6645586281866972  0.9812790953987117  0.7667887761352647  1.0000
  C   C88       1.0  0.6850725903512681  0.019704120626876438  0.25573763535420113  1.0000
  C   C89       1.0  0.33865125285543474  0.3214940281789963  0.263153711604062  1.0000
  C   C90       1.0  0.9808748650789242  0.6633288014736605  0.2659857990718137  1.0000
  I   I1        1.0  0.1674555960907044  0.643042264515742  0.6630847568768915  1.0000
  I   I2        1.0  0.35865823909067285  0.5259488514821129  0.6680771961883708  1.0000
  I   I3        1.0  0.4793986055835617  0.8306104317322249  0.6693665061845665  1.0000
  I   I4        1.0  0.6432892704380607  0.16720272317817111  0.16258705236324997  1.0000
  I   I5        1.0  0.5235641120477866  0.35761418625921243  0.1685520917383059  1.0000
  I   I6        1.0  0.8294070481398207  0.47951606261440805  0.16854637440339104  1.0000
  I   I7        1.0  0.790113700171716  0.4858482663699347  0.7127666313066002  1.0000
  I   I8        1.0  0.5099126377916859  0.30680775231981255  0.717432879668138  1.0000
  I   I9        1.0  0.6952399707889467  0.20413945769983133  0.7207870482722994  1.0000
  I   I10       1.0  0.48900922537030306  0.7923890533308151  0.21253283824226804  1.0000
  I   I11       1.0  0.30540489612935323  0.5109815600669165  0.21665688275516715  1.0000
  I   I12       1.0  0.20560289038163396  0.6956414405304654  0.2207613084776767  1.0000
  I   I13       1.0  0.8301122532698886  0.35839036965341337  0.8368721548300898  1.0000
  I   I14       1.0  0.6532854015561256  0.48052474443733195  0.8372670438418766  1.0000
  I   I15       1.0  0.5200369924077108  0.16471113832697878  0.8388760748878497  1.0000
  I   I16       1.0  0.3612644575287548  0.8300993637737972  0.33696794079355646  1.0000
  I   I17       1.0  0.4811086425846869  0.6517813575757002  0.33602543971792204  1.0000
  I   I18       1.0  0.16697597673253728  0.5210011365701489  0.3393187315437133  1.0000
  I   I19       1.0  0.9727645946112419  0.27932016847390173  0.7396978860517507  1.0000
  I   I20       1.0  0.7285794523657289  0.7010890480894003  0.7400771626995138  1.0000
  I   I21       1.0  0.3018327029980271  0.016818432549193577  0.7401037075621132  1.0000
  I   I22       1.0  0.27873080636963043  0.9710925771150087  0.2398953672739381  1.0000
  I   I23       1.0  0.7017689111927368  0.7257513588778861  0.23906566547596947  1.0000
  I   I24       1.0  0.018361763365113914  0.3041822068622793  0.24062767194538992  1.0000
  I   I25       1.0  0.20392070913445803  0.5115755655786032  0.7855507360174344  1.0000
  I   I26       1.0  0.4953750849991749  0.6975263378482166  0.7879987101918361  1.0000
  I   I27       1.0  0.3035947983515827  0.7859944863492386  0.7879879132162061  1.0000
  I   I28       1.0  0.5122313754978621  0.20119235703127467  0.2851999695776897  1.0000
  I   I29       1.0  0.6974028837575901  0.4928858436380778  0.2883697170963019  1.0000
  I   I30       1.0  0.7864690699447935  0.304110449383053  0.2875013042897478  1.0000
  O   O1        1.0  0.5191035231456097  0.19800018120088222  0.5647606266365628  1.0000
  O   O2        1.0  0.8063994979983207  0.31385990473227565  0.5485040700368132  1.0000
  O   O3        1.0  0.6807048559189824  0.4948812570509488  0.552729828132641  1.0000
  O   O4        1.0  0.1876561559301493  0.5152694402070208  0.0591726679102464  1.0000
  O   O5        1.0  0.31370888229051264  0.8084690855238956  0.048803586085263403  1.0000
  O   O6        1.0  0.4943035116300722  0.6794861132565087  0.052423150406042396  1.0000
  O   O7        1.0  0.5309134982182898  0.36892193119847844  0.5518332857165548  1.0000
  O   O8        1.0  0.6371674031644831  0.16848795941864125  0.5503718423101845  1.0000
  O   O9        1.0  0.8129295170880299  0.4538441996032887  0.5513685689855237  1.0000
  O   O10       1.0  0.36624017398212777  0.5312708561767251  0.0489703657423703  1.0000
  O   O11       1.0  0.16823272882498944  0.6406385927561898  0.050589990139762606  1.0000
  O   O12       1.0  0.45343015109889956  0.8123747984897346  0.0519904800865731  1.0000
  O   O13       1.0  0.5321303180817765  0.15218141441047087  0.45183988737495895  1.0000
  O   O14       1.0  0.8095448506356179  0.3549686073911503  0.45206136124909346  1.0000
  O   O15       1.0  0.6454682675728308  0.47183555330350657  0.4550127700715337  1.0000
  O   O16       1.0  0.15954989319894256  0.5298897187969372  0.9523852166741094  1.0000
  O   O17       1.0  0.3526573458576935  0.8112657799956365  0.9525505973284111  1.0000
  O   O18       1.0  0.4705150339402308  0.6457050381353252  0.9543560869290034  1.0000
  O   O19       1.0  0.5138277113686555  0.327546075577949  0.4479072619356401  1.0000
  O   O20       1.0  0.6812469191795572  0.17727402226868358  0.4525682437175433  1.0000
  O   O21       1.0  0.811739831658315  0.4927123648283212  0.4551116262715453  1.0000
  O   O22       1.0  0.3230391561037039  0.5201179152332569  0.9425568956035947  1.0000
  O   O23       1.0  0.17645034243837174  0.6750573599520988  0.952080662055174  1.0000
  O   O24       1.0  0.49033878187283614  0.8110100057653039  0.9556516142917176  1.0000
  O   O25       1.0  0.6480975593356246  0.32338932259264636  0.5022359154017836  1.0000
  O   O26       1.0  0.32172716272518204  0.6499429816552434  0.0017099302213595005  1.0000
  O   O27       1.0  0.394453179810256  0.19188921115878796  0.5060272038411284  1.0000
  O   O28       1.0  0.1952457298334735  0.3951336206739667  0.9981122324385938  1.0000
