data_image0
_chemical_formula_structural       Zn2H13C36I3N2Cl4O8
_chemical_formula_sum              "Zn2 H13 C36 I3 N2 Cl4 O8"
_cell_length_a       9.843484026071973
_cell_length_b       10.63516191593206
_cell_length_c       14.030577320544802
_cell_angle_alpha    92.75732803676902
_cell_angle_beta     116.41598194365042
_cell_angle_gamma    80.69712578192947

_space_group_name_H-M_alt    "P 1"
_space_group_IT_number       1

loop_
  _space_group_symop_operation_xyz
  'x, y, z'

loop_
  _atom_site_type_symbol
  _atom_site_label
  _atom_site_symmetry_multiplicity
  _atom_site_fract_x
  _atom_site_fract_y
  _atom_site_fract_z
  _atom_site_occupancy
  Zn  Zn1       1.0  0.37945857935269345  0.5008553738621659  0.48911110859847184  1.0000
  Zn  Zn2       1.0  0.6916210029514503  0.4513333327262572  0.4955454501047356  1.0000
  H   H1        1.0  0.26956522585476966  0.2467023041071954  0.4718119010695006  1.0000
  H   H2        1.0  0.4172032870940185  0.1395347760557826  0.8999761442512267  1.0000
  H   H3        1.0  0.5055142279198251  0.5794468171629249  0.8684055000712833  1.0000
  H   H4        1.0  0.4086826635804499  0.7905412057543942  0.2457753924766521  1.0000
  H   H5        1.0  0.4560618339587421  0.7122794812534254  0.9583316536356962  1.0000
  H   H6        1.0  0.0321443358146212  0.16256609014292425  0.4294721499352008  1.0000
  H   H7        1.0  0.028797342570925408  0.9287614707364543  0.418642629868721  1.0000
  H   H8        1.0  0.2709684093877911  0.7807546848264054  0.4661383328495248  1.0000
  H   H9        1.0  0.7976757546383411  0.8281243927632006  0.5861250170994836  1.0000
  H   H10       1.0  0.7271269970775904  0.34477296377860267  0.1223533492130429  1.0000
  H   H11       1.0  0.09717410068533641  0.5642588320142254  0.27224556836031166  1.0000
  H   H12       1.0  0.3195907101974599  0.2066496606283863  0.02963068230739201  1.0000
  H   H13       1.0  0.2343161501533259  0.5274823660702667  0.6324122692402696  1.0000
  C   C1        1.0  0.5490032863943383  0.2512359212179902  0.5024919133546604  1.0000
  C   C2        1.0  0.38277044211093875  0.6001089438144974  0.18864311442288786  1.0000
  C   C3        1.0  0.2708921952975487  0.14480378486154416  0.4691477675954375  1.0000
  C   C4        1.0  0.4182153530150289  0.5528497499725163  0.2982856853883717  1.0000
  C   C5        1.0  0.1375933228423065  0.09746819972799162  0.4450571352919184  1.0000
  C   C6        1.0  0.13580226406639176  0.9653288460603666  0.44029385946907956  1.0000
  C   C7        1.0  0.2707142356127648  0.8826298997688797  0.46628859516263793  1.0000
  C   C8        1.0  0.41239813191958063  0.9277728522688097  0.4965853539432246  1.0000
  C   C9        1.0  0.4120755740991697  0.06307752790640819  0.49248895074332205  1.0000
  C   C10       1.0  0.552956871833821  0.11216338315092862  0.5177122155312901  1.0000
  C   C11       1.0  0.690223344536527  0.025692464884173195  0.5547642431483482  1.0000
  C   C12       1.0  0.40983206634822267  0.5520091287668905  0.024236455917716133  1.0000
  C   C13       1.0  0.6899417427322305  0.8936736367427546  0.5592529378690898  1.0000
  C   C14       1.0  0.5561864803271492  0.8442138007442284  0.5307086033690069  1.0000
  C   C15       1.0  0.8108859585077186  0.3607345807259322  0.2919008076266323  1.0000
  C   C16       1.0  0.5703972616411194  0.7021285585053719  0.5382231651681906  1.0000
  C   C17       1.0  0.803662314250076  0.3879339798077766  0.19421643490404245  1.0000
  C   C18       1.0  0.8986411553674857  0.46980289647276413  0.18647465641985417  1.0000
  C   C19       1.0  0.013720301805015806  0.5116657191159177  0.2765184352210284  1.0000
  C   C20       1.0  0.022952148598321294  0.48382677499239446  0.376501347632292  1.0000
  C   C21       1.0  0.9094318509518259  0.42077448457762756  0.38456159996127326  1.0000
  C   C22       1.0  0.012328204648774503  0.4612649717373997  0.5652011718210659  1.0000
  C   C23       1.0  0.3746272194126518  0.5135342950714803  0.10622352835240889  1.0000
  C   C24       1.0  0.137590118948367  0.5050606550271513  0.5602714959475108  1.0000
  C   C25       1.0  0.5522220517963277  0.42958378598248004  0.7259843570122584  1.0000
  C   C26       1.0  0.43407440388331503  0.23677946133357622  0.8925584231263813  1.0000
  C   C27       1.0  0.5095052579126785  0.3916501941547993  0.8107718194628007  1.0000
  C   C28       1.0  0.4009800121558129  0.7254145921878605  0.18176790302122467  1.0000
  C   C29       1.0  0.42114462904340394  0.7649243804166874  0.09536832600772273  1.0000
  C   C30       1.0  0.4310179859916444  0.6797365744829662  0.020273153762715893  1.0000
  C   C31       1.0  0.4303794876694411  0.4586080487932592  0.9507614381596028  1.0000
  C   C32       1.0  0.4038669863971549  0.3320220614499975  0.9572418441806932  1.0000
  C   C33       1.0  0.34895450023785207  0.30128686131218535  0.03008405547869593  1.0000
  C   C34       1.0  0.3358151565430277  0.3878368342127844  0.1017866928605713  1.0000
  C   C35       1.0  0.48218105754978774  0.4846284541260387  0.8758252931576395  1.0000
  C   C36       1.0  0.48752384694797263  0.26586972281608456  0.8218171606418281  1.0000
  I   I1        1.0  0.0013584811347228983  0.4595214726490937  0.7102224136939485  1.0000
  I   I2        1.0  0.698507565767315  0.2137792650836445  0.30127687285432364  1.0000
  I   I3        1.0  0.915989371786658  0.06729576775968842  0.6105531320405859  1.0000
  N   N1        1.0  0.9016208871761506  0.4196320777212394  0.47971543559121693  1.0000
  N   N2        1.0  0.14216440148110374  0.5165714209125768  0.46831266007895783  1.0000
  Cl  Cl1       1.0  0.5323503531452687  0.1448262928578288  0.7490715960569504  1.0000
  Cl  Cl2       1.0  0.8738788544723944  0.5091343286650272  0.06185414219215345  1.0000
  Cl  Cl3       1.0  0.4455703182744842  0.9217645168525838  0.08840580430525335  1.0000
  Cl  Cl4       1.0  0.26850429838273726  0.3417208451739456  0.1871632294799213  1.0000
  O   O1        1.0  0.42503210207134867  0.3198862198809637  0.4392054340004564  1.0000
  O   O2        1.0  0.6754620309938063  0.29579066604422627  0.553412356556727  1.0000
  O   O3        1.0  0.3297733892225665  0.5864720455873995  0.34173430572950286  1.0000
  O   O4        1.0  0.5518144423948783  0.4868975059019647  0.3419578499079492  1.0000
  O   O5        1.0  0.4739250431588786  0.6557673472460409  0.5569913526597787  1.0000
  O   O6        1.0  0.6812264559607614  0.6363032097732458  0.5240447901017903  1.0000
  O   O7        1.0  0.4422505807809641  0.417474441027288  0.6315271291274982  1.0000
  O   O8        1.0  0.6741843564949194  0.469500572835962  0.7497728471417916  1.0000
