data_image0
_chemical_formula_structural       In4H48C96O32
_chemical_formula_sum              "In4 H48 C96 O32"
_cell_length_a       14.65352252180183
_cell_length_b       14.584593948193984
_cell_length_c       19.473052442432234
_cell_angle_alpha    111.96921945980505
_cell_angle_beta     112.01830598919331
_cell_angle_gamma    90.04121852177938

_space_group_name_H-M_alt    "P 1"
_space_group_IT_number       1

loop_
  _space_group_symop_operation_xyz
  'x, y, z'

loop_
  _atom_site_type_symbol
  _atom_site_label
  _atom_site_symmetry_multiplicity
  _atom_site_fract_x
  _atom_site_fract_y
  _atom_site_fract_z
  _atom_site_occupancy
  In  In1       1.0  0.6375390536682628  0.3876707777081662  0.27535734747137036  1.0000
  In  In2       1.0  0.8882845210770822  0.13794326845376753  0.7761364568837336  1.0000
  In  In3       1.0  0.362452604735985  0.6123383364431375  0.7246558411920461  1.0000
  In  In4       1.0  0.11171601061700895  0.8621151402511273  0.22386420283341127  1.0000
  H   H1        1.0  0.37523880276145855  0.3570303727349041  0.0399581904734347  1.0000
  H   H2        1.0  0.6834907348861349  0.875409085932354  0.5403660437705966  1.0000
  H   H3        1.0  0.6648749916238045  0.18259595157379488  0.03991455624195336  1.0000
  H   H4        1.0  0.8567926480541813  0.16509427525127046  0.5405233466872019  1.0000
  H   H5        1.0  0.6247744620166029  0.6429281921205217  0.9599908357281989  1.0000
  H   H6        1.0  0.3164947557910977  0.1245679442322398  0.4596683693026406  1.0000
  H   H7        1.0  0.3351742973244283  0.817391597081425  0.9601416220512248  1.0000
  H   H8        1.0  0.14312709504191884  0.8347934462993931  0.4594476892273817  1.0000
  H   H9        1.0  0.2106273459895217  0.28701692047852845  0.9217729122449895  1.0000
  H   H10       1.0  0.6355654661979171  0.7107020219687781  0.4214938236621251  1.0000
  H   H11       1.0  0.7113038039424777  0.13464339797823038  0.9215666384598791  1.0000
  H   H12       1.0  0.7862619594562829  0.2111198889173806  0.42174998317585016  1.0000
  H   H13       1.0  0.7893343917676032  0.7129863360279459  0.0782276417278213  1.0000
  H   H14       1.0  0.36444932579213657  0.28934574003380215  0.5784867845386045  1.0000
  H   H15       1.0  0.2886741106787767  0.8653374000682277  0.0784550742490496  1.0000
  H   H16       1.0  0.21378709898591072  0.7888897262042249  0.5782756106470258  1.0000
  H   H17       1.0  0.061882751706043695  0.030306923108376824  0.9651320901658877  1.0000
  H   H18       1.0  0.9346279304957006  0.5614273550486999  0.464509452487654  1.0000
  H   H19       1.0  0.9031890165357054  0.4347950329444927  0.964923044176217  1.0000
  H   H20       1.0  0.5299596529644004  0.4030805638614511  0.4647552198821997  1.0000
  H   H21       1.0  0.938087395722469  0.9697618235518135  0.03494167975043899  1.0000
  H   H22       1.0  0.06539602596191671  0.43862337839745186  0.535432736739942  1.0000
  H   H23       1.0  0.09679346607346416  0.5651784611163393  0.03506084466589953  1.0000
  H   H24       1.0  0.4700799513983184  0.5969303394093473  0.5352394632237321  1.0000
  H   H25       1.0  0.11291889444955669  0.9683192443122906  0.07494200279874262  1.0000
  H   H26       1.0  0.10553339658021325  0.6126977258427857  0.5745867490312193  1.0000
  H   H27       1.0  0.9618900487021661  0.606472973497411  0.07494249283232081  1.0000
  H   H28       1.0  0.4687447837891409  0.46173512022287605  0.5747549181598685  1.0000
  H   H29       1.0  0.8871016210657101  0.03175616021528067  0.9251379621765423  1.0000
  H   H30       1.0  0.8944884177320204  0.3873348144138832  0.42535546815248876  1.0000
  H   H31       1.0  0.03810635131928533  0.39350820913729484  0.9250389008164247  1.0000
  H   H32       1.0  0.5312779125487664  0.5382763696939749  0.42522521732774277  1.0000
  H   H33       1.0  0.2746547722956406  0.04101478341882368  0.19309832117355083  1.0000
  H   H34       1.0  0.15060625251819432  0.7747104697042887  0.6928890997269761  1.0000
  H   H35       1.0  0.9182243487585422  0.6516829179415922  0.193185473300403  1.0000
  H   H36       1.0  0.5416790369454387  0.4180160876440482  0.6931098427980728  1.0000
  H   H37       1.0  0.7253866169242824  0.9590626253697752  0.8069496418595392  1.0000
  H   H38       1.0  0.849423345118481  0.22531064142391696  0.30707416062108445  1.0000
  H   H39       1.0  0.08179469496496229  0.3483009113496749  0.8068087468524681  1.0000
  H   H40       1.0  0.4583114261803514  0.5819950005857492  0.3068665241420803  1.0000
  H   H41       1.0  0.39001736908254964  0.17313746491498702  0.2002273011822595  1.0000
  H   H42       1.0  0.02596651047515741  0.8901407948930354  0.7002073662851841  1.0000
  H   H43       1.0  0.8100920543756656  0.5265631402301737  0.20033340812522477  1.0000
  H   H44       1.0  0.6737970235163215  0.31000176183487566  0.7004424441178683  1.0000
  H   H45       1.0  0.6100154209183654  0.8268917572956767  0.7997681204890411  1.0000
  H   H46       1.0  0.974044334960375  0.10985685858483399  0.29979065631730595  1.0000
  H   H47       1.0  0.18994010930433078  0.47341821224858194  0.7996782762579144  1.0000
  H   H48       1.0  0.3261458084122636  0.6899521881658827  0.29952578239733196  1.0000
  C   C1        1.0  0.1672506427092485  0.181593487677425  0.9605977008138068  1.0000
  C   C2        1.0  0.7791408133942352  0.6671430069811493  0.46014164229823246  1.0000
  C   C3        1.0  0.7933889660087556  0.2789155665831231  0.9604434156081892  1.0000
  C   C4        1.0  0.6811243207465478  0.29317828967982257  0.4603947807338143  1.0000
  C   C5        1.0  0.8327241091033882  0.8184419659124842  0.03942852194582971  1.0000
  C   C6        1.0  0.22087647190135568  0.3328954732058024  0.5398198674381334  1.0000
  C   C7        1.0  0.2065999838076421  0.7210635981757391  0.039560280103032135  1.0000
  C   C8        1.0  0.31891989932780945  0.7068319691675881  0.5396200740098535  1.0000
  C   C9        1.0  0.19473500749573694  0.1404233070561602  0.020403808886143807  1.0000
  C   C10       1.0  0.8796866743230963  0.6944414829356874  0.5199998254277817  1.0000
  C   C11       1.0  0.8257175868512048  0.37980742991410205  0.020312553100069377  1.0000
  C   C12       1.0  0.6402025397836294  0.3255057356198777  0.5202073153251873  1.0000
  C   C13       1.0  0.8052502993146218  0.859615938753876  0.9796247346450002  1.0000
  C   C14       1.0  0.12032680404146835  0.30558659251884285  0.4799719732775714  1.0000
  C   C15       1.0  0.17428893086675126  0.6201705728111265  0.9796929762896623  1.0000
  C   C16       1.0  0.35981049923525865  0.6744864046867248  0.4797861782986103  1.0000
  C   C17       1.0  0.2901474095446445  0.18015516416667776  0.0881403377298824  1.0000
  C   C18       1.0  0.9074759667500625  0.7899224461718503  0.5880209007482832  1.0000
  C   C19       1.0  0.7981039668481884  0.40764302532767266  0.08815817123952034  1.0000
  C   C20       1.0  0.6802520729565911  0.2979973049947588  0.5882174474704698  1.0000
  C   C21       1.0  0.7098587909982894  0.8198686590683126  0.9118635784901626  1.0000
  C   C22       1.0  0.09252982469205039  0.21008510379257217  0.41197808774838046  1.0000
  C   C23       1.0  0.20192445468471465  0.5923367781728572  0.9118587044444695  1.0000
  C   C24       1.0  0.3197139546053549  0.7019644271526035  0.41175897611456247  1.0000
  C   C25       1.0  0.3542576031552897  0.25846563160554586  0.093765518586892  1.0000
  C   C26       1.0  0.8350792833290013  0.8540607883169287  0.593966247311144  1.0000
  C   C27       1.0  0.7397080048495821  0.334902271220038  0.093797442941522  1.0000
  C   C28       1.0  0.7586478357241047  0.23987554456022764  0.5941514740610643  1.0000
  C   C29       1.0  0.6457606851893797  0.7415269552843284  0.9062123935759203  1.0000
  C   C30       1.0  0.16491689992498942  0.14593077484175854  0.40606324104977887  1.0000
  C   C31       1.0  0.26033744315915874  0.6650813408369273  0.9062385712716504  1.0000
  C   C32       1.0  0.24127529167429163  0.7600373267356985  0.4058081710202259  1.0000
  C   C33       1.0  0.3256076800991394  0.29636030539872854  0.03416590463274365  1.0000
  C   C34       1.0  0.7380605207370435  0.8256264956986429  0.5343189377252173  1.0000
  C   C35       1.0  0.7087491357397936  0.23747635163672237  0.034137688550487225  1.0000
  C   C36       1.0  0.7961790326361394  0.208805123347176  0.5344957062614029  1.0000
  C   C37       1.0  0.6744000113321602  0.7036246627155764  0.9658088869958731  1.0000
  C   C38       1.0  0.2619394275323329  0.1743716456370166  0.46569946190404465  1.0000
  C   C39       1.0  0.2912872982737364  0.7625056148802755  0.9659019982294833  1.0000
  C   C40       1.0  0.20377008904676316  0.7911150298514329  0.4654815941310204  1.0000
  C   C41       1.0  0.2337239876299362  0.25744598103286626  0.9682882521716463  1.0000
  C   C42       1.0  0.7112954375027057  0.7337687165497756  0.4680826595092  1.0000
  C   C43       1.0  0.7346911980561187  0.21066275888561142  0.9681502662635069  1.0000
  C   C44       1.0  0.7569336711822174  0.23454137451583537  0.46830405444293194  1.0000
  C   C45       1.0  0.7662565327811774  0.7425658641532138  0.03171612318239887  1.0000
  C   C46       1.0  0.28871911376435827  0.26626402320574977  0.5319013614941284  1.0000
  C   C47       1.0  0.26531110914942957  0.7893183814767396  0.03187114742440402  1.0000
  C   C48       1.0  0.24308564806865712  0.7654445019048169  0.5317038138433716  1.0000
  C   C49       1.0  0.13300300937662257  0.062149477857076384  0.016987161918230194  1.0000
  C   C50       1.0  0.954314158200219  0.6326549178128289  0.5165063869627033  1.0000
  C   C51       1.0  0.8839668039333117  0.45470165086004494  0.01687333248760582  1.0000
  C   C52       1.0  0.5620620603314986  0.38375515923196696  0.5167140146484356  1.0000
  C   C53       1.0  0.8669858228940296  0.9379092456699283  0.9830657514360581  1.0000
  C   C54       1.0  0.045704124258406816  0.36738115104456875  0.4834501618105165  1.0000
  C   C55       1.0  0.1160288636815848  0.5452760531479725  0.983118458878991  1.0000
  C   C56       1.0  0.4379611042910695  0.6162440958547677  0.4832739614300507  1.0000
  C   C57       1.0  0.16195061899821883  0.027420760410826982  0.07820126273423259  1.0000
  C   C58       1.0  0.04979478304780828  0.6616975604990146  0.5778408874540589  1.0000
  C   C59       1.0  0.9161910880393688  0.550555304696516  0.07819150431120658  1.0000
  C   C60       1.0  0.5277019931669285  0.4159589640836857  0.5780255453107515  1.0000
  C   C61       1.0  0.8380622720454267  0.9726409939958245  0.921854001623892  1.0000
  C   C62       1.0  0.9502257120415291  0.3383317925438121  0.42211782953396676  1.0000
  C   C63       1.0  0.08381128153634876  0.44942516282024775  0.9217965525564294  1.0000
  C   C64       1.0  0.47230535617659797  0.5840378323233041  0.42195341052794083  1.0000
  C   C65       1.0  0.25395616979584185  0.06827885761204298  0.14516599893841686  1.0000
  C   C66       1.0  0.07572127817548588  0.7538768692165051  0.6449527916147133  1.0000
  C   C67       1.0  0.8911234473310612  0.5765193489653627  0.14523356746368427  1.0000
  C   C68       1.0  0.5687175945089888  0.390878026829789  0.6451388398659644  1.0000
  C   C69       1.0  0.7460708698580443  0.9317792773426419  0.8548713594449422  1.0000
  C   C70       1.0  0.9242994628076244  0.24613807930411716  0.35501873448505694  1.0000
  C   C71       1.0  0.10888843816370278  0.42346349554563306  0.8547609713759313  1.0000
  C   C72       1.0  0.43127063836924134  0.6091128694613486  0.35483894461636106  1.0000
  C   C73       1.0  0.31749937430386393  0.1426754586869023  0.1493935483802602  1.0000
  C   C74       1.0  0.005766897028855863  0.8174375271413012  0.6493011827607235  1.0000
  C   C75       1.0  0.8318825641694402  0.5062886198230532  0.1494802981502873  1.0000
  C   C76       1.0  0.6430707870423047  0.33173131676363704  0.6494966353038335  1.0000
  C   C77       1.0  0.6825236876274016  0.8573614919120657  0.8506174992939605  1.0000
  C   C78       1.0  0.9942454051279482  0.18256650610960173  0.35069162814181704  1.0000
  C   C79       1.0  0.16814382520799137  0.4936962426286939  0.8505286410353321  1.0000
  C   C80       1.0  0.3568947646737611  0.6682377347445082  0.35047860335077974  1.0000
  C   C81       1.0  0.06761571887795957  0.1540882200196592  0.8905373528478647  1.0000
  C   C82       1.0  0.7366005596925048  0.5673461715437823  0.38984964006818495  1.0000
  C   C83       1.0  0.8231044127098809  0.23641463633353504  0.8903961770559831  1.0000
  C   C84       1.0  0.6534949759795124  0.32279644776814104  0.3901409424221143  1.0000
  C   C85       1.0  0.9323576214193776  0.8459552501837208  0.10949121482538965  1.0000
  C   C86       1.0  0.2634090345710546  0.4326925339443192  0.6101049813945351  1.0000
  C   C87       1.0  0.17684735036586827  0.7635709450926244  0.10958475356870426  1.0000
  C   C88       1.0  0.3465788226541874  0.6772314970167841  0.6098907112222349  1.0000
  C   C89       1.0  0.4535165482982959  0.30333663423873947  0.16281884352141412  1.0000
  C   C90       1.0  0.8592954965238417  0.9532868546672757  0.6634189367597471  1.0000
  C   C91       1.0  0.7094499100715551  0.35906530272364273  0.16289584426271372  1.0000
  C   C92       1.0  0.8038437771870474  0.2098708372330407  0.6634881229299266  1.0000
  C   C93       1.0  0.5465054829087207  0.6966434464310823  0.8371590188157895  1.0000
  C   C94       1.0  0.14067661275408475  0.04668429845830249  0.33664004550644216  1.0000
  C   C95       1.0  0.290590415419551  0.6409206664383974  0.8371402945488882  1.0000
  C   C96       1.0  0.196019149212482  0.7900152393126804  0.33645400273721293  1.0000
  O   O1        1.0  0.5215023804580737  0.24904312141597262  0.17300068934464008  1.0000
  O   O2        1.0  0.9234939038660809  0.021807779451130195  0.6737294845020685  1.0000
  O   O3        1.0  0.6515089640686041  0.4234767622041104  0.17298290104436376  1.0000
  O   O4        1.0  0.7500800281123714  0.1515979929287639  0.6738311373115664  1.0000
  O   O5        1.0  0.47851222768306884  0.7509343162150516  0.8269905885127996  1.0000
  O   O6        1.0  0.07652162869235467  0.9781695977420242  0.3263785524258581  1.0000
  O   O7        1.0  0.34850215938601525  0.5764861520286076  0.8270211964914224  1.0000
  O   O8        1.0  0.24978040710404753  0.8482800134765897  0.3260943745187035  1.0000
  O   O9        1.0  0.9952722109325329  0.09519124728401344  0.881173557997712  1.0000
  O   O10       1.0  0.7857772633792379  0.4947420851537742  0.38012311788085634  1.0000
  O   O11       1.0  0.8861379393942523  0.2858881404042465  0.8810176044952411  1.0000
  O   O12       1.0  0.5946139467224112  0.3857217535127474  0.38050932973914786  1.0000
  O   O13       1.0  0.004690092473850825  0.9048841355979959  0.11886720776042378  1.0000
  O   O14       1.0  0.21424268697070648  0.5053064822868905  0.6198054337799234  1.0000
  O   O15       1.0  0.11381003916881123  0.7141039516920173  0.11895811215470793  1.0000
  O   O16       1.0  0.40543113622626936  0.6142859230621981  0.6195041429761758  1.0000
  O   O17       1.0  0.05506383116653503  0.19579777313798272  0.8409443328097977  1.0000
  O   O18       1.0  0.645540747632708  0.5549043996501195  0.34049639069154825  1.0000
  O   O19       1.0  0.7862042280362683  0.14510460635202793  0.8408579494586588  1.0000
  O   O20       1.0  0.6951465014019431  0.2858612809610364  0.3406679479736994  1.0000
  O   O21       1.0  0.9449342636461391  0.8042265014617983  0.1590730767129075  1.0000
  O   O22       1.0  0.35444404754414166  0.44511750164203784  0.6594959307714915  1.0000
  O   O23       1.0  0.21373600930264283  0.8548930242188674  0.15911159334016384  1.0000
  O   O24       1.0  0.3049514423304555  0.7141944246289782  0.6593773817637966  1.0000
  O   O25       1.0  0.4689289812018273  0.3960130199783194  0.20800760439041716  1.0000
  O   O26       1.0  0.8123567515421325  0.9682594905668439  0.708748535252944  1.0000
  O   O27       1.0  0.7392017882507175  0.31170469249315863  0.20815672656429024  1.0000
  O   O28       1.0  0.8961008682377098  0.24002797212853716  0.7086176829238084  1.0000
  O   O29       1.0  0.5310907685849597  0.6039684061191012  0.7919717124738951  1.0000
  O   O30       1.0  0.18756408626623503  0.031700463650651  0.29126398044348173  1.0000
  O   O31       1.0  0.2608429906242477  0.6883048588730887  0.7918928383363236  1.0000
  O   O32       1.0  0.10376715550408734  0.7598777872786259  0.2913518583264009  1.0000
