data_image0
_chemical_formula_structural       Cd2H48C52S4N4Cl4O16
_chemical_formula_sum              "Cd2 H48 C52 S4 N4 Cl4 O16"
_cell_length_a       11.38271254958388
_cell_length_b       11.383817979535856
_cell_length_c       14.210432205724802
_cell_angle_alpha    102.22796162901862
_cell_angle_beta     102.23247164607864
_cell_angle_gamma    118.10509826051376

_space_group_name_H-M_alt    "P 1"
_space_group_IT_number       1

loop_
  _space_group_symop_operation_xyz
  'x, y, z'

loop_
  _atom_site_type_symbol
  _atom_site_label
  _atom_site_symmetry_multiplicity
  _atom_site_fract_x
  _atom_site_fract_y
  _atom_site_fract_z
  _atom_site_occupancy
  Cd  Cd1       1.0  0.9792540179441714  0.9792597119074029  0.9999934702527539  1.0000
  Cd  Cd2       1.0  0.7291891253965445  0.2292162663141184  0.5000068426453551  1.0000
  H   H1        1.0  0.05729104757769932  0.17482551116629003  0.5658448622285306  1.0000
  H   H2        1.0  0.609037953430402  0.49152865101758897  0.43428918996196586  1.0000
  H   H3        1.0  0.24132060055024612  0.8588558587701697  0.9340561207076163  1.0000
  H   H4        1.0  0.924886860600786  0.3074299130004333  0.06583530297866248  1.0000
  H   H5        1.0  0.08394967891929642  0.35478485700325985  0.7134210784994081  1.0000
  H   H6        1.0  0.6413534007573175  0.3705353470985315  0.28670407055270175  1.0000
  H   H7        1.0  0.1204650190719363  0.8913974695606796  0.7865438317170188  1.0000
  H   H8        1.0  0.10486095798805203  0.3340854850482842  0.2134188463297235  1.0000
  H   H9        1.0  0.5062060313005929  0.6598281522937769  0.7261268818834381  1.0000
  H   H10       1.0  0.9334967583374763  0.7799382244205901  0.2737584235390429  1.0000
  H   H11       1.0  0.5300474701227742  0.18370956561844312  0.773874021040612  1.0000
  H   H12       1.0  0.4098690552017175  0.7563836329731687  0.2262519212026817  1.0000
  H   H13       1.0  0.47337548800964413  0.4785365112920986  0.5715860558053052  1.0000
  H   H14       1.0  0.9068306927400086  0.9017453831193053  0.4283258393192567  1.0000
  H   H15       1.0  0.6517172302263391  0.15684590293653142  0.9283931398796526  1.0000
  H   H16       1.0  0.22859257674133465  0.723533333649364  0.07161408310222579  1.0000
  H   H17       1.0  0.018948231586840333  0.14365647430348363  0.3766338503937376  1.0000
  H   H18       1.0  0.7670553858346381  0.6422886642242673  0.6233707526780846  1.0000
  H   H19       1.0  0.39208400842926483  0.0167272046244662  0.12331579465503488  1.0000
  H   H20       1.0  0.8934724214804034  0.26875819261540096  0.8766822396338368  1.0000
  H   H21       1.0  0.1579547138016082  0.2883395085751772  0.35704402489975  1.0000
  H   H22       1.0  0.9313183922934627  0.8008489605344239  0.6428561965832242  1.0000
  H   H23       1.0  0.5506484258111968  0.1810026747330866  0.1428623534171081  1.0000
  H   H24       1.0  0.03821241076968124  0.4077668590744353  0.8571277564512201  1.0000
  H   H25       1.0  0.7697466753267009  0.6446327387503034  0.8704963159115735  1.0000
  H   H26       1.0  0.7740674771423528  0.8992024506106802  0.12923202896453742  1.0000
  H   H27       1.0  0.649251929426441  0.0241578492613854  0.6295204889684952  1.0000
  H   H28       1.0  0.3947354074022086  0.019743312827678505  0.37069789286473304  1.0000
  H   H29       1.0  0.5554178832049458  0.4265739489569497  0.8636772805058256  1.0000
  H   H30       1.0  0.5629234124756336  0.6917954702603096  0.1362022168877175  1.0000
  H   H31       1.0  0.44188425687358557  0.8129334671135667  0.6364277242311331  1.0000
  H   H32       1.0  0.17669576098375478  0.8053346665663311  0.3637729610937228  1.0000
  H   H33       1.0  0.49778299084483985  0.46181360524405335  0.16491029398674326  1.0000
  H   H34       1.0  0.2968304526942944  0.33289453653527806  0.8351633483065511  1.0000
  H   H35       1.0  0.08294628952426562  0.5467407037395731  0.33513282616262074  1.0000
  H   H36       1.0  0.21156661421606068  0.7476262015150823  0.664836468752398  1.0000
  H   H37       1.0  0.2819276332253153  0.24428470657692716  0.15740785592146272  1.0000
  H   H38       1.0  0.08682606753203002  0.12454774101593814  0.8427109906280847  1.0000
  H   H39       1.0  0.8744478282078487  0.3367233704767187  0.3425899633156319  1.0000
  H   H40       1.0  0.99394341118726  0.5317815802255764  0.6572671571165714  1.0000
  H   H41       1.0  0.7724061122534636  0.0494106367284886  0.9744723143090043  1.0000
  H   H42       1.0  0.07483153519688575  0.797872469369672  0.025470711090442022  1.0000
  H   H43       1.0  0.5481323951854405  0.3251951807272988  0.5255473417152814  1.0000
  H   H44       1.0  0.7995365205011493  0.02257723914270571  0.4745312137419688  1.0000
  H   H45       1.0  0.7752996952714426  0.976511853520819  0.864007312881995  1.0000
  H   H46       1.0  0.11253102972530392  0.9112729935777751  0.13597334670703998  1.0000
  H   H47       1.0  0.6614251156131914  0.3626819154720238  0.6360144752463412  1.0000
  H   H48       1.0  0.7266726109086716  0.025402634380505197  0.36401421188141103  1.0000
  C   C1        1.0  0.2644980081972363  0.3173437176072369  0.5598409977512588  1.0000
  C   C2        1.0  0.7574676095401003  0.7046777975607625  0.4401839394738402  1.0000
  C   C3        1.0  0.4545565651573397  0.007352372409158599  0.9400775490091391  1.0000
  C   C4        1.0  0.06737851097855  0.5146334628203135  0.059859114530013385  1.0000
  C   C5        1.0  0.15531118673435876  0.28072262345352766  0.5997717456769819  1.0000
  C   C6        1.0  0.6809876839379784  0.5555863921024128  0.4003275394183419  1.0000
  C   C7        1.0  0.30543892082313556  0.930841721197211  0.9001431957737578  1.0000
  C   C8        1.0  0.03078674096548894  0.4054557892928016  0.0997861072269117  1.0000
  C   C9        1.0  0.1714327093906718  0.3816729330672857  0.6848499046642473  1.0000
  C   C10       1.0  0.6968305450460334  0.4865878158985027  0.3152529992800411  1.0000
  C   C11       1.0  0.2365139675408158  0.9467990666033327  0.8150911626237373  1.0000
  C   C12       1.0  0.13173454044794405  0.4215774601587938  0.1848706952401642  1.0000
  C   C13       1.0  0.2983434021805423  0.5164709198789553  0.7300512204999094  1.0000
  C   C14       1.0  0.7863282610267888  0.5682270186787975  0.26997667364864236  1.0000
  C   C15       1.0  0.3182437418432471  0.03643039229223181  0.7699244912147519  1.0000
  C   C16       1.0  0.2665122988495341  0.5485089766716627  0.2300997344502846  1.0000
  C   C17       1.0  0.4078149036646082  0.5540873025605748  0.690543341275287  1.0000
  C   C18       1.0  0.8633990933552127  0.7172028597836757  0.309399220162156  1.0000
  C   C19       1.0  0.46722082112690794  0.11351363277543675  0.809429802418002  1.0000
  C   C20       1.0  0.30410714991826643  0.658005168123303  0.19062033532239298  1.0000
  C   C21       1.0  0.3897147766401048  0.452789502629372  0.6040928956641949  1.0000
  C   C22       1.0  0.8485988315415581  0.7856021128182177  0.3958718284910034  1.0000
  C   C23       1.0  0.5355556697254541  0.0985945637799119  0.8958617036351625  1.0000
  C   C24       1.0  0.2028233016090937  0.6398801959960777  0.10412463881708327  1.0000
  C   C25       1.0  0.11512187855515073  0.17889636079691942  0.35587237343371203  1.0000
  C   C26       1.0  0.8230737658037767  0.7592048159212651  0.6441213320848219  1.0000
  C   C27       1.0  0.5090265144300189  0.07274915334361509  0.1440552655012013  1.0000
  C   C28       1.0  0.9287379812240885  0.36491801775361665  0.8559094562149809  1.0000
  C   C29       1.0  0.080371496563977  0.07547487641057421  0.2506372502418301  1.0000
  C   C30       1.0  0.8249978646612206  0.8297805729888097  0.7493763888542517  1.0000
  C   C31       1.0  0.579657739588505  0.07464322647727069  0.24929369678794439  1.0000
  C   C32       1.0  0.8253836888249564  0.33027064596974043  0.7506547349491653  1.0000
  C   C33       1.0  0.7188938596219785  0.6502684708081291  0.9267723386438573  1.0000
  C   C34       1.0  0.7234179494675459  0.7920654927448041  0.07299718685616337  1.0000
  C   C35       1.0  0.5421092469841328  0.9734649844256043  0.573255852414988  1.0000
  C   C36       1.0  0.40036142031450334  0.9688760721570233  0.4269635865935442  1.0000
  C   C37       1.0  0.5995290281789281  0.5292887927136505  0.9235879664994898  1.0000
  C   C38       1.0  0.6056820601966352  0.6759221637364874  0.07627251372814915  1.0000
  C   C39       1.0  0.4259673522045092  0.8556461916428477  0.5764666222448652  1.0000
  C   C40       1.0  0.2793870779611609  0.8494454597893507  0.4237181790584472  1.0000
  C   C41       1.0  0.5411761672927184  0.5411707367344363  0.9999607488506896  1.0000
  C   C42       1.0  0.29121340667240503  0.7910428970580482  0.5000731295849477  1.0000
  C   C43       1.0  0.4153764684206677  0.4153911881479857  1.7162375577591376e-05  1.0000
  C   C44       1.0  0.1653489321660402  0.6651925114283016  0.5000026507944354  1.0000
  C   C45       1.0  0.4093670429446873  0.3898003115706458  0.09161878465413761  1.0000
  C   C46       1.0  0.2981261903788592  0.317773640351966  0.9084514131132053  1.0000
  C   C47       1.0  0.06776923439824156  0.547976712247987  0.40840423042548923  1.0000
  C   C48       1.0  0.13960055253525647  0.659194906232969  0.591559927501855  1.0000
  C   C49       1.0  0.28963341940531256  0.26890546374245633  0.08803049177772242  1.0000
  C   C50       1.0  0.18083017448565641  0.20166110233199672  0.9120753151665468  1.0000
  C   C51       1.0  0.9515650542126295  0.4307147531947635  0.4119777275364314  1.0000
  C   C52       1.0  0.018631037775378497  0.5394879348394995  0.5879134360802851  1.0000
  S   S1        1.0  0.24853212159057136  0.18336686724011741  0.4553387729905083  1.0000
  S   S2        1.0  0.7280017181880112  0.7931643332630075  0.5447239673367221  1.0000
  S   S3        1.0  0.5429712108794859  0.9777784768647918  0.04458790014363247  1.0000
  S   S4        1.0  0.9331932709032245  0.4983576903723304  0.9553289414586672  1.0000
  N   N1        1.0  0.7795027105403136  0.7795035445259016  0.9998632130746756  1.0000
  N   N2        1.0  0.5295841243289559  0.029548489081214803  0.500117967262355  1.0000
  N   N3        1.0  0.1768650080665353  0.1769039391625142  6.513183519268634e-05  1.0000
  N   N4        1.0  0.9266974110917943  0.4267329617617008  0.499923972051235  1.0000
  Cl  Cl1       1.0  0.31994121666433273  0.6393482232588283  0.8388370149465203  1.0000
  Cl  Cl2       1.0  0.8003243048480897  0.4809660877783202  0.16116553630449457  1.0000
  Cl  Cl3       1.0  0.23106784521046822  0.050541596363856904  0.6611298173732507  1.0000
  Cl  Cl4       1.0  0.38935484111247126  0.5701055341747577  0.3389231671522168  1.0000
  O   O1        1.0  0.38518610333941444  0.25427306925691084  0.43366260469255735  1.0000
  O   O2        1.0  0.8205693432128314  0.9514935989132527  0.5664492574449795  1.0000
  O   O3        1.0  0.7013296286723116  0.07032769949218931  0.06633523757864877  1.0000
  O   O4        1.0  0.003844010322588159  0.6348873731060748  0.9334784797494747  1.0000
  O   O5        1.0  0.09716657574076508  0.9727837830889925  0.2481038271565055  1.0000
  O   O6        1.0  0.7246663253270642  0.8488305454413378  0.7519489032827947  1.0000
  O   O7        1.0  0.5991117224125162  0.9745569835086841  0.2518443429567085  1.0000
  O   O8        1.0  0.7225667071986874  0.34688815140388835  0.7480756312469267  1.0000
  O   O9        1.0  0.036001427333673106  0.10447639894253058  0.1741603276765957  1.0000
  O   O10       1.0  0.9307220473426128  0.8622940593812843  0.8258207090731702  1.0000
  O   O11       1.0  0.611780485039432  0.1801224633183125  0.3257585947353903  1.0000
  O   O12       1.0  0.8546115308597705  0.2862350405148177  0.6742211359128945  1.0000
  O   O13       1.0  0.8331300639537814  0.059493005296104705  0.931743385350046  1.0000
  O   O14       1.0  0.12770474003772872  0.9013168450610182  0.06820502820100668  1.0000
  O   O15       1.0  0.651582392365867  0.3779385038376759  0.5682798523596659  1.0000
  O   O16       1.0  0.809603543339328  0.0832756597181969  0.4317913441399169  1.0000
