data_image0
_chemical_formula_structural       Zn4P8H48C52O16
_chemical_formula_sum              "Zn4 P8 H48 C52 O16"
_cell_length_a       9.49699258
_cell_length_b       11.619150522583334
_cell_length_c       12.516
_cell_angle_alpha    95.12586217182859
_cell_angle_beta     90.0
_cell_angle_gamma    90.0

_space_group_name_H-M_alt    "P 1"
_space_group_IT_number       1

loop_
  _space_group_symop_operation_xyz
  'x, y, z'

loop_
  _atom_site_type_symbol
  _atom_site_label
  _atom_site_symmetry_multiplicity
  _atom_site_fract_x
  _atom_site_fract_y
  _atom_site_fract_z
  _atom_site_occupancy
  Zn  Zn1       1.0  0.5099867099190689  0.9229872955448146  0.654959500759432  1.0000
  Zn  Zn2       1.0  0.9900134090659662  0.9229872955448146  0.1549587017821281  1.0000
  Zn  Zn3       1.0  0.49001512434581684  0.077011523484515  0.345041999243307  1.0000
  Zn  Zn4       1.0  0.0099863192690819  0.07701238758831862  0.8450420709136636  1.0000
  P   P1        1.0  0.5293338872967723  0.1730056793748886  0.5723959088973345  1.0000
  P   P2        1.0  0.9706672846531816  0.1730056793748886  0.0723943109427196  1.0000
  P   P3        1.0  0.4706679469681134  0.8269931396544408  0.4276047921281005  1.0000
  P   P4        1.0  0.0293366555415346  0.8269957319658587  0.9276058061164747  1.0000
  P   P5        1.0  0.2944616389286452  0.1095925574822871  0.7315194977566577  1.0000
  P   P6        1.0  0.2055387517213347  0.1095934215860908  0.2315187704497035  1.0000
  P   P7        1.0  0.7055370364414915  0.890404533339435  0.2684810599280638  1.0000
  P   P8        1.0  0.7944609766137136  0.8904079897546567  0.7684845425187206  1.0000
  H   H1        1.0  0.3005783121292041  0.2587887205921007  0.6080935259545086  1.0000
  H   H2        1.0  0.19942207852077593  0.2587887205921007  0.1080903300452718  1.0000
  H   H3        1.0  0.6994224691707629  0.7412100984372287  0.39190637609361534  1.0000
  H   H4        1.0  0.8005818616739404  0.7412126907486467  0.8919113849685373  1.0000
  H   H5        1.0  0.28920102620529065  0.116755978032387  0.5447486721632657  1.0000
  H   H6        1.0  0.2107993644446964  0.11675424982477273  0.0447469308679374  1.0000
  H   H7        1.0  0.7108008080595951  0.8832454333083605  0.45525144489592856  1.0000
  H   H8        1.0  0.7892056287149389  0.8832480256197783  0.9552572527481544  1.0000
  H   H9        1.0  0.7301332439284707  0.18528977907817532  0.7498409491579636  1.0000
  H   H10       1.0  0.7698668750565645  0.18528805087056102  0.2498400068399462  1.0000
  H   H11       1.0  0.2698696433013339  0.8147090399511541  0.2501573549355456  1.0000
  H   H12       1.0  0.2301349592083213  0.8147124963663829  0.7501592395715804  1.0000
  H   H13       1.0  0.8216727489535458  0.3512901688994177  0.8682841422446828  1.0000
  H   H14       1.0  0.6783315818911575  0.3512901688994177  0.3682841422446828  1.0000
  H   H15       1.0  0.1783364560657574  0.6487069219222974  0.131713219530802  1.0000
  H   H16       1.0  0.3216723583035588  0.6487129706489371  0.631715319177907  1.0000
  H   H17       1.0  0.7439807855467464  0.5519100135963271  0.8400909064488928  1.0000
  H   H18       1.0  0.7560235452979569  0.551912605907745  0.3400927194145781  1.0000
  H   H19       1.0  0.2560263135427263  0.4480853490177736  0.1599087089178113  1.0000
  H   H20       1.0  0.2439803948967594  0.448089669536806  0.6599050723830402  1.0000
  H   H21       1.0  0.5751104840812644  0.5854752618289112  0.6938496220281677  1.0000
  H   H22       1.0  0.9248938467634318  0.5854743977251076  0.19384795240319616  1.0000
  H   H23       1.0  0.424893456113452  0.4145235572004182  0.3061534759291931  1.0000
  H   H24       1.0  0.075112199361115  0.4145270136156399  0.8061505667013762  1.0000
  H   H25       1.0  0.4904131450842968  0.4194273462983419  0.5716632732656066  1.0000
  H   H26       1.0  0.0095872455656902  0.4194230257793167  0.07166451286845191  1.0000
  H   H27       1.0  0.509588689180589  0.5805749291462092  0.4283369154639374  1.0000
  H   H28       1.0  0.9904209064886943  0.5805775214576272  0.9283379294523114  1.0000
  H   H29       1.0  0.27925050774337024  0.34355903214891015  0.8334027350011013  1.0000
  H   H30       1.0  0.22074777697677922  0.3435598962527139  0.3334028066714581  1.0000
  H   H31       1.0  0.7207513265215155  0.6564423791918373  0.1665917892169233  1.0000
  H   H32       1.0  0.7792445806038516  0.6564423791918373  0.6665989800127079  1.0000
  H   H33       1.0  0.39759849954521104  0.4431193444458331  0.9912090277620037  1.0000
  H   H34       1.0  0.1023997851749385  0.4431193444458331  0.49120822878469284  1.0000
  H   H35       1.0  0.6024054406495054  0.5568794745834965  0.008786879399579608  1.0000
  H   H36       1.0  0.8975925724056922  0.5568846592063323  0.5087905053309427  1.0000
  H   H37       1.0  0.571620958347637  0.3368164301522328  0.095357872814084  1.0000
  H   H38       1.0  0.9283749487777302  0.3368181583598471  0.5953556192228646  1.0000
  H   H39       1.0  0.42837455812775  0.6631780683580644  0.9046416708822703  1.0000
  H   H40       1.0  0.0716174088029007  0.663186709396122  0.4046423875858168  1.0000
  H   H41       1.0  0.6270416608033216  0.1313593323504421  0.0387195687849982  1.0000
  H   H42       1.0  0.8729531933571337  0.1313610605580564  0.5387157172391568  1.0000
  H   H43       1.0  0.3729475378825669  0.8686343020560514  0.9612846971048582  1.0000
  H   H44       1.0  0.12703916422350403  0.868645535405527  0.4612824329102311  1.0000
  H   H45       1.0  0.5087168342296451  0.0312537705520626  0.8792677004801916  1.0000
  H   H46       1.0  0.9912801258606407  0.0312537705520626  0.37926450457095473  1.0000
  H   H47       1.0  0.4912723644562433  0.9687433202696596  0.12073685209107773  1.0000
  H   H48       1.0  0.008712231719989902  0.9687476407886848  0.6207364114655434  1.0000
  C   C1        1.0  0.343837269798101  0.1711780998256174  0.6086880780943602  1.0000
  C   C2        1.0  0.1561631208518861  0.1711772357218067  0.1086864084693815  1.0000
  C   C3        1.0  0.6561614055720355  0.8288207192037123  0.39131182395377107  1.0000
  C   C4        1.0  0.8438418723077491  0.8288250397227445  0.8913153782147775  1.0000
  C   C5        1.0  0.6053937550828294  0.292315948257226  0.6535820698214962  1.0000
  C   C6        1.0  0.8946063639022057  0.2923142200496116  0.1535835244354047  1.0000
  C   C7        1.0  0.394609132146968  0.7076837348759073  0.3464171049196807  1.0000
  C   C8        1.0  0.10539652332759891  0.707686327187325  0.846414922998818  1.0000
  C   C9        1.0  0.698603262465646  0.2732572747164497  0.7369637565422805  1.0000
  C   C10       1.0  0.801397909484308  0.2732564106126461  0.2369628858946129  1.0000
  C   C11       1.0  0.3014006777290774  0.726740680209069  0.2630352748581828  1.0000
  C   C12       1.0  0.1986028718156589  0.7267458648319052  0.7630349059030053  1.0000
  C   C13       1.0  0.7494214552708414  0.3671145018950739  0.8034093611710844  1.0000
  C   C14       1.0  0.7505807696440243  0.3671136377912703  0.3034108874553496  1.0000
  C   C15       1.0  0.2505856438186242  0.6328817248228377  0.1965879289340506  1.0000
  C   C16       1.0  0.24942211758577323  0.6328895017570844  0.6965885739672473  1.0000
  C   C17       1.0  0.7052495770192523  0.4789390395077504  0.7875348847006194  1.0000
  C   C18       1.0  0.7947537008605325  0.4789373113001361  0.2875371382918388  1.0000
  C   C19       1.0  0.2947564691052946  0.5210580513139648  0.2124640750294873  1.0000
  C   C20       1.0  0.2052512922991028  0.5210641000406114  0.7124637777446593  1.0000
  C   C21       1.0  0.6111503142819146  0.4981955928200535  0.7049981499605735  1.0000
  C   C22       1.0  0.8888561224926192  0.4981921364048318  0.2049986622564575  1.0000
  C   C23       1.0  0.3888567848075511  0.5018040903130796  0.2950034217125292  1.0000
  C   C24       1.0  0.1111520295617652  0.5018075467283083  0.7950037083939492  1.0000
  C   C25       1.0  0.5624854347311727  0.4050590282154617  0.6371637725463799  1.0000
  C   C26       1.0  0.9375178431486122  0.40505557180024  0.1371650838195748  1.0000
  C   C27       1.0  0.4375185054635509  0.5949406549176716  0.3628362011721009  1.0000
  C   C28       1.0  0.0624892559408536  0.5949449754366967  0.8628365595238776  1.0000
  C   C29       1.0  0.38598956133964185  0.18082063419456063  0.84550254876617  1.0000
  C   C30       1.0  0.1140076704155959  0.1808214982983714  0.3455018214592159  1.0000
  C   C31       1.0  0.6140038492059148  0.8191738643157365  0.1544969949301844  1.0000
  C   C32       1.0  0.8859899519896217  0.8191807771461798  0.654499166247639  1.0000
  C   C33       1.0  0.3556115234955755  0.2968749599366376  0.8777952936968845  1.0000
  C   C34       1.0  0.1443867612245739  0.2968749599366376  0.3777944947195735  1.0000
  C   C35       1.0  0.6443860989096423  0.7031238590926919  0.1222030103966247  1.0000
  C   C36       1.0  0.8556077022858943  0.7031281796117173  0.6222033687483943  1.0000
  C   C37       1.0  0.4221757536636943  0.3528317300889726  0.9670785090288732  1.0000
  C   C38       1.0  0.0778214780915434  0.3528317300889726  0.4670761120969473  1.0000
  C   C39       1.0  0.5778229217064421  0.6471662248365534  0.032920522371590315  1.0000
  C   C40       1.0  0.922167720594345  0.6471705453555785  0.5329168858368192  1.0000
  C   C41       1.0  0.5196297626253354  0.2932854727273337  0.025262835509607808  1.0000
  C   C42       1.0  0.9803661445000317  0.29328720093494814  0.5252597829410774  1.0000
  C   C43       1.0  0.480363647920214  0.7067107539905778  0.9747376505047641  1.0000
  C   C44       1.0  0.019622001220938007  0.7067176668210209  0.4747374248902929  1.0000
  C   C45       1.0  0.5506016726823617  0.1777003553518099  0.9936242201095169  1.0000
  C   C46       1.0  0.9493931814780866  0.17770208355942435  0.4936195695863717  1.0000
  C   C47       1.0  0.44938752600351967  0.8222941431584871  0.006378519496074408  1.0000
  C   C48       1.0  0.0505960172077948  0.8223036483003554  0.5063785088926664  1.0000
  C   C49       1.0  0.48428067740998426  0.1213962154695452  0.9039622412335361  1.0000
  C   C50       1.0  0.0157165543452464  0.1213979436771524  0.40395918866500574  1.0000
  C   C51       1.0  0.5157106272057349  0.8785974189369483  0.0960396277243873  1.0000
  C   C52       1.0  0.9842789621301337  0.8786060599750058  0.5960419423825556  1.0000
  O   O1        1.0  0.5989675101967933  0.059519470143655405  0.596602521728677  1.0000
  O   O2        1.0  0.9010347147180796  0.05951687783223751  0.0965967138764512  1.0000
  O   O3        1.0  0.4010343240680925  0.9404802129894778  0.40339984892172964  1.0000
  O   O4        1.0  0.09897027844155563  0.9404836694046992  0.9034017335577644  1.0000
  O   O5        1.0  0.5363245213781128  0.20130162259968643  0.45502566430334923  1.0000
  O   O6        1.0  0.9636777035367531  0.2013033508073008  0.9550242096894407  1.0000
  O   O7        1.0  0.46367941881660363  0.7986971964296431  0.5449758356993968  1.0000
  O   O8        1.0  0.0363283425877938  0.7986971964296431  0.044975835699396824  1.0000
  O   O9        1.0  0.3350587012883608  0.981722159432806  0.7211166326068366  1.0000
  O   O10       1.0  0.1649416893616262  0.981722159432806  0.22111663260683662  1.0000
  O   O11       1.0  0.6649399740817756  0.018274931388909003  0.2788815281459591  1.0000
  O   O12       1.0  0.8350580389734291  0.0182783878041377  0.7788874076685418  1.0000
  O   O13       1.0  0.13665799873668763  0.13503609404413203  0.7418257405902224  1.0000
  O   O14       1.0  0.36334344487821113  0.1350378222517463  0.241825084953625  1.0000
  O   O15       1.0  0.86333962366853  0.8649584044661651  0.2581722051515101  1.0000
  O   O16       1.0  0.6366573364217558  0.8649653172966154  0.7581799693101345  1.0000
