data_image0
_chemical_formula_structural       Li2H14C14S2O16
_chemical_formula_sum              "Li2 H14 C14 S2 O16"
_cell_length_a       6.518062271110942
_cell_length_b       6.589363814642861
_cell_length_c       12.221055461421363
_cell_angle_alpha    84.40577537495598
_cell_angle_beta     71.54733642029244
_cell_angle_gamma    74.31922602797222

_space_group_name_H-M_alt    "P 1"
_space_group_IT_number       1

loop_
  _space_group_symop_operation_xyz
  'x, y, z'

loop_
  _atom_site_type_symbol
  _atom_site_label
  _atom_site_symmetry_multiplicity
  _atom_site_fract_x
  _atom_site_fract_y
  _atom_site_fract_z
  _atom_site_occupancy
  Li  Li1       1.0  0.786404378419284  0.4636625003906473  0.010280780132987445  1.0000
  Li  Li2       1.0  0.21360277628213717  0.5363190841294381  0.9897207939191618  1.0000
  H   H1        1.0  0.8993706802266814  0.7811639142258782  0.9047564646583695  1.0000
  H   H2        1.0  0.1006196768818413  0.2188491945994783  0.09523165884437651  1.0000
  H   H3        1.0  0.038055265031395905  0.5903112593953779  0.8227654679446061  1.0000
  H   H4        1.0  0.9619439385812714  0.40968744517249417  0.17721406833538816  1.0000
  H   H5        1.0  0.4826790225325439  0.18164759076289266  0.1507552097138287  1.0000
  H   H6        1.0  0.5173253314072924  0.818345492561569  0.8492517679542715  1.0000
  H   H7        1.0  0.23275361895487395  0.28846590635491504  0.6270159819332335  1.0000
  H   H8        1.0  0.7672463995312314  0.7115180743438286  0.37298324011042894  1.0000
  H   H9        1.0  0.9578203349322932  0.8862838643305931  0.6917162509542365  1.0000
  H   H10       1.0  0.04216652654199042  0.11371380118401928  0.30828734407053565  1.0000
  H   H11       1.0  0.48030576380486417  0.08991037475963987  0.34268688460081637  1.0000
  H   H12       1.0  0.5197006470053367  0.9100847409415278  0.6573008057600235  1.0000
  H   H13       1.0  0.20159257235191316  0.8641898641088658  0.40337069735429054  1.0000
  H   H14       1.0  0.7984031857370297  0.13582447343254955  0.5966271760053772  1.0000
  C   C1        1.0  0.3486678425465186  0.6183654349433849  0.2768737260908836  1.0000
  C   C2        1.0  0.6513185768547273  0.381639619451846  0.7231204391388673  1.0000
  C   C3        1.0  0.42443301924294025  0.3969750850940342  0.2604135286830811  1.0000
  C   C4        1.0  0.5755804621475208  0.6030297206448195  0.7395863791438445  1.0000
  C   C5        1.0  0.4172897781549096  0.2593856562613793  0.3546070790523501  1.0000
  C   C6        1.0  0.58271777131057  0.7406278738783527  0.6453866014434055  1.0000
  C   C7        1.0  0.32430947384597897  0.3373681443333893  0.4668561070327826  1.0000
  C   C8        1.0  0.675694089948088  0.6626337361281996  0.5331389434623973  1.0000
  C   C9        1.0  0.24482062518836054  0.5591733573914934  0.48422406145144253  1.0000
  C   C10       1.0  0.7551852811145423  0.4408246458986793  0.5157815382718596  1.0000
  C   C11       1.0  0.2622615113888926  0.6958539879027228  0.38795011664312534  1.0000
  C   C12       1.0  0.7377175923443958  0.30415972993974794  0.6120609729737226  1.0000
  C   C13       1.0  0.13811251146183423  0.637528142154828  0.6011930289332952  1.0000
  C   C14       1.0  0.8618843351718795  0.36247353354086437  0.3988079690036487  1.0000
  S   S1        1.0  0.35384768660308913  0.7862506496623066  0.15388278834908684  1.0000
  S   S2        1.0  0.6461481209411915  0.21375183441510603  0.8461306021920764  1.0000
  O   O1        1.0  0.5872027249684778  0.7408045342770249  0.08060056807865829  1.0000
  O   O2        1.0  0.4127997035894993  0.25917665415413177  0.919401748773538  1.0000
  O   O3        1.0  0.992651175713725  0.6372387970317205  0.9040828674978629  1.0000
  O   O4        1.0  0.00735544826152791  0.36276705052141267  0.09591801187208662  1.0000
  O   O5        1.0  0.1993311419784192  0.7433297384665138  0.09973446380816141  1.0000
  O   O6        1.0  0.8006457362644213  0.25667708798717104  0.9002741393424644  1.0000
  O   O7        1.0  0.2768206878989048  0.006579253106764301  0.1972336844298042  1.0000
  O   O8        1.0  0.7231746100093022  0.9934295349474521  0.8027777307359187  1.0000
  O   O9        1.0  0.5029868145737381  0.3252983706108238  0.15057623731850361  1.0000
  O   O10       1.0  0.4970333377225345  0.6747019058499644  0.8494196795850542  1.0000
  O   O11       1.0  0.31031966384610854  0.19990512316863365  0.5555170254637433  1.0000
  O   O12       1.0  0.6896870240546065  0.8000897769640716  0.444467360202637  1.0000
  O   O13       1.0  0.1175680971952746  0.513930412781903  0.6871876389593581  1.0000
  O   O14       1.0  0.8824522183739278  0.48606382916265284  0.31281438418771046  1.0000
  O   O15       1.0  0.06006545288025935  0.8445773301532568  0.6120357588538995  1.0000
  O   O16       1.0  0.9399211332130976  0.15541941213388097  0.387977769111302  1.0000
