data_image0
_chemical_formula_structural       Cd4H32C16O24
_chemical_formula_sum              "Cd4 H32 C16 O24"
_cell_length_a       7.698582755524626
_cell_length_b       7.963372394645537
_cell_length_c       12.202351942200888
_cell_angle_alpha    90.00009208951708
_cell_angle_beta     90.00064990181387
_cell_angle_gamma    91.11024750356262

_space_group_name_H-M_alt    "P 1"
_space_group_IT_number       1

loop_
  _space_group_symop_operation_xyz
  'x, y, z'

loop_
  _atom_site_type_symbol
  _atom_site_label
  _atom_site_symmetry_multiplicity
  _atom_site_fract_x
  _atom_site_fract_y
  _atom_site_fract_z
  _atom_site_occupancy
  Cd  Cd1       1.0  0.8222722167844837  0.9193911934296535  0.41340322937434604  1.0000
  Cd  Cd2       1.0  0.17772930879891652  0.5806095613240175  0.9134100907566136  1.0000
  Cd  Cd3       1.0  0.1777275856025611  0.08060913263721403  0.5865941508842526  1.0000
  Cd  Cd4       1.0  0.8222679650245085  0.4193920997576156  0.08659466512089152  1.0000
  H   H1        1.0  0.35790346155074815  0.5255900068896364  0.3830244328553931  1.0000
  H   H2        1.0  0.6420957550350365  0.9744019132322491  0.8830194549824455  1.0000
  H   H3        1.0  0.6420964072285784  0.47441157453789623  0.6169778644889448  1.0000
  H   H4        1.0  0.3579117659085896  0.025596918524541896  0.11697464724647232  1.0000
  H   H5        1.0  0.24247090647200056  0.7128365503227911  0.3846992017167352  1.0000
  H   H6        1.0  0.7575254798148806  0.7871504328163468  0.8846850257572002  1.0000
  H   H7        1.0  0.7575263673440489  0.28716511075767676  0.6153047346466282  1.0000
  H   H8        1.0  0.24248074363973163  0.21284843876573942  0.11530907646709211  1.0000
  H   H9        1.0  0.40913169273265027  0.5620080364233502  0.17825919217747102  1.0000
  H   H10       1.0  0.5908527567816365  0.9379949541262533  0.6782505317278975  1.0000
  H   H11       1.0  0.5908601920833052  0.4379900178974124  0.8217447441647324  1.0000
  H   H12       1.0  0.409145615398245  0.06200290105514478  0.3217443899818804  1.0000
  H   H13       1.0  0.30710037880391644  0.7552509028287275  0.18129768367373342  1.0000
  H   H14       1.0  0.6928919103347511  0.7447518574645856  0.6812870986051182  1.0000
  H   H15       1.0  0.6928968286272407  0.2447495028922404  0.8187021551180322  1.0000
  H   H16       1.0  0.30710509800072566  0.2552447821873045  0.31870700358500414  1.0000
  H   H17       1.0  0.0347833400276443  0.6788920824301812  0.5106233441896961  1.0000
  H   H18       1.0  0.9652191164454964  0.8211148124418841  0.010614948549466903  1.0000
  H   H19       1.0  0.9652179589219614  0.3211119698769592  0.4893773141327459  1.0000
  H   H20       1.0  0.034781718068032305  0.1788804523898833  0.9893857097668147  1.0000
  H   H21       1.0  0.9775542269123391  0.6030046662404301  0.3953882448350471  1.0000
  H   H22       1.0  0.022444312855228122  0.8969948612180051  0.8953803847125814  1.0000
  H   H23       1.0  0.022445708192862006  0.3969981705372091  0.6046115939677392  1.0000
  H   H24       1.0  0.9775539930430385  0.10300173862032122  0.1046219126236068  1.0000
  H   H25       1.0  0.6341879245789955  0.2068010224017129  0.45256595238182484  1.0000
  H   H26       1.0  0.36582200025772244  0.2932010187021348  0.9525670038256778  1.0000
  H   H27       1.0  0.3658158366378715  0.7932004395452452  0.5474330669198296  1.0000
  H   H28       1.0  0.6341818273219103  0.706801698600799  0.0474336545051415  1.0000
  H   H29       1.0  0.7024855901737795  0.2282164142054839  0.33030371258411145  1.0000
  H   H30       1.0  0.2975136480307938  0.27179685385617347  0.8303017939497579  1.0000
  H   H31       1.0  0.29751181630140877  0.7717877575763693  0.6696961262102975  1.0000
  H   H32       1.0  0.7024852549774396  0.728211044161256  0.1696980448519128  1.0000
  C   C1        1.0  0.5131423462187997  0.7466460408447518  0.36991697355612274  1.0000
  C   C2        1.0  0.486856501624061  0.7533433310396518  0.8699065592589506  1.0000
  C   C3        1.0  0.48685745621989446  0.2533542852303298  0.630086143301476  1.0000
  C   C4        1.0  0.5131446646442869  0.24665821056258605  0.13009573809001304  1.0000
  C   C5        1.0  0.34865351867318145  0.6491194645082314  0.3428436843856559  1.0000
  C   C6        1.0  0.6513398508405431  0.850873755241416  0.8428370074954827  1.0000
  C   C7        1.0  0.6513449862764987  0.350880901392145  0.6571594324673172  1.0000
  C   C8        1.0  0.3486611163321243  0.1491240202917368  0.1571595532518373  1.0000
  C   C9        1.0  0.3085506820802594  0.6315345933826891  0.221648863032847  1.0000
  C   C10       1.0  0.6914420681625657  0.8684632610052744  0.7216359354945184  1.0000
  C   C11       1.0  0.6914451615359951  0.36846459681347454  0.7783534342958376  1.0000
  C   C12       1.0  0.30855617131391  0.13153208346769674  0.2783581666993555  1.0000
  C   C13       1.0  0.13408886505776962  0.5489350658088341  0.1970627711703798  1.0000
  C   C14       1.0  0.8659063029496823  0.9510676599710591  0.6970569153592833  1.0000
  C   C15       1.0  0.8659054156921898  0.4510591428004673  0.8029411651784459  1.0000
  C   C16       1.0  0.1340958953639912  0.0489288203831748  0.30293964539179546  1.0000
  O   O1        1.0  0.5359593985291581  0.7947275669809386  0.4686398512097584  1.0000
  O   O2        1.0  0.464045583735917  0.7052707555193151  0.9686325022733442  1.0000
  O   O3        1.0  0.46404456177599945  0.20527766103393216  0.5313640851793906  1.0000
  O   O4        1.0  0.5359634337997791  0.29473180248244546  0.0313681560759989  1.0000
  O   O5        1.0  0.6265116610149662  0.7827412395129086  0.2962807745185856  1.0000
  O   O6        1.0  0.37348599368474567  0.7172504322771617  0.796267052057246  1.0000
  O   O7        1.0  0.3734936631272206  0.21726520403029784  0.7037231618760771  1.0000
  O   O8        1.0  0.6265127102794565  0.2827536996793896  0.20373278674178863  1.0000
  O   O9        1.0  0.01907805591842051  0.5231656403436986  0.2688911214014951  1.0000
  O   O10       1.0  0.980913016363296  0.9768336843004377  0.768886935918637  1.0000
  O   O11       1.0  0.9809270691944934  0.4768370371409816  0.7311144540188153  1.0000
  O   O12       1.0  0.019093907440854704  0.0231538492725605  0.23110634678823064  1.0000
  O   O13       1.0  0.10833238073326612  0.5055797567223762  0.09621980230723891  1.0000
  O   O14       1.0  0.8916559807007687  0.9944266057387806  0.5962141754367069  1.0000
  O   O15       1.0  0.8916672890020224  0.49441805864427807  0.9037824950344556  1.0000
  O   O16       1.0  0.1083414921150521  0.005578821395516802  0.40378484384443425  1.0000
  O   O17       1.0  0.9339448823607127  0.6608240384902545  0.4625612338727266  1.0000
  O   O18       1.0  0.06605902471581258  0.8391805832030881  0.9625544468055907  1.0000
  O   O19       1.0  0.06605635024826031  0.3391787584644348  0.5374402439629763  1.0000
  O   O20       1.0  0.9339406450047321  0.16081723216122157  0.0374462115078202  1.0000
  O   O21       1.0  0.7414028616354288  0.197214320426518  0.4053041316142725  1.0000
  O   O22       1.0  0.2586048484297621  0.30278636985481466  0.9053060632774077  1.0000
  O   O23       1.0  0.2585983045960277  0.8027872211698579  0.5946940681639746  1.0000
  O   O24       1.0  0.7413991782012774  0.69722011351017  0.09469541457019659  1.0000
