data_image0
_chemical_formula_structural       Zn2Cr2H80C40N8O8
_chemical_formula_sum              "Zn2 Cr2 H80 C40 N8 O8"
_cell_length_a       9.872331068367552
_cell_length_b       10.990124750310189
_cell_length_c       13.42
_cell_angle_alpha    115.10671532922046
_cell_angle_beta     100.43913668982223
_cell_angle_gamma    91.40245535831104

_space_group_name_H-M_alt    "P 1"
_space_group_IT_number       1

loop_
  _space_group_symop_operation_xyz
  'x, y, z'

loop_
  _atom_site_type_symbol
  _atom_site_label
  _atom_site_symmetry_multiplicity
  _atom_site_fract_x
  _atom_site_fract_y
  _atom_site_fract_z
  _atom_site_occupancy
  Zn  Zn1       1.0  0.9999994443638797  7.78792476552e-05  8.861179880880779e-05  1.0000
  Zn  Zn2       1.0  3.5139316310047353e-06  0.5000232038689845  0.5000126668590923  1.0000
  Cr  Cr1       1.0  0.07165471909403459  0.1878154142021913  0.3011683834811834  1.0000
  Cr  Cr2       1.0  0.9283607254612319  0.8121915482025487  0.6988448872899865  1.0000
  H   H1        1.0  0.22274327941074998  0.9336619347518323  0.9394831082751978  1.0000
  H   H2        1.0  0.7771254040082595  0.0663318792084979  0.06051273802579973  1.0000
  H   H3        1.0  0.02166833500653809  0.9316036974923421  0.16053257562794707  1.0000
  H   H4        1.0  0.9783324439887122  0.0683658424167746  0.83950746556701  1.0000
  H   H5        1.0  0.2607126931048924  0.0218597945402479  0.1836380647541063  1.0000
  H   H6        1.0  0.7393088993715368  0.9781380650952798  0.8163750979314132  1.0000
  H   H7        1.0  0.48287398192090336  0.9873844557715898  0.11647067308221892  1.0000
  H   H8        1.0  0.5171171511597946  0.0126083467699445  0.883509846744836  1.0000
  H   H9        1.0  0.41177087341652907  0.8227760459522245  0.013018007795565677  1.0000
  H   H10       1.0  0.5882086078612332  0.1772228251021133  0.9869608321533859  1.0000
  H   H11       1.0  0.4531904436499942  0.9226293784734309  0.2691106709140243  1.0000
  H   H12       1.0  0.54683088087895  0.0773573555552929  0.7308725096623049  1.0000
  H   H13       1.0  0.5576722073976653  0.8149668813917613  0.18341886329348972  1.0000
  H   H14       1.0  0.4423296335384919  0.1850117612865603  0.8165440055724673  1.0000
  H   H15       1.0  0.35528414500850397  0.638982032901751  0.07681494727304992  1.0000
  H   H16       1.0  0.6447068700787568  0.3610097582209804  0.9231659505359103  1.0000
  H   H17       1.0  0.3775708666265345  0.6831173151093495  0.22183628431501026  1.0000
  H   H18       1.0  0.6224450720140665  0.3168673960817685  0.7781417496897305  1.0000
  H   H19       1.0  0.1288371019099159  0.670750697432787  0.1341055175217178  1.0000
  H   H20       1.0  0.8711724847832727  0.3292501964591494  0.86590113797957  1.0000
  H   H21       1.0  0.19239700097568857  0.8353004449617032  0.24019032350572184  1.0000
  H   H22       1.0  0.8076291514350371  0.164692357579824  0.7598172188080737  1.0000
  H   H23       1.0  0.1558933050324072  0.7452275322435895  0.9866417120160804  1.0000
  H   H24       1.0  0.8440803823044973  0.254783475836355  0.013364418019136803  1.0000
  H   H25       1.0  0.9118206810597442  0.7236509349675444  0.1124822590512338  1.0000
  H   H26       1.0  0.08815346840187738  0.2763287191295731  0.8875122925677843  1.0000
  H   H27       1.0  0.6828418435026434  0.7401360500007002  0.03375653865223423  1.0000
  H   H28       1.0  0.3171470796634139  0.2598466383528262  0.9662201721410925  1.0000
  H   H29       1.0  0.7663916435803272  0.9029380658419511  0.12677856545894173  1.0000
  H   H30       1.0  0.23357873994041972  0.097044622511568  0.8732053611845244  1.0000
  H   H31       1.0  0.2655359906338361  0.2050125680710622  0.13022752122075332  1.0000
  H   H32       1.0  0.7345339568442455  0.7950024856840869  0.8697704906029742  1.0000
  H   H33       1.0  0.39971067948759037  0.1332271186890068  0.06007258617033528  1.0000
  H   H34       1.0  0.6002934475470098  0.8667181471688892  0.9398685574720176  1.0000
  H   H35       1.0  0.9913336332865937  0.5791808848895812  0.9435875043756283  1.0000
  H   H36       1.0  0.008668743544525596  0.4208200090023482  0.0564174449531194  1.0000
  H   H37       1.0  0.909040526489278  0.6663146145727694  0.8679306835621361  1.0000
  H   H38       1.0  0.09098822177700332  0.3337004391823797  0.13207748502743047  1.0000
  H   H39       1.0  0.8080296785987925  0.5659252300871742  0.9102057396054946  1.0000
  H   H40       1.0  0.19197764410754556  0.4340827437363686  0.08978370018521535  1.0000
  H   H41       1.0  0.7596068107503483  0.5795975894354868  0.5296438049805516  1.0000
  H   H42       1.0  0.24039409608734985  0.42040836155045  0.4703641959580053  1.0000
  H   H43       1.0  0.9762575294718304  0.43040421355809855  0.29456821622488866  1.0000
  H   H44       1.0  0.023745673313328605  0.5696037602654371  0.7054475000471783  1.0000
  H   H45       1.0  0.742850040947907  0.353385683301056  0.3049635572191747  1.0000
  H   H46       1.0  0.2571459519751826  0.6466222905224868  0.6950377852201443  1.0000
  H   H47       1.0  0.5633931683808767  0.5862163140674852  0.3857601830881663  1.0000
  H   H48       1.0  0.436614540266376  0.4138037967816643  0.6142432125436841  1.0000
  H   H49       1.0  0.5119236201328972  0.4155343343497222  0.35256891616202785  1.0000
  H   H50       1.0  0.48807861659319224  0.5844918450122378  0.6474485264494234  1.0000
  H   H51       1.0  0.4160932221453493  0.46608808026677906  0.1911778245138009  1.0000
  H   H52       1.0  0.5839049167711536  0.5339118022063616  0.808825463331864  1.0000
  H   H53       1.0  0.5333590774098624  0.3438490154289369  0.1540251272383557  1.0000
  H   H54       1.0  0.46663505957889834  0.6561518784629996  0.8459869205076416  1.0000
  H   H55       1.0  0.5802137110451894  0.5184987911019832  0.08700681576781484  1.0000
  H   H56       1.0  0.4197832159763593  0.4814818744139373  0.9129881427360119  1.0000
  H   H57       1.0  0.6013346418702452  0.6469327960943119  0.2256014776733721  1.0000
  H   H58       1.0  0.398663937059382  0.3530620292848212  0.7743889342401926  1.0000
  H   H59       1.0  0.8309435819491426  0.5885263946083583  0.1812773460328217  1.0000
  H   H60       1.0  0.1690522290592895  0.41146236225796423  0.8187158043526708  1.0000
  H   H61       1.0  0.7844347356055221  0.41718496983251896  0.14823648778025958  1.0000
  H   H62       1.0  0.21556428333722974  0.5828047984526137  0.8517693641475574  1.0000
  H   H63       1.0  0.8110451433840069  0.6559586974720588  0.3804110636137495  1.0000
  H   H64       1.0  0.18894831760476188  0.3440452306762793  0.6195840646123684  1.0000
  H   H65       1.0  0.05659162289037308  0.5982521977962136  0.248494194699596  1.0000
  H   H66       1.0  0.9434076639998636  0.4017486960957228  0.7515043815132715  1.0000
  H   H67       1.0  0.22351594786543666  0.4765431164099567  0.31935486045956907  1.0000
  H   H68       1.0  0.7764826630248082  0.5234608117383814  0.6806387187371357  1.0000
  H   H69       1.0  0.28816153702221914  0.6408905801787341  0.3464731071067532  1.0000
  H   H70       1.0  0.7118346599271276  0.3591103137132023  0.6535213314596716  1.0000
  H   H71       1.0  0.6119113991628778  0.3747043687829148  0.4904332029017979  1.0000
  H   H72       1.0  0.3880930376288347  0.6252965251090217  0.5095623339686881  1.0000
  H   H73       1.0  0.7545226824188376  0.2841844089548715  0.44911053016241453  1.0000
  H   H74       1.0  0.24548484431375778  0.715816484937065  0.5508898895109908  1.0000
  H   H75       1.0  0.9611141292068835  0.7980215708042735  0.36490759277565143  1.0000
  H   H76       1.0  0.0388873356373765  0.2019803345064659  0.6350878994053843  1.0000
  H   H77       1.0  0.1424717304364691  0.8314681791257287  0.40380316355267354  1.0000
  H   H78       1.0  0.857525968466909  0.1685367604414125  0.5961966067824634  1.0000
  H   H79       1.0  0.04891935749446218  0.7936077391578706  0.4913706718448196  1.0000
  H   H80       1.0  0.951077751441744  0.2063921433152629  0.5086287529304272  1.0000
  C   C1        1.0  0.2624222049938894  0.9424198101473849  0.09911769993198041  1.0000
  C   C2        1.0  0.7375712559948723  0.057584118000953304  0.9008878604849002  1.0000
  C   C3        1.0  0.40900890995808936  0.9003144454728513  0.09842369179867215  1.0000
  C   C4        1.0  0.5909845190700622  0.0996803799062818  0.9015593272665114  1.0000
  C   C5        1.0  0.4516610732339288  0.8432067057270417  0.18389552881878052  1.0000
  C   C6        1.0  0.5483452735643226  0.1567840739768869  0.8160833353533121  1.0000
  C   C7        1.0  0.34934015463518614  0.7221054870400252  0.1587066318847833  1.0000
  C   C8        1.0  0.6506661921630723  0.2778852926639033  0.8412752129132457  1.0000
  C   C9        1.0  0.2016384068143395  0.7600296463923257  0.15612923626103736  1.0000
  C   C10       1.0  0.7983719738722712  0.239969224662012  0.843873841553183  1.0000
  C   C11       1.0  0.1574551709403806  0.8208674986752413  0.0733597394168514  1.0000
  C   C12       1.0  0.8425362300877949  0.1791364294730968  0.9266492722064257  1.0000
  C   C13       1.0  0.9016457771844628  0.7580502997992866  0.045096229727278156  1.0000
  C   C14       1.0  0.098346503869962  0.24194351416104348  0.9549071492568474  1.0000
  C   C15       1.0  0.76261473824335  0.8183318717418047  0.04333823817532331  1.0000
  C   C16       1.0  0.23737604085704322  0.181657896543328  0.9566486316928433  1.0000
  C   C17       1.0  0.2863253756618604  0.1348787655906065  0.04847354655127841  1.0000
  C   C18       1.0  0.7136874730378578  0.8651059456005186  0.9515070562153625  1.0000
  C   C19       1.0  0.9028737104879949  0.6353227196806941  0.9349231154457344  1.0000
  C   C20       1.0  0.0971353181986316  0.364682219886447  0.06507965537045382  1.0000
  C   C21       1.0  0.7292657510762766  0.45990628855669513  0.3567105417234088  1.0000
  C   C22       1.0  0.27073436176799953  0.5401016852668477  0.6432935853373891  1.0000
  C   C23       1.0  0.5759736383203558  0.48043202169877475  0.33108532547622355  1.0000
  C   C24       1.0  0.4240286844385537  0.5195860663127689  0.6689241009312781  1.0000
  C   C25       1.0  0.5262185364177013  0.45127180625483027  0.20758682674834722  1.0000
  C   C26       1.0  0.47377801451195006  0.548732121893508  0.7924184003760714  1.0000
  C   C27       1.0  0.6146550157775721  0.5401805759333058  0.17626714989665263  1.0000
  C   C28       1.0  0.38534629911264057  0.4598112151894255  0.823730023922046  1.0000
  C   C29       1.0  0.767689469803301  0.5219224437424614  0.2017815849951816  1.0000
  C   C30       1.0  0.23231128708034984  0.4780733930554675  0.7982154299208303  1.0000
  C   C31       1.0  0.8195101903748849  0.5496302617885576  0.3250239103802528  1.0000
  C   C32       1.0  0.18049036248251574  0.45037265494097767  0.6749785180956919  1.0000
  C   C33       1.0  0.0708359849216009  0.6197215846793824  0.33830383773107536  1.0000
  C   C34       1.0  0.9291626259686367  0.3802823434689557  0.6616949575610107  1.0000
  C   C35       1.0  0.2173272614230939  0.5847264941740065  0.3708956510633783  1.0000
  C   C36       1.0  0.782670877493409  0.41527338829912713  0.6291016755304212  1.0000
  C   C37       1.0  0.7261884145239392  0.3823031582328227  0.5051791456219519  1.0000
  C   C38       1.0  0.2738175242218047  0.6177017813343184  0.494820977860762  1.0000
  C   C39       1.0  0.05425133528923708  0.768770327668264  0.4039568583031183  1.0000
  C   C40       1.0  0.9457468036272655  0.2312295548048695  0.5960404682906811  1.0000
  N   N1        1.0  0.21642832659793498  0.0006675364084856  0.019402745841162493  1.0000
  N   N2        1.0  0.7835437727521182  0.9993475173466635  0.980616500820055  1.0000
  N   N3        1.0  0.017262055967819386  0.8647782459090793  0.07627323445916556  1.0000
  N   N4        1.0  0.9827304930340828  0.1352266936580548  0.9237601266341429  1.0000
  N   N5        1.0  0.7810675818755825  0.4852979575491077  0.4748444923924638  1.0000
  N   N6        1.0  0.21893629690956828  0.5147069820180334  0.5251568468272012  1.0000
  N   N7        1.0  0.9665739331045557  0.5279737624272514  0.3488336183344741  1.0000
  N   N8        1.0  0.03342926968060309  0.4720342113962915  0.6511716657468369  1.0000
  O   O1        1.0  0.06309165526739238  0.0393694768185497  0.3036261925797064  1.0000
  O   O2        1.0  0.9369160214192505  0.9606415312613947  0.6963919195245865  1.0000
  O   O3        1.0  0.2340309700810721  0.2574293474190696  0.3398492014904804  1.0000
  O   O4        1.0  0.7659829085989358  0.7425553637720554  0.660165070605899  1.0000
  O   O5        1.0  0.9794220752593429  0.2890058423779678  0.3884375070434912  1.0000
  O   O6        1.0  0.0205940772565256  0.7110071885395755  0.6115652991149005  1.0000
  O   O7        1.0  0.0052266640931578  0.1675931067003305  0.1698796312579347  1.0000
  O   O8        1.0  0.994790454481787  0.8324017186788026  0.8301184679351507  1.0000
