data_image0
_chemical_formula_structural       Cd2H10C18N4O12
_chemical_formula_sum              "Cd2 H10 C18 N4 O12"
_cell_length_a       6.887816703109998
_cell_length_b       6.887834048159779
_cell_length_c       11.834996200394828
_cell_angle_alpha    76.42408609773693
_cell_angle_beta     76.42397957100681
_cell_angle_gamma    68.48296440386196

_space_group_name_H-M_alt    "P 1"
_space_group_IT_number       1

loop_
  _space_group_symop_operation_xyz
  'x, y, z'

loop_
  _atom_site_type_symbol
  _atom_site_label
  _atom_site_symmetry_multiplicity
  _atom_site_fract_x
  _atom_site_fract_y
  _atom_site_fract_z
  _atom_site_occupancy
  Cd  Cd1       1.0  0.5632637314836657  0.5632574969514934  0.2155597607653448  1.0000
  Cd  Cd2       1.0  0.4367293917045956  0.4367424305693959  0.7844384035880341  1.0000
  H   H1        1.0  0.28356772576226774  0.4799899435298016  0.09873534463132934  1.0000
  H   H2        1.0  0.5200112188478914  0.7164299572379776  0.9012679891806743  1.0000
  H   H3        1.0  0.7164298988657336  0.5200100123694611  0.9012647185620256  1.0000
  H   H4        1.0  0.4799904389866256  0.2835668382541813  0.09873195144834315  1.0000
  H   H5        1.0  0.2559750115122697  0.2559730367605724  0.33169762088837734  1.0000
  H   H6        1.0  0.7440227064146896  0.7440221861071662  0.6683047838008705  1.0000
  H   H7        1.0  0.09389799694746868  0.09389291796454564  0.5332380574597266  1.0000
  H   H8        1.0  0.9061032002219561  0.9061006963116399  0.4667607046198159  1.0000
  H   H9        1.0  0.1731613548285438  0.1731621333337756  0.7125816780792533  1.0000
  H   H10       1.0  0.826832838447103  0.8268346527085627  0.2874193120906555  1.0000
  C   C1        1.0  0.26726536658895833  0.9648528748216594  0.06758780995413363  1.0000
  C   C2        1.0  0.0351504005803491  0.7327391337085346  0.9324085292544524  1.0000
  C   C3        1.0  0.7327351656999282  0.03515183302803851  0.9324111776366453  1.0000
  C   C4        1.0  0.9648556426905373  0.26726240048505195  0.0675884401541467  1.0000
  C   C5        1.0  0.14774936561916974  0.14774278503685423  0.9895287294039863  1.0000
  C   C6        1.0  0.852252737744152  0.8522571765323053  0.010470704064829238  1.0000
  C   C7        1.0  0.17432778062159576  0.9856518035728358  0.19098925118615995  1.0000
  C   C8        1.0  0.014363388546030401  0.8256819473594136  0.8090106349351132  1.0000
  C   C9        1.0  0.8256770337552979  0.014367192305726901  0.8090113535956434  1.0000
  C   C10       1.0  0.9856555975119008  0.17432121621533278  0.19098766809322146  1.0000
  C   C11       1.0  0.2792110152087588  0.2792053418819407  0.41482811233580463  1.0000
  C   C12       1.0  0.7207836639176649  0.7207898242194233  0.5851688121859342  1.0000
  C   C13       1.0  0.19166916590805974  0.19166077621071062  0.5240758029324583  1.0000
  C   C14       1.0  0.808330382024245  0.8083423325165243  0.4759218574828381  1.0000
  C   C15       1.0  0.2342373226160888  0.23423623362145213  0.6233079438870632  1.0000
  C   C16       1.0  0.7657656869411368  0.765770075240674  0.3766921609710323  1.0000
  C   C17       1.0  0.43294249236195276  0.4329431067317984  0.5055633365368521  1.0000
  C   C18       1.0  0.5670517311862541  0.5670537095885066  0.4944410250524173  1.0000
  N   N1        1.0  0.3994600769277809  0.39946068055455447  0.4058646937365325  1.0000
  N   N2        1.0  0.6005370088724648  0.6005408422992389  0.5941335351211379  1.0000
  N   N3        1.0  0.3543717247844  0.35437255408530194  0.6143587499746133  1.0000
  N   N4        1.0  0.645625932597433  0.6456226082265033  0.3856369118759276  1.0000
  O   O1        1.0  0.4248620952431069  0.8097001584219116  0.03877040013309596  1.0000
  O   O2        1.0  0.1902837174070271  0.5751362249053926  0.9612302673250144  1.0000
  O   O3        1.0  0.5751328007537778  0.19028557189437834  0.9612345787997756  1.0000
  O   O4        1.0  0.8097044890852416  0.4248605384381036  0.03876987676793679  1.0000
  O   O5        1.0  0.19200953605782445  0.19200244790060592  0.8798452732594982  1.0000
  O   O6        1.0  0.8079877060677632  0.8079895786121657  0.12015426717059809  1.0000
  O   O7        1.0  0.2474388831247937  0.8570890327068453  0.2777453776627894  1.0000
  O   O8        1.0  0.14291050745735842  0.7525766624293768  0.7222532843751851  1.0000
  O   O9        1.0  0.7525706217710139  0.1429157016216251  0.7222540361886018  1.0000
  O   O10       1.0  0.8570943548096464  0.24743755500072245  0.27774460477348134  1.0000
  O   O11       1.0  0.38094738945221013  0.38094874239727267  0.1527440391226662  1.0000
  O   O12       1.0  0.6190497972151192  0.6190480549944795  0.8472573740857287  1.0000
