data_image0
_chemical_formula_structural       CdSi2H36C32N4Cl2
_chemical_formula_sum              "Cd1 Si2 H36 C32 N4 Cl2"
_cell_length_a       8.395408917287101
_cell_length_b       9.272983691602667
_cell_length_c       13.28590525795251
_cell_angle_alpha    93.81942737074061
_cell_angle_beta     108.80452135716841
_cell_angle_gamma    104.43676988797354

_space_group_name_H-M_alt    "P 1"
_space_group_IT_number       1

loop_
  _space_group_symop_operation_xyz
  'x, y, z'

loop_
  _atom_site_type_symbol
  _atom_site_label
  _atom_site_symmetry_multiplicity
  _atom_site_fract_x
  _atom_site_fract_y
  _atom_site_fract_z
  _atom_site_occupancy
  Cd  Cd1       1.0  0.9999964169782203  3.812834549399208e-06  2.0473521971486405e-06  1.0000
  Si  Si1       1.0  0.45270886689172574  0.3043036665888153  0.660224451340305  1.0000
  Si  Si2       1.0  0.5472937373193643  0.695695475099619  0.3397743934608926  1.0000
  H   H1        1.0  0.967482486821055  0.6382053511504467  0.9706514877518942  1.0000
  H   H2        1.0  0.03251500849060561  0.3617916250812528  0.02936134746526161  1.0000
  H   H3        1.0  0.7726792139061658  0.3885234232332878  0.8606275457390923  1.0000
  H   H4        1.0  0.22730862546320915  0.6114715188050114  0.13938111915279452  1.0000
  H   H5        1.0  0.4599374877245522  0.6364470711654278  0.656209373557374  1.0000
  H   H6        1.0  0.5400756196190173  0.363557506372416  0.3437856977623284  1.0000
  H   H7        1.0  0.6575924248836245  0.8716060246467592  0.7837117871732815  1.0000
  H   H8        1.0  0.3424253153475618  0.1284007123280873  0.2162857700662997  1.0000
  H   H9        1.0  0.021839414945304725  0.2613622767810925  0.8537988660848724  1.0000
  H   H10       1.0  0.9781527036274296  0.738642815844827  0.14619683072452716  1.0000
  H   H11       1.0  0.19058044691540488  0.385072762657849  0.7431096856393467  1.0000
  H   H12       1.0  0.8094123071395812  0.6149300335429828  0.25689052570322696  1.0000
  H   H13       1.0  0.418602826422571  0.012692641384219903  0.7599855204869996  1.0000
  H   H14       1.0  0.5813677952548275  0.987301603031831  0.2400070911900798  1.0000
  H   H15       1.0  0.2504356833980881  0.9130727575178176  0.876898814368751  1.0000
  H   H16       1.0  0.7495356055726035  0.0869271631681627  0.1230912116283136  1.0000
  H   H17       1.0  0.6618388453035492  0.1562809170764012  0.7103886655819522  1.0000
  H   H18       1.0  0.3381692454533082  0.8437078369594532  0.2896204406294913  1.0000
  H   H19       1.0  0.5112158145397956  0.08778959877129473  0.5753492401306204  1.0000
  H   H20       1.0  0.48878369846323005  0.9122039250745573  0.4246532467363409  1.0000
  H   H21       1.0  0.8282677257188097  0.37663080018428025  0.6482314692848236  1.0000
  H   H22       1.0  0.1717468564482373  0.6233623479307511  0.35177607079833  1.0000
  H   H23       1.0  0.6413626233003455  0.157880134067625  0.43294826273161396  1.0000
  H   H24       1.0  0.35863725764708215  0.8421247597872964  0.5670548970158436  1.0000
  H   H25       1.0  0.8364583424361668  0.3251235370207013  0.46858305271582174  1.0000
  H   H26       1.0  0.163533849460606  0.6748735778768591  0.531422022612901  1.0000
  H   H27       1.0  0.2429108107594473  0.42553604136438145  0.5449995861244332  1.0000
  H   H28       1.0  0.7571141725821987  0.5744773485121469  0.4549951594376935  1.0000
  H   H29       1.0  0.37488869051782797  0.37055529668274534  0.47784917024448964  1.0000
  H   H30       1.0  0.6251330868922977  0.6294308529998391  0.5221525648954781  1.0000
  H   H31       1.0  0.0416280485635525  0.1696782706530939  0.5037129978146169  1.0000
  H   H32       1.0  0.9583627990446856  0.8303314148229931  0.49627366992842786  1.0000
  H   H33       1.0  0.266932837971126  0.09609632354084141  0.37578387124542456  1.0000
  H   H34       1.0  0.7331093376626397  0.9039166177688712  0.6242351446598703  1.0000
  H   H35       1.0  0.050121309678786405  0.9799415445483887  0.37256626497266854  1.0000
  H   H36       1.0  0.9499086345332229  0.020061482842272913  0.62742735046902  1.0000
  C   C1        1.0  0.8503567417577429  0.630415704898617  0.9011730057234645  1.0000
  C   C2        1.0  0.14962683883472752  0.369569114382955  0.09882227825514182  1.0000
  C   C3        1.0  0.7437033662618332  0.4929594102246426  0.8377236149061814  1.0000
  C   C4        1.0  0.2563052103968673  0.5070543617988434  0.1622906763222502  1.0000
  C   C5        1.0  0.598628599580735  0.4901608085789705  0.7466905298411817  1.0000
  C   C6        1.0  0.40137024289501966  0.5098350133697522  0.2533066830572182  1.0000
  C   C7        1.0  0.5684696676214216  0.6291223661289039  0.7260417664628989  1.0000
  C   C8        1.0  0.4315546151213283  0.37089444188644904  0.2739650775626856  1.0000
  C   C9        1.0  0.6790401477556854  0.7614395596218414  0.795217467232746  1.0000
  C   C10       1.0  0.3209591739658677  0.23854829397381394  0.2047711289783933  1.0000
  C   C11       1.0  0.1138324734355294  0.21237164809859624  0.8317260504488927  1.0000
  C   C12       1.0  0.8861467738630892  0.787631477841572  0.16827617383840723  1.0000
  C   C13       1.0  0.2064529468908205  0.278373873681673  0.7686380521618688  1.0000
  C   C14       1.0  0.7935381603495273  0.721632385958081  0.23135375288893556  1.0000
  C   C15       1.0  0.3198071059908543  0.20853639765046955  0.7401565329034553  1.0000
  C   C16       1.0  0.6801779797415861  0.7914620320070823  0.2598465321956667  1.0000
  C   C17       1.0  0.3315928133399808  0.07234605280807933  0.7772485723382871  1.0000
  C   C18       1.0  0.6683875597696272  0.9276513686348693  0.2227415114064543  1.0000
  C   C19       1.0  0.23760996165228218  0.014987374209802303  0.8423305091593251  1.0000
  C   C20       1.0  0.7623609754303616  0.9850068551062211  0.1576689374361636  1.0000
  C   C21       1.0  0.5965866880234072  0.19020199032311072  0.6329468388117903  1.0000
  C   C22       1.0  0.40340273915348485  0.8097940519127675  0.3670606751126472  1.0000
  C   C23       1.0  0.729125235933985  0.27973249363216013  0.5915513511788788  1.0000
  C   C24       1.0  0.2708810678281353  0.7202597305537354  0.4084463109992811  1.0000
  C   C25       1.0  0.7350451667025051  0.25361547786418737  0.4926514046657217  1.0000
  C   C26       1.0  0.26495112599528886  0.7463769951311436  0.5073436481370238  1.0000
  C   C27       1.0  0.29738836935197804  0.33367457852510546  0.5292058837613638  1.0000
  C   C28       1.0  0.7026317486660076  0.6663275414192356  0.4707978960455534  1.0000
  C   C29       1.0  0.1545592658840675  0.1897984604025638  0.4769763493967929  1.0000
  C   C30       1.0  0.8454451618045694  0.8102029176058281  0.5230176839208555  1.0000
  C   C31       1.0  0.15762697450181654  0.08347121817826061  0.4050543586361925  1.0000
  C   C32       1.0  0.8423950721288023  0.9165331330526884  0.5949468879933164  1.0000
  N   N1        1.0  0.8183536162338712  0.7626772999147563  0.8809781337322918  1.0000
  N   N2        1.0  0.18166095802743598  0.23732608879809192  0.11903070200592941  1.0000
  N   N3        1.0  0.13081088045721154  0.08382224315099761  0.8692187584836049  1.0000
  N   N4        1.0  0.8691719372952631  0.9161785322786857  0.13077120705067102  1.0000
  Cl  Cl1       1.0  0.24127898816792037  0.8690568490721662  0.08084476710865833  1.0000
  Cl  Cl2       1.0  0.7587059877576788  0.1309438518437531  0.9191651749879667  1.0000
