data_image0
_chemical_formula_structural       Mn4H8C24N8O16
_chemical_formula_sum              "Mn4 H8 C24 N8 O16"
_cell_length_a       5.305871032216408
_cell_length_b       10.318871934952618
_cell_length_c       12.08180816237552
_cell_angle_alpha    106.85901354115698
_cell_angle_beta     89.99897818328101
_cell_angle_gamma    90.00033685280015

_space_group_name_H-M_alt    "P 1"
_space_group_IT_number       1

loop_
  _space_group_symop_operation_xyz
  'x, y, z'

loop_
  _atom_site_type_symbol
  _atom_site_label
  _atom_site_symmetry_multiplicity
  _atom_site_fract_x
  _atom_site_fract_y
  _atom_site_fract_z
  _atom_site_occupancy
  Mn  Mn1       1.0  0.7824566408874103  0.7647197953498975  0.23479620358164505  1.0000
  Mn  Mn2       1.0  0.7174939916623657  0.764705229336947  0.7347992070913987  1.0000
  Mn  Mn3       1.0  0.2175465806112555  0.23528428452732444  0.7652060939233107  1.0000
  Mn  Mn4       1.0  0.2824884981692719  0.2352948028814765  0.26519794759161636  1.0000
  H   H1        1.0  0.1793901859016813  0.7732062021522664  0.450429726211027  1.0000
  H   H2        1.0  0.3205652270402553  0.7731957838139605  0.9504346006589726  1.0000
  H   H3        1.0  0.8206281133655297  0.22680598320874887  0.5495679611302222  1.0000
  H   H4        1.0  0.679436109627602  0.22678297606125852  0.04956803507622  1.0000
  H   H5        1.0  0.8841570606810123  0.6026927530094782  0.9518686689469502  1.0000
  H   H6        1.0  0.6158530341626259  0.6027061434741371  0.4518724830983486  1.0000
  H   H7        1.0  0.11585746899866223  0.39730119898579375  0.048133598293823396  1.0000
  H   H8        1.0  0.3841313404380601  0.39730199195984284  0.548123371673391  1.0000
  C   C1        1.0  0.8123179450185702  0.02270778365844  0.4333477066879253  1.0000
  C   C2        1.0  0.6877138159225921  0.022675972409615497  0.9333499768869018  1.0000
  C   C3        1.0  0.1876947000167206  0.9773084482178047  0.5666567786772487  1.0000
  C   C4        1.0  0.3122950595654643  0.9772977243737699  0.06665140238327175  1.0000
  C   C5        1.0  0.09649334506894996  0.8737646088575273  0.4734515405545208  1.0000
  C   C6        1.0  0.4034997822228163  0.8737684479857607  0.973456815395444  1.0000
  C   C7        1.0  0.9035193000839071  0.12624858911988207  0.5265463980956113  1.0000
  C   C8        1.0  0.5965109779462877  0.12622955109112163  0.026551422311555897  1.0000
  C   C9        1.0  0.6077858323909239  0.044722992640402  0.3543955288853695  1.0000
  C   C10       1.0  0.8922436627916853  0.0446640420223119  0.8543803449547909  1.0000
  C   C11       1.0  0.3922192737946019  0.9552851371485717  0.6456086013117781  1.0000
  C   C12       1.0  0.10776332812071131  0.955324848570399  0.14561818322724918  1.0000
  C   C13       1.0  0.3932253294145339  0.5583265240874128  0.10361851289601988  1.0000
  C   C14       1.0  0.10674203010437819  0.5583159017527777  0.6036250248694798  1.0000
  C   C15       1.0  0.606789200313699  0.44167249269976583  0.8963825281294716  1.0000
  C   C16       1.0  0.8932272667766128  0.44168818037021407  0.3963739625634587  1.0000
  C   C17       1.0  0.7149249873343422  0.5557042128279335  0.9741458398425138  1.0000
  C   C18       1.0  0.7850818826131842  0.5557046023893975  0.47414260862439755  1.0000
  C   C19       1.0  0.2850895424117326  0.44429075404838164  0.025853368483574  1.0000
  C   C20       1.0  0.21490626141645208  0.444293407421  0.5258499057101103  1.0000
  C   C21       1.0  0.2903070643018637  0.6246630835177526  0.22244786045357748  1.0000
  C   C22       1.0  0.20963540126376046  0.624647488910057  0.7224630860838912  1.0000
  C   C23       1.0  0.7097036962682424  0.37533189127361777  0.7775397621802397  1.0000
  C   C24       1.0  0.7903338956347739  0.37535355592116554  0.27753431993687616  1.0000
  N   N1        1.0  0.909137980529259  0.8967801981756551  0.40743871925360503  1.0000
  N   N2        1.0  0.5908672519596435  0.8967614591599895  0.9074441701953756  1.0000
  N   N3        1.0  0.09088031863907989  0.1032279333160773  0.5925629282415841  1.0000
  N   N4        1.0  0.4091491623761527  0.10322742804427784  0.09255932325345378  1.0000
  N   N5        1.0  0.607684783017163  0.6129919096033801  0.07708571396818797  1.0000
  N   N6        1.0  0.8923009282967057  0.6129845924554402  0.5770982409888674  1.0000
  N   N7        1.0  0.39232786205814557  0.387001033164843  0.9229113366896937  1.0000
  N   N8        1.0  0.1076834461392977  0.3870164489900318  0.42290413027703977  1.0000
  O   O1        1.0  0.5465991566767058  0.9436176279044445  0.2709668938679569  1.0000
  O   O2        1.0  0.9533893988330034  0.943602277129628  0.7709637019722917  1.0000
  O   O3        1.0  0.4534040647880316  0.0563884760799667  0.729037561312424  1.0000
  O   O4        1.0  0.046610053291374194  0.05639572816224361  0.22903543272274618  1.0000
  O   O5        1.0  0.5131040073521902  0.1630494724564215  0.37789014147784866  1.0000
  O   O6        1.0  0.986961465535323  0.16302604423814418  0.8778970957377366  1.0000
  O   O7        1.0  0.4869029836047076  0.8369586595954103  0.6221106785101609  1.0000
  O   O8        1.0  0.0130379865235284  0.8369679083154223  0.12210434401028886  1.0000
  O   O9        1.0  0.4505792289263012  0.6847470506379593  0.29792451127348574  1.0000
  O   O10       1.0  0.0493683012286255  0.6847252347673984  0.7979286983853126  1.0000
  O   O11       1.0  0.5494353007820719  0.3152631043936864  0.7020801214620389  1.0000
  O   O12       1.0  0.9505934569175591  0.3152768249412645  0.2020656487496382  1.0000
  O   O13       1.0  0.0544057479036439  0.6172187513597008  0.23905563220510817  1.0000
  O   O14       1.0  0.4455472866298535  0.6172033789830921  0.7390731889910924  1.0000
  O   O15       1.0  0.9455899348280282  0.3827792544958655  0.7609426749538881  1.0000
  O   O16       1.0  0.5544201253791528  0.3828027227222819  0.26093457652831376  1.0000
