data_image0
_chemical_formula_structural       Ho2P8H40Ru4C8O40
_chemical_formula_sum              "Ho2 P8 H40 Ru4 C8 O40"
_cell_length_a       9.486783070703384
_cell_length_b       9.486341536519536
_cell_length_c       15.39
_cell_angle_alpha    92.72914535454454
_cell_angle_beta     92.72901823842348
_cell_angle_gamma    98.29805540649814

_space_group_name_H-M_alt    "P 1"
_space_group_IT_number       1

loop_
  _space_group_symop_operation_xyz
  'x, y, z'

loop_
  _atom_site_type_symbol
  _atom_site_label
  _atom_site_symmetry_multiplicity
  _atom_site_fract_x
  _atom_site_fract_y
  _atom_site_fract_z
  _atom_site_occupancy
  Ho  Ho1       1.0  0.9937437544379435  0.0062489646291439  0.7499990065815467  1.0000
  Ho  Ho2       1.0  0.006240999154862009  0.9937518159313043  0.2500126546238235  1.0000
  P   P1        1.0  0.06047408118958229  0.3431627941587081  0.6418660125375126  1.0000
  P   P2        1.0  0.6568250664174755  0.939527617647741  0.858139269081228  1.0000
  P   P3        1.0  0.9395481927768117  0.6568347856344658  0.3581577020631954  1.0000
  P   P4        1.0  0.3431597600431076  0.0604592929212089  0.1418596415071676  1.0000
  P   P5        1.0  0.9977891401161543  0.6495818470056633  0.6602623590923358  1.0000
  P   P6        1.0  0.35040726313972204  0.0022106632596177  0.8397448528875557  1.0000
  P   P7        1.0  0.0022361849271775053  0.3504221343220522  0.3397616329372966  1.0000
  P   P8        1.0  0.6495775213808272  0.9977687788523752  0.160245390231303  1.0000
  H   H1        1.0  0.8273098423756124  0.44418007605246157  0.725282439134176  1.0000
  H   H2        1.0  0.5558138301037374  0.1726899294764337  0.7747301108614193  1.0000
  H   H3        1.0  0.1726999358118775  0.5558473775685542  0.27474373482041153  1.0000
  H   H4        1.0  0.44414793661644575  0.8272980480149386  0.2252681542499175  1.0000
  H   H5        1.0  0.41483174099878545  0.6837884467964912  0.5372757345929102  1.0000
  H   H6        1.0  0.3162173070512537  0.5851856103450785  0.9626960936291695  1.0000
  H   H7        1.0  0.5851317300323161  0.3162614121953951  0.46274064104136403  1.0000
  H   H8        1.0  0.6837602581649945  0.414823705594749  0.037238284173014294  1.0000
  H   H9        1.0  0.3979041600970206  0.5187046072707417  0.5389851319632726  1.0000
  H   H10       1.0  0.4812947510750405  0.6022723729429416  0.96089176524454  1.0000
  H   H11       1.0  0.6022910055730152  0.4813420509538772  0.460885903056301  1.0000
  H   H12       1.0  0.5186842159687259  0.3978254975579603  0.0389932709216012  1.0000
  H   H13       1.0  0.8309822000143612  0.1427958301177341  0.619846903890469  1.0000
  H   H14       1.0  0.8572007421068547  0.1690047794287892  0.8801523534510309  1.0000
  H   H15       1.0  0.169021946262788  0.8572220212014728  0.3801671270419718  1.0000
  H   H16       1.0  0.1427560196944029  0.830977863450471  0.1198573041072066  1.0000
  H   H17       1.0  0.713966051404995  0.0738694408508067  0.6822570394948713  1.0000
  H   H18       1.0  0.9261208225694234  0.2860216299717706  0.817741403515491  1.0000
  H   H19       1.0  0.286022808559686  0.926137741244169  0.3177490821585351  1.0000
  H   H20       1.0  0.073873073241927  0.7139695482868689  0.1822871382737574  1.0000
  H   H21       1.0  0.12266433963608141  0.898053142314197  0.9146176632870178  1.0000
  H   H22       1.0  0.1019537498429059  0.8773057688844047  0.5853833511042836  1.0000
  H   H23       1.0  0.8773174048198129  0.1019487051686738  0.0853802956912588  1.0000
  H   H24       1.0  0.898033469775484  0.12270461397784518  0.41462931407240683  1.0000
  H   H25       1.0  0.9536537486695238  0.8710706742467593  0.9186176819452996  1.0000
  H   H26       1.0  0.1289154937788197  0.046320436976977  0.5813555534172323  1.0000
  H   H27       1.0  0.04632970900043891  0.1289141024773457  0.0813603331201307  1.0000
  H   H28       1.0  0.8710766888184692  0.9536878120404282  0.4186636925187769  1.0000
  H   H29       1.0  0.17366591958933952  0.43478795796634984  0.8226888443824123  1.0000
  H   H30       1.0  0.5651990847370242  0.8263452862915628  0.6773108443054667  1.0000
  H   H31       1.0  0.8263609309924718  0.5652192241286258  0.17733073795362483  1.0000
  H   H32       1.0  0.4348057194592698  0.1736554942688784  0.3226754144708508  1.0000
  H   H33       1.0  0.1455421520773399  0.6194327531879651  0.828723845679626  1.0000
  H   H34       1.0  0.3805615578859332  0.8544597590493695  0.6712731844446934  1.0000
  H   H35       1.0  0.854497832287066  0.3805776296742849  0.1712845201600004  1.0000
  H   H36       1.0  0.6194382303791315  0.1455068799935475  0.3287171232627699  1.0000
  H   H37       1.0  0.2602822061544289  0.5580537731384752  0.7515830111640582  1.0000
  H   H38       1.0  0.4419352332866921  0.7397175871113575  0.7484138011137063  1.0000
  H   H39       1.0  0.7397348642051327  0.44192993666320757  0.2484238993225887  1.0000
  H   H40       1.0  0.5580895376330162  0.2602682565351699  0.2515719555121692  1.0000
  Ru  Ru1       1.0  0.1215988544403928  0.5402351017587108  0.4966291394416941  1.0000
  Ru  Ru2       1.0  0.45974030282135897  0.8784004312899895  0.0033854523657765954  1.0000
  Ru  Ru3       1.0  0.8784262719150532  0.4597603441896183  0.5033965455656357  1.0000
  Ru  Ru4       1.0  0.5402266564933597  0.12157260928746888  0.9966157756180677  1.0000
  C   C1        1.0  0.035929795650901  0.49284027390218205  0.7190168352941058  1.0000
  C   C2        1.0  0.5071462976598085  0.9640721679795446  0.7809877664917264  1.0000
  C   C3        1.0  0.9640909527770134  0.5071541051237247  0.2810047912744054  1.0000
  C   C4        1.0  0.4928454456216613  0.0359115418221378  0.2190028061172526  1.0000
  C   C5        1.0  0.1618637818000721  0.528664328085668  0.7852490747822003  1.0000
  C   C6        1.0  0.4713278024136898  0.8381422475181992  0.7147512610730117  1.0000
  C   C7        1.0  0.838164865875875  0.4713407201644699  0.2147711474429741  1.0000
  C   C8        1.0  0.5286769179025299  0.1618435961283282  0.2852358563964613  1.0000
  O   O1        1.0  0.1806567161840889  0.3963840853650353  0.5807863811286609  1.0000
  O   O2        1.0  0.603591433453019  0.8193324052078452  0.9192220677606926  1.0000
  O   O3        1.0  0.8193623499575011  0.6036060259711817  0.4192363703564936  1.0000
  O   O4        1.0  0.3963850235159825  0.1806406353696133  0.0807781394288938  1.0000
  O   O5        1.0  0.9138904013383422  0.3067188580477023  0.5869827521217416  1.0000
  O   O6        1.0  0.6932633373271955  0.0860953048913302  0.9130283915780665  1.0000
  O   O7        1.0  0.0861203791917333  0.6932723202109372  0.4130378381811397  1.0000
  O   O8        1.0  0.3067090132699377  0.9138713341515937  0.08697670539091008  1.0000
  O   O9        1.0  0.0910084951667045  0.21925255784333328  0.6933834434380799  1.0000
  O   O10       1.0  0.7807242419609465  0.9089794948439903  0.8066191618888823  1.0000
  O   O11       1.0  0.9089941984397498  0.7807482227171079  0.3066430392935331  1.0000
  O   O12       1.0  0.21925921570901608  0.0910052818801148  0.19338159521683448  1.0000
  O   O13       1.0  0.1221171929842058  0.6886728176471308  0.5978280778636813  1.0000
  O   O14       1.0  0.3113109930741658  0.8778691039235369  0.9021785821736614  1.0000
  O   O15       1.0  0.877900630186879  0.3113375652151191  0.40219458232649435  1.0000
  O   O16       1.0  0.6886643666598785  0.1220964681969647  0.097809027938581  1.0000
  O   O17       1.0  0.855141634278489  0.596189848211722  0.6060636136883062  1.0000
  O   O18       1.0  0.4037983132063943  0.1448539234709187  0.8939479942482293  1.0000
  O   O19       1.0  0.1448851743632815  0.4038098654262967  0.393959646857212  1.0000
  O   O20       1.0  0.5961774748311655  0.8551073809598861  0.1060460009059483  1.0000
  O   O21       1.0  0.9861280965803446  0.7695231319089828  0.7255702788884903  1.0000
  O   O22       1.0  0.23047456108906061  0.0138721253385867  0.7744365475048199  1.0000
  O   O23       1.0  0.013897500018657603  0.23047551480661352  0.2744542143158171  1.0000
  O   O24       1.0  0.7695186238508142  0.9860998483164494  0.2255517736488812  1.0000
  O   O25       1.0  0.9095754471683364  0.4455382682964242  0.7664690450884208  1.0000
  O   O26       1.0  0.5544527912674226  0.090432344539181  0.733537808786366  1.0000
  O   O27       1.0  0.0904455418875045  0.5544721145658258  0.2335556573364599  1.0000
  O   O28       1.0  0.4455307083425737  0.9095599006418881  0.2664579705647157  1.0000
  O   O29       1.0  0.380895757321106  0.5963584219544984  0.5019079912754165  1.0000
  O   O30       1.0  0.40367625773360777  0.6190699995642817  0.9980488766384923  1.0000
  O   O31       1.0  0.619045375853375  0.4037405154688258  0.49807018282518095  1.0000
  O   O32       1.0  0.5963163730826438  0.3808838364095664  0.001888213659853496  1.0000
  O   O33       1.0  0.8036448637275058  0.059265406730325806  0.654982859924793  1.0000
  O   O34       1.0  0.9407089373251409  0.1963329303611445  0.8450148256745607  1.0000
  O   O35       1.0  0.19634700537407923  0.9407407084422347  0.3450304662299075  1.0000
  O   O36       1.0  0.0592591192245351  0.8036475786732709  0.15500939574788927  1.0000
  O   O37       1.0  0.03366099839619349  0.936081458222759  0.8996037057014518  1.0000
  O   O38       1.0  0.0639314189223228  0.9663169727566866  0.6004003142001791  1.0000
  O   O39       1.0  0.9663261483544189  0.0639427946309823  0.10041716168415599  1.0000
  O   O40       1.0  0.9360349663533185  0.0336880754934441  0.3995979377079735  1.0000
