data_image0
_chemical_formula_structural       Zn2H4C40N8Cl6O20
_chemical_formula_sum              "Zn2 H4 C40 N8 Cl6 O20"
_cell_length_a       14.304646024327226
_cell_length_b       14.729871684074585
_cell_length_c       15.052622385689569
_cell_angle_alpha    89.97524580392768
_cell_angle_beta     88.69925314699667
_cell_angle_gamma    89.95602696467863

_space_group_name_H-M_alt    "P 1"
_space_group_IT_number       1

loop_
  _space_group_symop_operation_xyz
  'x, y, z'

loop_
  _atom_site_type_symbol
  _atom_site_label
  _atom_site_symmetry_multiplicity
  _atom_site_fract_x
  _atom_site_fract_y
  _atom_site_fract_z
  _atom_site_occupancy
  Zn  Zn1       1.0  0.5003361306194876  0.40111200718009593  0.5000112234582732  1.0000
  Zn  Zn2       1.0  0.4998196884485752  0.5965110333254484  0.5001674293382408  1.0000
  H   H1        1.0  0.3631446451834037  0.49832778769024333  0.23483997246400898  1.0000
  H   H2        1.0  0.6365608001265173  0.49451328491912944  0.7653991065612331  1.0000
  H   H3        1.0  0.2685093437286242  0.4699792750425047  0.10152604974411623  1.0000
  H   H4        1.0  0.7305743656740091  0.4646462626906354  0.8989117479971257  1.0000
  C   C1        1.0  0.48348875974782163  0.511527852277119  0.6682785741754529  1.0000
  C   C2        1.0  0.5164393943960448  0.5120751223975545  0.3319535849818465  1.0000
  C   C3        1.0  0.6773184780391759  0.48599073163374823  0.5182732537853385  1.0000
  C   C4        1.0  0.3229043848883606  0.4852369471278307  0.4818704748318155  1.0000
  C   C5        1.0  0.7779126742501249  0.48602212632653863  0.5173045531523145  1.0000
  C   C6        1.0  0.22230023241038313  0.4851207612692931  0.48252055205293953  1.0000
  C   C7        1.0  0.8635899643326894  0.4870383206803766  0.5112132956908013  1.0000
  C   C8        1.0  0.1366181306381478  0.4864372724394527  0.48847455141427093  1.0000
  C   C9        1.0  0.957064640879189  0.48750547464065613  0.5036299975242144  1.0000
  C   C10       1.0  0.043135643545255696  0.4873177440643984  0.49595808653756296  1.0000
  C   C11       1.0  0.5959793397877889  0.4943559056187325  0.1811176643623185  1.0000
  C   C12       1.0  0.4036993791546451  0.4953914620100832  0.8191267355216285  1.0000
  C   C13       1.0  0.5134136448571951  0.5018396470149752  0.23266507074814063  1.0000
  C   C14       1.0  0.4863737803023228  0.5011786737174262  0.7675790611711336  1.0000
  C   C15       1.0  0.42673442566980674  0.49459969466661846  0.19357896421573886  1.0000
  C   C16       1.0  0.5728929801773859  0.4922386385487698  0.8066573572311884  1.0000
  C   C17       1.0  0.420215545104199  0.48420921435429415  0.10140808750838201  1.0000
  C   C18       1.0  0.5792174153992491  0.4820105312574085  0.898881370175417  1.0000
  C   C19       1.0  0.5034268666860342  0.47868366427079667  0.04747231956444151  1.0000
  C   C20       1.0  0.4959237939302882  0.4785292333839308  0.9528636502275278  1.0000
  C   C21       1.0  0.5931053309799738  0.47780321402599657  0.08861843183161973  1.0000
  C   C22       1.0  0.4062153845869361  0.47931328538115264  0.9117481769489544  1.0000
  C   C23       1.0  0.3319369270109505  0.4756321588183354  0.0603625253970606  1.0000
  C   C24       1.0  0.6672611422804096  0.4717992978548222  0.9400304610895135  1.0000
  C   C25       1.0  0.3259644450808139  0.4692283758297576  0.9702630731422561  1.0000
  C   C26       1.0  0.6731275344951869  0.46575697035650165  0.030182416916943608  1.0000
  C   C27       1.0  0.5488223089844767  0.19797642802514298  0.4385206512054296  1.0000
  C   C28       1.0  0.4497383331259996  0.8130618218654317  0.5598047687721747  1.0000
  C   C29       1.0  0.451421015361241  0.19799503557563009  0.5613875310692722  1.0000
  C   C30       1.0  0.5499982212696537  0.8129784234703904  0.439853164743063  1.0000
  C   C31       1.0  0.44171891367209787  0.1026241541870405  0.5623071538906574  1.0000
  C   C32       1.0  0.5600940739334278  0.9083694201291407  0.4394482035264745  1.0000
  C   C33       1.0  0.5583060245429365  0.10255892063089077  0.4373990695252204  1.0000
  C   C34       1.0  0.4396790275149485  0.9084593338473324  0.5601563182929683  1.0000
  C   C35       1.0  0.49997367966892625  0.054010001849057694  0.49982768291976504  1.0000
  C   C36       1.0  0.4999073221708131  0.9572420242257633  0.4997965132923883  1.0000
  C   C37       1.0  0.37666842424465596  0.052517628169169876  0.618080045378001  1.0000
  C   C38       1.0  0.6260450773175279  0.9583009013057051  0.3848248601340743  1.0000
  C   C39       1.0  0.6232226566424118  0.05236117373235768  0.381509616134764  1.0000
  C   C40       1.0  0.37371045596702873  0.958477158476377  0.614712611595941  1.0000
  N   N1        1.0  0.5001998373635175  0.2444569090152129  0.5000096003654307  1.0000
  N   N2        1.0  0.4998666806652423  0.7662233717570074  0.499853396780857  1.0000
  N   N3        1.0  0.23434972016074343  0.4389376450728619  0.9381398499712078  1.0000
  N   N4        1.0  0.7640737058762285  0.43361492051902667  0.06241807186378172  1.0000
  N   N5        1.0  0.5903087867208613  0.2553204586695301  0.3662662364490218  1.0000
  N   N6        1.0  0.4072070299950994  0.7572883580589148  0.6325025667300894  1.0000
  N   N7        1.0  0.4100697976333124  0.25523645553666796  0.6337904976892759  1.0000
  N   N8        1.0  0.5923709655671772  0.7571698457640536  0.3671037002235523  1.0000
  Cl  Cl1       1.0  0.6995358531590983  0.5133208106107503  0.23389865817545544  1.0000
  Cl  Cl2       1.0  0.3005480160040222  0.5157425039246418  0.7660309034159526  1.0000
  Cl  Cl3       1.0  0.29686168208409924  0.10650735684741616  0.685181752361153  1.0000
  Cl  Cl4       1.0  0.7134378343692662  0.9039989008906699  0.3271034064489484  1.0000
  Cl  Cl5       1.0  0.7029897975816797  0.10625972862106886  0.31434294097946497  1.0000
  Cl  Cl6       1.0  0.28616182613911434  0.9043180056491519  0.6722873015972725  1.0000
  O   O1        1.0  0.46702907947538114  0.4390274327492564  0.626238522211331  1.0000
  O   O2        1.0  0.49854332742514634  0.5895858635049437  0.36532111237658443  1.0000
  O   O3        1.0  0.5336138593013118  0.43962154184493585  0.3739177219388665  1.0000
  O   O4        1.0  0.5007171940209787  0.5892291477349969  0.6350519628034805  1.0000
  O   O5        1.0  0.6369436396594709  0.41006676296160544  0.5335499360751614  1.0000
  O   O6        1.0  0.36112590493301877  0.5612990914637945  0.49777527012844314  1.0000
  O   O7        1.0  0.3636863113081575  0.40953355534440306  0.466318849825477  1.0000
  O   O8        1.0  0.6387228507062944  0.5620413211522999  0.5027521132960331  1.0000
  O   O9        1.0  0.16375625932534632  0.4805930817799506  0.9641068139463657  1.0000
  O   O10       1.0  0.23532526238960125  0.36977882702943526  0.8912261323186572  1.0000
  O   O11       1.0  0.835594360754918  0.47321595192240534  0.0357349840681707  1.0000
  O   O12       1.0  0.761578462106506  0.36504648986633  0.11019438376778373  1.0000
  O   O13       1.0  0.6627750882600765  0.29615672678217203  0.38170702611252955  1.0000
  O   O14       1.0  0.5447464426763631  0.25595092721517426  0.2976307427511103  1.0000
  O   O15       1.0  0.34130797956351705  0.7081169910320425  0.613704456993972  1.0000
  O   O16       1.0  0.44441361704114973  0.7665576889640419  0.7050703038732566  1.0000
  O   O17       1.0  0.3376504003339065  0.2963336473183062  0.6185176407336925  1.0000
  O   O18       1.0  0.4556708938077422  0.25548853751948997  0.702405594002862  1.0000
  O   O19       1.0  0.6583288882982002  0.7078895852618174  0.3857004656269539  1.0000
  O   O20       1.0  0.5549139366599078  0.7665056347791648  0.2946474685638379  1.0000
