data_image0
_chemical_formula_structural       Cd2P4H64C62Cl4O4
_chemical_formula_sum              "Cd2 P4 H64 C62 Cl4 O4"
_cell_length_a       10.113659176695094
_cell_length_b       11.170841441533318
_cell_length_c       13.733351930072024
_cell_angle_alpha    89.99999505734156
_cell_angle_beta     90.00035252008867
_cell_angle_gamma    108.3655328041261

_space_group_name_H-M_alt    "P 1"
_space_group_IT_number       1

loop_
  _space_group_symop_operation_xyz
  'x, y, z'

loop_
  _atom_site_type_symbol
  _atom_site_label
  _atom_site_symmetry_multiplicity
  _atom_site_fract_x
  _atom_site_fract_y
  _atom_site_fract_z
  _atom_site_occupancy
  Cd  Cd1       1.0  0.8838817626529122  0.7922179595233417  0.7488599350441519  1.0000
  Cd  Cd2       1.0  0.11611877572615012  0.20778082583246515  0.2488601123162937  1.0000
  P   P1        1.0  0.2622075528148997  0.16969627621826078  0.10081282828830501  1.0000
  P   P2        1.0  0.7377935935742527  0.8303049615551071  0.600809076338365  1.0000
  P   P3        1.0  0.7781552754199694  0.8786688673111626  0.8934966335614051  1.0000
  P   P4        1.0  0.22184429669619732  0.1213293457348428  0.3935002065456104  1.0000
  H   H1        1.0  0.09509126041599814  0.33189380745599106  0.0602724519804028  1.0000
  H   H2        1.0  0.9049062157834483  0.6681063912900739  0.5602745624236505  1.0000
  H   H3        1.0  0.025524738107783683  0.4140402227321615  0.9069556117003119  1.0000
  H   H4        1.0  0.9744795759016825  0.585962733668893  0.4069596385682602  1.0000
  H   H5        1.0  0.10518265171116066  0.35917443590621884  0.7475329509725627  1.0000
  H   H6        1.0  0.8948277580139319  0.6408271551585543  0.24753661456226445  1.0000
  H   H7        1.0  0.2586247910996207  0.22267387049600268  0.7402284574278186  1.0000
  H   H8        1.0  0.7413835709700792  0.7773248746667251  0.24022486575879756  1.0000
  H   H9        1.0  0.327829633600679  0.13976021355665577  0.8919796245228326  1.0000
  H   H10       1.0  0.6721705857275353  0.8602398820902549  0.39197353038672134  1.0000
  H   H11       1.0  0.41176930626364344  0.3625239473224013  0.23631176233267587  1.0000
  H   H12       1.0  0.5882380355491534  0.6374776221821036  0.7363058918503713  1.0000
  H   H13       1.0  0.6597955877209997  0.44865572436103907  0.2827205088723872  1.0000
  H   H14       1.0  0.3402144907424045  0.5513469013364087  0.7827178934122047  1.0000
  H   H15       1.0  0.8389709183406991  0.37730368937526737  0.19542103391815863  1.0000
  H   H16       1.0  0.16103538728471278  0.6226987220913144  0.6954234300228777  1.0000
  H   H17       1.0  0.7673919103124263  0.2252097991496952  0.058583198672906206  1.0000
  H   H18       1.0  0.23260983675331917  0.7747941613577894  0.5585866358477745  1.0000
  H   H19       1.0  0.5207564860230818  0.1389416926372391  0.0112314953890618  1.0000
  H   H20       1.0  0.4792431769650563  0.8610630957434608  0.5112309431008059  1.0000
  H   H21       1.0  0.31044479145640475  0.9962081195026469  0.013279290092882  1.0000
  H   H22       1.0  0.6895529065624686  0.0037910146979243  0.5132782884784675  1.0000
  H   H23       1.0  0.3121628418206939  0.9832139929971431  0.1418910134544475  1.0000
  H   H24       1.0  0.6878376932644414  0.016784519137416996  0.6418892750637468  1.0000
  H   H25       1.0  0.04738952869099217  0.9213232360755651  0.14188240818626952  1.0000
  H   H26       1.0  0.9526106796727516  0.0786771647849278  0.6418818609353352  1.0000
  H   H27       1.0  0.098636976918698  0.9360251705420809  0.9222353501677176  1.0000
  H   H28       1.0  0.9013595669448622  0.06397217893115228  0.42223398492301106  1.0000
  H   H29       1.0  0.21693943713820824  0.7913734944599822  0.9025616195712232  1.0000
  H   H30       1.0  0.7830556098105887  0.20862569622237703  0.4025611668545039  1.0000
  H   H31       1.0  0.10091403744984717  0.6418579486420553  0.8680949045145283  1.0000
  H   H32       1.0  0.8990806900992111  0.3581411547418298  0.36809278108255944  1.0000
  H   H33       1.0  0.23177856612733191  0.6522717895803466  0.9584140092888804  1.0000
  H   H34       1.0  0.7682183170061946  0.347728483500191  0.4584134802476285  1.0000
  H   H35       1.0  0.03431399429038611  0.5323069574352032  0.08622008846357691  1.0000
  H   H36       1.0  0.9656863595729916  0.4676951888979346  0.5862173896612575  1.0000
  H   H37       1.0  0.9133253348634797  0.517405140169707  0.987658231055633  1.0000
  H   H38       1.0  0.08667477913422766  0.4825923681312928  0.48765607249361415  1.0000
  H   H39       1.0  0.8897470058862212  0.5908646249552659  0.0976911766127628  1.0000
  H   H40       1.0  0.11025410757952156  0.40913377294157255  0.5976904452019269  1.0000
  H   H41       1.0  0.9546560083256779  0.06035556433689491  0.9626185677714363  1.0000
  H   H42       1.0  0.04534124041551015  0.9396428306461144  0.46261764824355833  1.0000
  H   H43       1.0  0.8624579108953867  0.9564764647225771  0.05481664623714982  1.0000
  H   H44       1.0  0.13753918008055876  0.04351994500382969  0.5548189751745768  1.0000
  H   H45       1.0  0.5674399822275048  0.8901850603485567  0.03928299387116141  1.0000
  H   H46       1.0  0.43256290058577923  0.10981696023541328  0.5392837375858122  1.0000
  H   H47       1.0  0.3777412140138948  0.7222683455237585  0.11942906473191782  1.0000
  H   H48       1.0  0.6222653753627226  0.27773387117686343  0.6194277409425625  1.0000
  H   H49       1.0  0.3527176560415768  0.4976556652271142  0.09185963564507202  1.0000
  H   H50       1.0  0.6472827500918755  0.5023464953925013  0.5918591378831907  1.0000
  H   H51       1.0  0.5151853543254816  0.43812560843225856  0.9779058919270656  1.0000
  H   H52       1.0  0.4848080882714427  0.5618756664154317  0.47791135062983875  1.0000
  H   H53       1.0  0.7002164124722582  0.6049628265772852  0.8927319047536175  1.0000
  H   H54       1.0  0.29977656748798864  0.39503634379676816  0.392736539349869  1.0000
  H   H55       1.0  0.8821474070381541  0.15403376195038726  0.8608297038433151  1.0000
  H   H56       1.0  0.11784890249012389  0.8459672072044241  0.3608334868621697  1.0000
  H   H57       1.0  0.7675619667140339  0.3063532844172556  0.804346506863638  1.0000
  H   H58       1.0  0.23242953687753243  0.6936466076083291  0.3043457203031253  1.0000
  H   H59       1.0  0.5145109849440032  0.23374644898328253  0.7662612809463526  1.0000
  H   H60       1.0  0.4854788430935457  0.7662495736699029  0.2662601755751838  1.0000
  H   H61       1.0  0.37809859070259216  0.004303027660085899  0.7772874221169488  1.0000
  H   H62       1.0  0.6218942994018519  0.9956901840778156  0.2772898297879891  1.0000
  H   H63       1.0  0.4907367380082873  0.8524880482033266  0.837401886878695  1.0000
  H   H64       1.0  0.5092632982534367  0.14750718850431352  0.33740675563188205  1.0000
  C   C1        1.0  0.21651322678722104  0.23008590022526218  0.9865877372607275  1.0000
  C   C2        1.0  0.7834885265676873  0.7699134895292303  0.48658579249200784  1.0000
  C   C3        1.0  0.1311334826403296  0.3078821077709363  0.990191177826546  1.0000
  C   C4        1.0  0.8688692920834669  0.6921172888235957  0.4901925363397482  1.0000
  C   C5        1.0  0.09265919682175648  0.35469987752762216  0.9042098951603708  1.0000
  C   C6        1.0  0.9073421198240298  0.6452974148397671  0.4042107023479034  1.0000
  C   C7        1.0  0.13836650521582072  0.3243651897669437  0.8143193443737005  1.0000
  C   C8        1.0  0.861641559504953  0.6756365773230827  0.31432139950688764  1.0000
  C   C9        1.0  0.22392405925305775  0.2477164665650306  0.810280467867152  1.0000
  C   C10       1.0  0.7760826453998461  0.7522815173814124  0.3102799471464621  1.0000
  C   C11       1.0  0.2626140804488486  0.20068768559122666  0.8960840813650394  1.0000
  C   C12       1.0  0.7373891368004593  0.7993095816080356  0.3960804701991023  1.0000
  C   C13       1.0  0.489477007440371  0.3321717627850234  0.19704985599728536  1.0000
  C   C14       1.0  0.5105296438994956  0.6678315960246906  0.6970443608254655  1.0000
  C   C15       1.0  0.6297058925843686  0.3812383146585248  0.2229870289577676  1.0000
  C   C16       1.0  0.37030034181649546  0.6187660553665068  0.7229845447999922  1.0000
  C   C17       1.0  0.7297318396955815  0.34216472228395384  0.1738215459260672  1.0000
  C   C18       1.0  0.27027229385657847  0.6578404710304114  0.6738229765081344  1.0000
  C   C19       1.0  0.6895990824154123  0.2561484004601907  0.0969516594043611  1.0000
  C   C20       1.0  0.31040269354289757  0.7438575459698029  0.5969532653820765  1.0000
  C   C21       1.0  0.5497595108070358  0.20688931463282503  0.07072759451370561  1.0000
  C   C22       1.0  0.4502430100855932  0.7931165630819945  0.5707254595532945  1.0000
  C   C23       1.0  0.44810924317816603  0.24332349145615234  0.12175860542199503  1.0000
  C   C24       1.0  0.551893746587808  0.7566796835334413  0.6217554754911846  1.0000
  C   C25       1.0  0.253916085440359  0.004540998526536601  0.0801426974755586  1.0000
  C   C26       1.0  0.7460845427650111  0.9954620756421871  0.5801404281763496  1.0000
  C   C27       1.0  0.1092338440926638  0.9068886229495657  0.079287487396698  1.0000
  C   C28       1.0  0.8907661148799519  0.0931125625995506  0.5792866599854137  1.0000
  C   C29       1.0  0.026714383681252098  0.899496125504427  0.9837518533213231  1.0000
  C   C30       1.0  0.9732830648980625  0.10050515497631808  0.4837493540055818  1.0000
  C   C31       1.0  0.05472788043087468  0.7048254763201244  0.008172904339531302  1.0000
  C   C32       1.0  0.9452724034882466  0.2951726948446662  0.5081701249626818  1.0000
  C   C33       1.0  0.1580506088604778  0.6971899327133569  0.929572375562522  1.0000
  C   C34       1.0  0.8419469949667119  0.3028102650265366  0.4295714542224901  1.0000
  C   C35       1.0  0.9682336780091915  0.5778470774602409  0.04748365520756442  1.0000
  C   C36       1.0  0.031766312886737966  0.42215213878858987  0.5474811122903918  1.0000
  C   C37       1.0  0.9119711859102111  0.9607184311962131  0.983057733910677  1.0000
  C   C38       1.0  0.0880255949410582  0.03928096107618018  0.4830592519882303  1.0000
  C   C39       1.0  0.6453662039953514  0.7584429316636303  0.9597598403687544  1.0000
  C   C40       1.0  0.3546346434711793  0.24155733566632154  0.4597625484400894  1.0000
  C   C41       1.0  0.5561071366908192  0.7912250113527431  0.0254334758033394  1.0000
  C   C42       1.0  0.44389396852098884  0.20877508999274846  0.525437176648822  1.0000
  C   C43       1.0  0.4506198172721838  0.6968804863230389  0.07170235296677421  1.0000
  C   C44       1.0  0.5493823739848268  0.30311878668753417  0.5717021547678698  1.0000
  C   C45       1.0  0.43567186082385934  0.5699176699835603  0.05480186093650732  1.0000
  C   C46       1.0  0.5643278672515493  0.43008062157873883  0.5548039061525999  1.0000
  C   C47       1.0  0.5258581490279184  0.5370248831288364  0.9908430311017543  1.0000
  C   C48       1.0  0.47413738536300093  0.46297358792911336  0.4908477201132939  1.0000
  C   C49       1.0  0.630023926401151  0.6309278489953555  0.9429052211912535  1.0000
  C   C50       1.0  0.36997248639901403  0.36907427355903627  0.4429109025704464  1.0000
  C   C51       1.0  0.6935379804707863  0.9929269275375601  0.8569292552342349  1.0000
  C   C52       1.0  0.30646059148465804  0.007069306439454699  0.35693540234739635  1.0000
  C   C53       1.0  0.7709470850033855  0.12064196376643817  0.8451726790469537  1.0000
  C   C54       1.0  0.22904907542513803  0.8793561337584705  0.34517623367342765  1.0000
  C   C55       1.0  0.7067175904619276  0.20708799167856276  0.8129007302058542  1.0000
  C   C56       1.0  0.29327530701907273  0.792910030978966  0.3129023961238957  1.0000
  C   C57       1.0  0.5648665666482204  0.16598779845620024  0.7904819951539892  1.0000
  C   C58       1.0  0.43512809900506966  0.8340101628370389  0.29048284238189137  1.0000
  C   C59       1.0  0.4880200384251978  0.038060291362064895  0.7978529325132799  1.0000
  C   C60       1.0  0.5119753528584281  0.9619367430875128  0.29785848699729206  1.0000
  C   C61       1.0  0.551701103926078  0.9518276414119097  0.8313051847488782  1.0000
  C   C62       1.0  0.4482955853027022  0.0481694754716528  0.33130905679111333  1.0000
  Cl  Cl1       1.0  0.8573876260770916  0.5632210369936955  0.7477975057262044  1.0000
  Cl  Cl2       1.0  0.14260861994665663  0.4367768116051847  0.24779633091151254  1.0000
  Cl  Cl3       1.0  0.12578401527704122  0.9283543170696685  0.7224131094707432  1.0000
  Cl  Cl4       1.0  0.8742149634179698  0.07164629233913897  0.2224130774722468  1.0000
  O   O1        1.0  0.9602467370667115  0.7665306680651723  0.9720983982180658  1.0000
  O   O2        1.0  0.0397486235944555  0.23346775550888305  0.472096772702379  1.0000
  O   O3        1.0  0.12580752224879185  0.7837637175100128  0.08826785658526863  1.0000
  O   O4        1.0  0.8741912013193699  0.2162365498464638  0.5882662179303823  1.0000
