data_image0
_chemical_formula_structural       Al2H8C16S2NClO10
_chemical_formula_sum              "Al2 H8 C16 S2 N1 Cl1 O10"
_cell_length_a       6.716218218185605
_cell_length_b       11.125413326375755
_cell_length_c       12.83673635419063
_cell_angle_alpha    61.34811879158254
_cell_angle_beta     71.24901183933524
_cell_angle_gamma    72.83304703270936

_space_group_name_H-M_alt    "P 1"
_space_group_IT_number       1

loop_
  _space_group_symop_operation_xyz
  'x, y, z'

loop_
  _atom_site_type_symbol
  _atom_site_label
  _atom_site_symmetry_multiplicity
  _atom_site_fract_x
  _atom_site_fract_y
  _atom_site_fract_z
  _atom_site_occupancy
  Al  Al1       1.0  0.5022243497287846  0.5014520116161593  0.49719250932137266  1.0000
  Al  Al2       1.0  0.0046167053140849625  0.49772831779099375  0.5000551422983436  1.0000
  H   H1        1.0  0.22166019076853888  0.6764681962953388  0.4000737042940373  1.0000
  H   H2        1.0  0.7663461640538  0.32752566292361235  0.6117074927235395  1.0000
  H   H3        1.0  0.17050142473458152  0.14462399861635328  0.437057264578165  1.0000
  H   H4        1.0  0.7078011627655912  0.08010446087241249  0.5820194548482862  1.0000
  H   H5        1.0  0.303206290978295  0.91288466522294  0.4299586097888195  1.0000
  H   H6        1.0  0.63159905207209  0.4800970452828395  0.17614353145449263  1.0000
  H   H7        1.0  0.5156329076672821  0.5443000790624523  0.8492024159308615  1.0000
  H   H8        1.0  0.4941188321715443  0.5046704505957819  0.737892999668013  1.0000
  C   C1        1.0  0.8629311972197442  0.5386477359962568  0.2895240381286542  1.0000
  C   C2        1.0  0.6466882220472384  0.7310580580968133  0.4901561331733931  1.0000
  C   C3        1.0  0.14540374627092942  0.4567633297014451  0.7105774551357343  1.0000
  C   C4        1.0  0.3623073850175231  0.26672815054320864  0.5103502804400719  1.0000
  C   C5        1.0  0.5783682469471927  0.8660814078725707  0.5009276440226459  1.0000
  C   C6        1.0  0.43332918844041063  0.12723921946307115  0.5082927407661586  1.0000
  C   C7        1.0  0.6896940878924267  0.9132229743153318  0.546922170290202  1.0000
  C   C8        1.0  0.316544935783604  0.07980038292883047  0.4667472133568041  1.0000
  C   C9        1.0  0.6191057328610228  0.04379129056487591  0.54811599113102  1.0000
  C   C10       1.0  0.3908359021750771  0.9514616862127596  0.46251139338846775  1.0000
  C   C11       1.0  0.22326629921652605  0.5035843575533789  0.8670144937172353  1.0000
  C   C12       1.0  0.7951325464596408  0.4947994896944293  0.12900559594580593  1.0000
  C   C13       1.0  0.08968700721740674  0.46805245881976976  0.8242715227433239  1.0000
  C   C14       1.0  0.925024056519206  0.526740837333662  0.17362956554539014  1.0000
  C   C15       1.0  0.9038010103906089  0.4844818818339931  0.018922730361303895  1.0000
  C   C16       1.0  0.11317259691583112  0.5113618971782329  0.9797932970879017  1.0000
  S   S1        1.0  0.8389240940336223  0.4441115830791063  0.9213604418639323  1.0000
  S   S2        1.0  0.1792648779235224  0.5449312497706982  0.08151024400185496  1.0000
  N   N1        1.0  0.42177513572559633  0.5324827914808166  0.8078093057486413  1.0000
  Cl  Cl1       1.0  0.9086351555608589  0.8133044242200569  0.6100672237414743  1.0000
  O   O1        1.0  0.6632160354685013  0.5486487858106911  0.3361978372808992  1.0000
  O   O2        1.0  0.8435869906276424  0.6781786074059892  0.48066645881147013  1.0000
  O   O3        1.0  0.0008400950099130189  0.4533730172754886  0.667050858733937  1.0000
  O   O4        1.0  0.5049576561247092  0.3224883068806648  0.508092547044761  1.0000
  O   O5        1.0  0.3455518718508018  0.45119149676668957  0.6592124024096935  1.0000
  O   O6        1.0  0.16540123858932532  0.31886656817744813  0.5139268606375538  1.0000
  O   O7        1.0  0.008996152201000017  0.5364754560416856  0.3341067377811342  1.0000
  O   O8        1.0  0.5010860683794149  0.679643536265594  0.4894405531547933  1.0000
  O   O9        1.0  0.2505318289277341  0.5758333098738149  0.4399474755434269  1.0000
  O   O10       1.0  0.7523921165451881  0.42599272380364533  0.5584438237492935  1.0000
