data_image0
_chemical_formula_structural       Cd2H24C28N20
_chemical_formula_sum              "Cd2 H24 C28 N20"
_cell_length_a       7.524288428622535
_cell_length_b       7.570857035807847
_cell_length_c       14.867219473220544
_cell_angle_alpha    89.99999715191964
_cell_angle_beta     90.00060213529298
_cell_angle_gamma    103.69096825172731

_space_group_name_H-M_alt    "P 1"
_space_group_IT_number       1

loop_
  _space_group_symop_operation_xyz
  'x, y, z'

loop_
  _atom_site_type_symbol
  _atom_site_label
  _atom_site_symmetry_multiplicity
  _atom_site_fract_x
  _atom_site_fract_y
  _atom_site_fract_z
  _atom_site_occupancy
  Cd  Cd1       1.0  0.9999937327281072  0.49999218113007515  0.4999973118885705  1.0000
  Cd  Cd2       1.0  0.5000007136448658  0.5000027948003448  0.9999979778348372  1.0000
  H   H1        1.0  0.993504605330905  0.8770297092682213  0.42220124821415067  1.0000
  H   H2        1.0  0.5064975135491993  0.12297130592811095  0.9222006751839372  1.0000
  H   H3        1.0  0.006508154937712597  0.12296666718806651  0.5778000530044662  1.0000
  H   H4        1.0  0.49349377354082685  0.8770357356308407  0.07779726287397887  1.0000
  H   H5        1.0  0.09711320188308284  0.4236616811355133  0.29525652922566076  1.0000
  H   H6        1.0  0.40289025604590734  0.5763391216808814  0.7952546595396084  1.0000
  H   H7        1.0  0.9028965000024555  0.5763387385433276  0.7047387183981896  1.0000
  H   H8        1.0  0.5971034646589501  0.423661157763398  0.20473857017984898  1.0000
  H   H9        1.0  0.09329583558809418  0.5687259429496265  0.14290926481714905  1.0000
  H   H10       1.0  0.4067059737332741  0.43127000471036336  0.642907424193865  1.0000
  H   H11       1.0  0.9067028174246091  0.4312784498583397  0.8570880006395853  1.0000
  H   H12       1.0  0.5932984835646096  0.568724942183465  0.3570878234163075  1.0000
  H   H13       1.0  0.030872118126907724  0.8760670674772512  0.1321532124115805  1.0000
  H   H14       1.0  0.46913407285805403  0.12393157761018607  0.6321530656977854  1.0000
  H   H15       1.0  0.9691262225985328  0.12393596590761999  0.8678474161480094  1.0000
  H   H16       1.0  0.5308746921060816  0.8760647637852514  0.3678468902688222  1.0000
  H   H17       1.0  0.9281033545866179  0.1225856197985848  0.3315802530113173  1.0000
  H   H18       1.0  0.5718991078904736  0.8774135833451665  0.8315840149610876  1.0000
  H   H19       1.0  0.0718988341086302  0.8774052371455028  0.6684271017661061  1.0000
  H   H20       1.0  0.42810518455912927  0.12259221565194169  0.16841863147633518  1.0000
  H   H21       1.0  0.9390249903796857  0.12059185815495968  0.2166885899631836  1.0000
  H   H22       1.0  0.5609772779289699  0.8794054054349584  0.7166909488464481  1.0000
  H   H23       1.0  0.06097170632509825  0.8794098041281158  0.7833180921786678  1.0000
  H   H24       1.0  0.4390234139908813  0.12059629188776458  0.2833090070986728  1.0000
  C   C1        1.0  0.3553150954217514  0.28321463564176247  0.4534017835507881  1.0000
  C   C2        1.0  0.14468678650592884  0.7167706730035802  0.9534039220530346  1.0000
  C   C3        1.0  0.6446859913547981  0.7167829950868594  0.5466042259820583  1.0000
  C   C4        1.0  0.8553095153719639  0.2832350558806595  0.046599396984007085  1.0000
  C   C5        1.0  0.6381630228165632  0.21731923574279216  0.4339463055505135  1.0000
  C   C6        1.0  0.8618468047060757  0.7826737663656118  0.9339495873111188  1.0000
  C   C7        1.0  0.36185192373113756  0.7826866567387185  0.5660556682943181  1.0000
  C   C8        1.0  0.1381441700817803  0.21733191576671365  0.0660503686082095  1.0000
  C   C9        1.0  0.010474043137101239  0.9058211286420954  0.2766415068918845  1.0000
  C   C10       1.0  0.4895221137174417  0.09417273249402307  0.776640124504652  1.0000
  C   C11       1.0  0.9895293948040588  0.0941751660173225  0.723361139543563  1.0000
  C   C12       1.0  0.5104756023515122  0.9058275820252392  0.22335983143264565  1.0000
  C   C13       1.0  0.015659619369735336  0.8137067919320271  0.3585418412397984  1.0000
  C   C14       1.0  0.48434155764672937  0.18629566767800299  0.8585404258180274  1.0000
  C   C15       1.0  0.9843504773650479  0.18628956115094303  0.6414587873510553  1.0000
  C   C16       1.0  0.5156497294507503  0.813711373882711  0.1414581848606247  1.0000
  C   C17       1.0  0.07160470334827804  0.5585873583380375  0.2874789442134257  1.0000
  C   C18       1.0  0.4283945869850569  0.4414133685682132  0.7874772175621911  1.0000
  C   C19       1.0  0.9284020226938022  0.4414116785391044  0.7125169760233445  1.0000
  C   C20       1.0  0.5716024218877749  0.5585896531096919  0.21251533954513485  1.0000
  C   C21       1.0  0.0692952999165115  0.6400402694398581  0.20358496994963093  1.0000
  C   C22       1.0  0.43070714652540687  0.35995870410894787  0.7035832605046294  1.0000
  C   C23       1.0  0.9307093872854751  0.35996146293842196  0.7964143133853127  1.0000
  C   C24       1.0  0.5692926083687339  0.640038914905645  0.29641198709303035  1.0000
  C   C25       1.0  0.03691610424304055  0.8127098682600432  0.19751716752283946  1.0000
  C   C26       1.0  0.46308847651662427  0.1872931634002839  0.6975163123652095  1.0000
  C   C27       1.0  0.9630832559061703  0.18729181737514722  0.8024821157980283  1.0000
  C   C28       1.0  0.5369122153734267  0.8127085339153766  0.3024809530969961  1.0000
  N   N1        1.0  0.24613524543654816  0.3647991302482864  0.473387744974687  1.0000
  N   N2        1.0  0.25386778640342555  0.6351835762040138  0.973391810556194  1.0000
  N   N3        1.0  0.7538425765751029  0.6351955829248154  0.5266054847029409  1.0000
  N   N4        1.0  0.7461322808375925  0.36481540224779957  0.0266054549044412  1.0000
  N   N5        1.0  0.46202825702756195  0.1810708902846727  0.42856622078531353  1.0000
  N   N6        1.0  0.03797299220447304  0.8189197139459309  0.9285671166014067  1.0000
  N   N7        1.0  0.5379851280912645  0.8189282050831538  0.571453241194554  1.0000
  N   N8        1.0  0.9620188371737795  0.181095472543511  0.0714402381479005  1.0000
  N   N9        1.0  0.043019363138696955  0.6455516281839094  0.36303771562483417  1.0000
  N   N10       1.0  0.45698488932286807  0.35445223784282837  0.8630354727254995  1.0000
  N   N11       1.0  0.9569890894860222  0.35444335377606967  0.636960895099534  1.0000
  N   N12       1.0  0.5430097683853531  0.6455521199042875  0.13696044747921826  1.0000
  N   N13       1.0  0.7985076371450717  0.23292398003706438  0.43363732311100717  1.0000
  N   N14       1.0  0.7014948175778455  0.7670716691918145  0.9336384134189329  1.0000
  N   N15       1.0  0.2014967552161977  0.767053329297319  0.5663572518787987  1.0000
  N   N16       1.0  0.2984990505585472  0.2329408217770634  0.06635817940418319  1.0000
  N   N17       1.0  0.9846998090667609  0.07945089834826997  0.2756795676766615  1.0000
  N   N18       1.0  0.5153060348701927  0.9205507650800725  0.7756803374902359  1.0000
  N   N19       1.0  0.015301277702341935  0.9205467323785967  0.7243257692354561  1.0000
  N   N20       1.0  0.48469293051918066  0.07945498717218412  0.22432163631238206  1.0000
