data_image0
_chemical_formula_structural       CoH30C28N4O12
_chemical_formula_sum              "Co1 H30 C28 N4 O12"
_cell_length_a       7.078829536049617
_cell_length_b       9.234261405889521
_cell_length_c       11.528380631847611
_cell_angle_alpha    87.65893633262856
_cell_angle_beta     89.24050250245995
_cell_angle_gamma    66.19982755364767

_space_group_name_H-M_alt    "P 1"
_space_group_IT_number       1

loop_
  _space_group_symop_operation_xyz
  'x, y, z'

loop_
  _atom_site_type_symbol
  _atom_site_label
  _atom_site_symmetry_multiplicity
  _atom_site_fract_x
  _atom_site_fract_y
  _atom_site_fract_z
  _atom_site_occupancy
  Co  Co1       1.0  0.9999983365535741  0.5000012042934543  3.045368969981014e-07  1.0000
  H   H1        1.0  0.5717580391236227  0.4323635333356108  0.7172592776346178  1.0000
  H   H2        1.0  0.4282457459432151  0.5676260670521104  0.28274669732783764  1.0000
  H   H3        1.0  0.39058029191289717  0.39028392616282304  0.03620837114706182  1.0000
  H   H4        1.0  0.6094157251734058  0.6097151636787362  0.963788684588792  1.0000
  H   H5        1.0  0.26939626169718867  0.5564627595316908  0.0831774154069507  1.0000
  H   H6        1.0  0.7306010748615034  0.44353399430458756  0.9168249182454176  1.0000
  H   H7        1.0  0.31982547182402493  0.08442944020301012  0.7407731454340692  1.0000
  H   H8        1.0  0.6801760898339633  0.915573050093066  0.25922798748949566  1.0000
  H   H9        1.0  0.6507454328612281  0.5226624949634271  0.5570083488167158  1.0000
  H   H10       1.0  0.349256558504571  0.4773306465791264  0.4429957771511326  1.0000
  H   H11       1.0  0.12838353204440264  0.9986627432367428  0.23845913872793295  1.0000
  H   H12       1.0  0.8716055228605982  0.0013388408079677996  0.7615353529697444  1.0000
  H   H13       1.0  0.9853542824138799  0.2927952495328938  0.19577173649695823  1.0000
  H   H14       1.0  0.014633975173197278  0.7072051967719232  0.8042245556585216  1.0000
  H   H15       1.0  0.228460252106231  0.23084085523376532  0.8652600468447246  1.0000
  H   H16       1.0  0.7715421068696813  0.7691627728022113  0.1347392856210377  1.0000
  H   H17       1.0  0.3068697903720548  0.8156242463084666  0.07928273182121613  1.0000
  H   H18       1.0  0.6931224222272122  0.18437960418010846  0.9207124648214062  1.0000
  H   H19       1.0  0.5375555525871786  0.755463421752957  0.6779256519568335  1.0000
  H   H20       1.0  0.4624466688070042  0.244537900540486  0.3220781199249885  1.0000
  H   H21       1.0  0.5042945996264476  0.930904781037093  0.594315388631813  1.0000
  H   H22       1.0  0.4957155983519216  0.06909750645571931  0.4056873079343859  1.0000
  H   H23       1.0  0.18007101653930135  0.7921554331660445  0.6361785364408875  1.0000
  H   H24       1.0  0.8199308732843066  0.20785167922851142  0.3638154513305949  1.0000
  H   H25       1.0  0.322197704188902  0.7784813505961807  0.5079997385619777  1.0000
  H   H26       1.0  0.6778154924772721  0.2215231715002802  0.4919984619090272  1.0000
  H   H27       1.0  0.017396610027340397  0.09305899575988262  0.6038546741135136  1.0000
  H   H28       1.0  0.9826160644843756  0.9069490000817526  0.3961364479831673  1.0000
  H   H29       1.0  0.15827696230123678  0.07229011937963041  0.4741272793827349  1.0000
  H   H30       1.0  0.8417440920013916  0.9277094876011562  0.5258648936025807  1.0000
  C   C1        1.0  0.8049452722783742  0.511028833796388  0.5323089531528709  1.0000
  C   C2        1.0  0.19505766246838627  0.4889596182380346  0.46769708858735015  1.0000
  C   C3        1.0  0.9628035543977517  0.46049784939610555  0.615136398865566  1.0000
  C   C4        1.0  0.037198436968047595  0.5394952921464552  0.3848677271022821  1.0000
  C   C5        1.0  0.15998090508604418  0.4483830301423097  0.5814755354377327  1.0000
  C   C6        1.0  0.8400202624607617  0.5516089683536477  0.41852952414789263  1.0000
  C   C7        1.0  0.34273961281568444  0.3825601423055005  0.6615036117046885  1.0000
  C   C8        1.0  0.6572627681991958  0.6174294989583728  0.3385032584373633  1.0000
  C   C9        1.0  0.9219667188586554  0.4362549142774484  0.741424864120937  1.0000
  C   C10       1.0  0.07803353180825914  0.5637417790333431  0.2585791465323481  1.0000
  C   C11       1.0  0.149546120500915  0.0454515093670125  0.15339583391826753  1.0000
  C   C12       1.0  0.8504482489473943  0.9545452943813474  0.8466030890531472  1.0000
  C   C13       1.0  0.0724226949787905  0.20834724033660726  0.1316308488926268  1.0000
  C   C14       1.0  0.9275656951136709  0.7916532325017303  0.8683697774629737  1.0000
  C   C15       1.0  0.20390396440687647  0.1729836995503931  0.9444484904806387  1.0000
  C   C16       1.0  0.7960941559120799  0.8270200458073164  0.05555266068387249  1.0000
  C   C17       1.0  0.2735744171232781  0.008671858869405498  0.9575294516003581  1.0000
  C   C18       1.0  0.7264236236924404  0.991331870568203  0.04246909904408369  1.0000
  C   C19       1.0  0.24989137833535585  0.943547022592135  0.06556267934599452  1.0000
  C   C20       1.0  0.7501020477319855  0.05645447066435591  0.9344343278530475  1.0000
  C   C21       1.0  0.36422781476690586  0.8999051118011323  0.8593463279087533  1.0000
  C   C22       1.0  0.635770146545589  0.10009860171636831  0.1406496222156193  1.0000
  C   C23       1.0  0.42457975218601257  0.872925032808226  0.6492277888005162  1.0000
  C   C24       1.0  0.5754245910748209  0.12707737042885733  0.3507706869238376  1.0000
  C   C25       1.0  0.25098099940324664  0.8560357386892363  0.5805498679612527  1.0000
  C   C26       1.0  0.7490235079404  0.14396897559707614  0.4194450351870601  1.0000
  C   C27       1.0  0.085952296435714  0.0117837099856715  0.5326754893456497  1.0000
  C   C28       1.0  0.914060134489965  0.9882219588866192  0.4673166048069959  1.0000
  N   N1        1.0  0.35133930233142485  0.9664289505661261  0.7519127811294911  1.0000
  N   N2        1.0  0.6486599254512981  0.03357241633268871  0.248086713231352  1.0000
  N   N3        1.0  0.10276747581654891  0.27225785700159827  0.02879443726389751  1.0000
  N   N4        1.0  0.8972238018830648  0.7277425500045426  0.9712069992525869  1.0000
  O   O1        1.0  0.7816301123940759  0.38814370901899764  0.7725928606989215  1.0000
  O   O2        1.0  0.2183698546280723  0.6118565057972845  0.22741187314025527  1.0000
  O   O3        1.0  0.034927198065666715  0.46822133600760196  0.811056469945342  1.0000
  O   O4        1.0  0.9650658332762558  0.5317813783185484  0.1889465666956767  1.0000
  O   O5        1.0  0.4124075064380149  0.24452138347466965  0.7014002272071808  1.0000
  O   O6        1.0  0.5875877612561807  0.7554743000313735  0.29860913628270686  1.0000
  O   O7        1.0  0.430637795291112  0.4826600768378028  0.6744706426776048  1.0000
  O   O8        1.0  0.569364802808728  0.5173318860887123  0.3255343885684567  1.0000
  O   O9        1.0  0.43778647237370183  0.7530138785682609  0.877469190353878  1.0000
  O   O10       1.0  0.5622115154398698  0.24698984025593526  0.12252762661051263  1.0000
  O   O11       1.0  0.28208440237303023  0.49574032962463116  0.011494627282658598  1.0000
  O   O12       1.0  0.717911463573884  0.5042623082559246  0.9885074858392005  1.0000
