data_image0
_chemical_formula_structural       Zn4H32C24N16Cl4O4
_chemical_formula_sum              "Zn4 H32 C24 N16 Cl4 O4"
_cell_length_a       8.619465578063368
_cell_length_b       8.71454984603504
_cell_length_c       13.158170844446024
_cell_angle_alpha    91.2363693189043
_cell_angle_beta     89.99994381162729
_cell_angle_gamma    89.99955825565924

_space_group_name_H-M_alt    "P 1"
_space_group_IT_number       1

loop_
  _space_group_symop_operation_xyz
  'x, y, z'

loop_
  _atom_site_type_symbol
  _atom_site_label
  _atom_site_symmetry_multiplicity
  _atom_site_fract_x
  _atom_site_fract_y
  _atom_site_fract_z
  _atom_site_occupancy
  Zn  Zn1       1.0  0.3466333099443588  0.7098434478861577  0.29237609587975305  1.0000
  Zn  Zn2       1.0  0.8466358724066795  0.2901546274866149  0.2076243350368969  1.0000
  Zn  Zn3       1.0  0.6533659773698589  0.29015572480648194  0.7076237257069027  1.0000
  Zn  Zn4       1.0  0.1533645750768287  0.7098433974293599  0.7923754690895637  1.0000
  H   H1        1.0  0.722588091436478  0.312365309567511  0.9589267695682298  1.0000
  H   H2        1.0  0.2225849188741407  0.6876309946959936  0.5410730981038585  1.0000
  H   H3        1.0  0.2774135162072042  0.6876338631163962  0.04107305201755201  1.0000
  H   H4        1.0  0.7774132082804571  0.31236703182617725  0.4589259460629906  1.0000
  H   H5        1.0  0.6431405885436803  0.862483246060428  0.3712284053047484  1.0000
  H   H6        1.0  0.1431404843723243  0.1375129187107476  0.12877136662596203  1.0000
  H   H7        1.0  0.3568586987796536  0.13751363108760017  0.6287713813623982  1.0000
  H   H8        1.0  0.8568611232713579  0.8624862539731667  0.8712284549598197  1.0000
  H   H9        1.0  0.9004616657099548  0.8228789685870981  0.5560074376310453  1.0000
  H   H10       1.0  0.40046425898632526  0.17712288713774882  0.943990880830306  1.0000
  H   H11       1.0  0.09953646143095801  0.1771225012519864  0.4439916589150742  1.0000
  H   H12       1.0  0.599536188497744  0.8228751393756968  0.05600816333567592  1.0000
  H   H13       1.0  0.7951006121033473  0.9911955114393577  0.5913642633681918  1.0000
  H   H14       1.0  0.295104591741655  0.0088048414870272  0.9086340995735754  1.0000
  H   H15       1.0  0.20490099552609561  0.0088071029639991  0.4086363705573533  1.0000
  H   H16       1.0  0.7048958557372984  0.9911943312012497  0.09136572201264673  1.0000
  H   H17       1.0  0.8365291923307154  0.9508995250622119  0.45962501759967733  1.0000
  H   H18       1.0  0.3365334008227663  0.049099775698948585  0.0403746784301262  1.0000
  H   H19       1.0  0.1634700949743788  0.04910194317504589  0.5403748389064945  1.0000
  H   H20       1.0  0.6634682068203616  0.950899395387488  0.9596259031161483  1.0000
  H   H21       1.0  0.5138239395443378  0.8216380959884546  0.6517543683963539  1.0000
  H   H22       1.0  0.0138289858323333  0.1783643701041484  0.8482457264370427  1.0000
  H   H23       1.0  0.48617302742616897  0.1783645184323603  0.3482462655309392  1.0000
  H   H24       1.0  0.9861737819618456  0.8216382442948388  0.15175490748806206  1.0000
  H   H25       1.0  0.69242356518334  0.7215038556158859  0.6664301585526575  1.0000
  H   H26       1.0  0.1924290000294988  0.2784972650691202  0.8335705616477895  1.0000
  H   H27       1.0  0.3075734017871596  0.27849875880492914  0.3335704753746356  1.0000
  H   H28       1.0  0.8075726075999442  0.7215053493342296  0.16643007227774836  1.0000
  H   H29       1.0  0.5387717370448257  0.6371819171957683  0.5921091756287782  1.0000
  H   H30       1.0  0.038774072770543504  0.36282036119630595  0.9078909004048941  1.0000
  H   H31       1.0  0.461226390090971  0.36282069881815454  0.4078906983375888  1.0000
  H   H32       1.0  0.9612298551969333  0.6371799560562365  0.09211045856074661  1.0000
  C   C1        1.0  0.4711835727001771  0.550169851135152  0.09756685350567554  1.0000
  C   C2        1.0  0.9711822596101811  0.4498307320329147  0.40243277596972155  1.0000
  C   C3        1.0  0.5288203552638606  0.44983161708464076  0.9024330029987553  1.0000
  C   C4        1.0  0.0288158675444166  0.550167294489256  0.5975662681971273  1.0000
  C   C5        1.0  0.5946673007073144  0.4448855961154975  0.07456711247932192  1.0000
  C   C6        1.0  0.0946634459310758  0.5551143783039977  0.425431988401222  1.0000
  C   C7        1.0  0.40533662725672315  0.5551158721042954  0.925432744025102  1.0000
  C   C8        1.0  0.905334681223522  0.4448836482181732  0.5745670557656339  1.0000
  C   C9        1.0  0.6280459405921378  0.3915604635296219  0.9761299455437328  1.0000
  C   C10       1.0  0.12804342115249773  0.6084411447665445  0.5238693032539389  1.0000
  C   C11       1.0  0.37195682720315665  0.6084421540643136  0.023869168460400707  1.0000
  C   C12       1.0  0.871953545833364  0.39155803112977594  0.4761289984126195  1.0000
  C   C13       1.0  0.5866836691910181  0.8057029173805077  0.43546042572930344  1.0000
  C   C14       1.0  0.08668321069400521  0.19429596612892652  0.06454018362766331  1.0000
  C   C15       1.0  0.4133156181226312  0.19429625371466128  0.5645401558178451  1.0000
  C   C16       1.0  0.9133183969496842  0.8057032065549877  0.9354596379581184  1.0000
  C   C17       1.0  0.8072316977360642  0.9004477811020736  0.5327516428162653  1.0000
  C   C18       1.0  0.30723371088227946  0.09955362673055389  0.9672474884044536  1.0000
  C   C19       1.0  0.1927675895695913  0.09955368873265512  0.46724745372942084  1.0000
  C   C20       1.0  0.6927678967608485  0.9004455443558826  0.03275309314182102  1.0000
  C   C21       1.0  0.5974860729754781  0.7444841203680568  0.6136431451355976  1.0000
  C   C22       1.0  0.09748929101416338  0.2555165652785334  0.8863583891116351  1.0000
  C   C23       1.0  0.402512054164319  0.2555173462760862  0.38635747133150034  1.0000
  C   C24       1.0  0.9025134767851315  0.7444849029456222  0.11364146739322933  1.0000
  N   N1        1.0  0.4779807952608266  0.576821320556526  0.2010687663467436  1.0000
  N   N2        1.0  0.9779810075822867  0.423179213060024  0.2989300980451831  1.0000
  N   N3        1.0  0.5220208123782939  0.42317899989969027  0.7989310726987997  1.0000
  N   N4        1.0  0.022018279737047  0.5768188134577842  0.7010689461212324  1.0000
  N   N5        1.0  0.6646368842647733  0.415468419378918  0.16616743760872055  1.0000
  N   N6        1.0  0.1646340929061836  0.5845298792058247  0.333832353042837  1.0000
  N   N7        1.0  0.33536472338291656  0.5845296039352162  0.8338331264777994  1.0000
  N   N8        1.0  0.8353640342529758  0.4154669995440372  0.6661666736642573  1.0000
  N   N9        1.0  0.5935323357276303  0.4956346214432444  0.23957029297190507  1.0000
  N   N10       1.0  0.0935314490266776  0.5043630643626358  0.26042953380380146  1.0000
  N   N11       1.0  0.4064692719206136  0.5043634034683606  0.7604295111541219  1.0000
  N   N12       1.0  0.9064689984613921  0.49563381278102975  0.7395702528629047  1.0000
  N   N13       1.0  0.6617357820159881  0.815489252944765  0.5231838373013318  1.0000
  N   N14       1.0  0.1617382678787891  0.18451209705305158  0.9768176659871344  1.0000
  N   N15       1.0  0.3382623451146927  0.18451450924398927  0.47681681408527526  1.0000
  N   N16       1.0  0.8382621795956028  0.8154882234075275  0.023182173058842202  1.0000
  Cl  Cl1       1.0  0.2993673730524621  0.9319618555291527  0.2192206780669537  1.0000
  Cl  Cl2       1.0  0.7993669460179545  0.06803542931557868  0.2807790110503491  1.0000
  Cl  Cl3       1.0  0.7006307540845427  0.068039603127616  0.7807837382025796  1.0000
  Cl  Cl4       1.0  0.20063350146499911  0.931962594002918  0.7192215530366042  1.0000
  O   O1        1.0  0.4572954169310535  0.7368564391647822  0.4257425173033411  1.0000
  O   O2        1.0  0.9573007122722075  0.26314539624716826  0.074257140095483  1.0000
  O   O3        1.0  0.5427038703871645  0.2631415841580775  0.5742580467840528  1.0000
  O   O4        1.0  0.0426997352118619  0.7368526302662702  0.925741904070492  1.0000
