data_image0
_chemical_formula_structural       Zn4H56C32N8O24
_chemical_formula_sum              "Zn4 H56 C32 N8 O24"
_cell_length_a       7.826376568
_cell_length_b       9.840187396
_cell_length_c       15.421
_cell_angle_alpha    90.0
_cell_angle_beta     90.0
_cell_angle_gamma    90.0

_space_group_name_H-M_alt    "P 1"
_space_group_IT_number       1

loop_
  _space_group_symop_operation_xyz
  'x, y, z'

loop_
  _atom_site_type_symbol
  _atom_site_label
  _atom_site_symmetry_multiplicity
  _atom_site_fract_x
  _atom_site_fract_y
  _atom_site_fract_z
  _atom_site_occupancy
  Zn  Zn1       1.0  0.15873501475504526  0.749999944411627  0.0  1.0000
  Zn  Zn2       1.0  0.3412652045035073  0.24999930397667214  0.4999999999999999  1.0000
  Zn  Zn3       1.0  0.8412654237620598  0.25000032021748103  0.9999993515336241  1.0000
  Zn  Zn4       1.0  0.6587352340135979  0.749999944411627  0.5000006484663757  1.0000
  H   H1        1.0  0.472212136470766  0.8746063112068825  0.9298067570196478  1.0000
  H   H2        1.0  0.027788082787786494  0.1253939534222255  0.4298067570196479  1.0000
  H   H3        1.0  0.4722108587402686  0.6253935776163786  0.070193242980352  1.0000
  H   H4        1.0  0.027788082787786494  0.37460567077192053  0.570193242980352  1.0000
  H   H5        1.0  0.5277883020463392  0.1253929371814166  0.070193242980352  1.0000
  H   H6        1.0  0.9722123557293185  0.8746063112068825  0.570193242980352  1.0000
  H   H7        1.0  0.5277883020463392  0.37460668701272953  0.9298061085532721  1.0000
  H   H8        1.0  0.9722123557293185  0.6253945938571875  0.4298067570196479  1.0000
  H   H9        1.0  0.7032603085448699  0.5683123476157803  0.8175935412748812  1.0000
  H   H10       1.0  0.7967403492307878  0.4316879170133205  0.3175935412748885  1.0000
  H   H11       1.0  0.7032590308143722  0.9316875412074738  0.1824071071914943  1.0000
  H   H12       1.0  0.7967416269612853  0.06831272342163433  0.6824071071914943  1.0000
  H   H13       1.0  0.29674140770273266  0.4316879170133205  0.18240645872511854  1.0000
  H   H14       1.0  0.2032588115558198  0.5683123476157803  0.6824071071914943  1.0000
  H   H15       1.0  0.2967401299722354  0.0683117071808255  0.8175935412748812  1.0000
  H   H16       1.0  0.2032588115558198  0.9316885574482825  0.3175935412748885  1.0000
  H   H17       1.0  0.6455464998525002  0.659811621335507  0.7207347124051608  1.0000
  H   H18       1.0  0.8544541579231648  0.3401896595344098  0.2207340639387851  1.0000
  H   H19       1.0  0.6455452221220026  0.840189283728556  0.2792652875948392  1.0000
  H   H20       1.0  0.8544554356536551  0.1598109809005521  0.7792652875948389  1.0000
  H   H21       1.0  0.3544552163951025  0.3401896595344098  0.2792652875948392  1.0000
  H   H22       1.0  0.14554628059394756  0.659811621335507  0.7792652875948389  1.0000
  H   H23       1.0  0.354453938664605  0.1598109809005521  0.7207340639387851  1.0000
  H   H24       1.0  0.14554628059394756  0.840189283728556  0.2207347124051608  1.0000
  H   H25       1.0  0.4835647719117019  0.5835894956974458  0.7862071201608174  1.0000
  H   H26       1.0  0.0164354473468507  0.4164107689316623  0.2862077686272002  1.0000
  H   H27       1.0  0.4835647719117019  0.9164114093666174  0.21379287983918258  1.0000
  H   H28       1.0  0.0164367250773481  0.08358885526249081  0.7137922313727998  1.0000
  H   H29       1.0  0.5164356666054031  0.4164107689316623  0.21379223137279973  1.0000
  H   H30       1.0  0.9835649911702544  0.5835894956974458  0.7137928798391824  1.0000
  H   H31       1.0  0.5164356666054031  0.08358885526249081  0.7862077686271931  1.0000
  H   H32       1.0  0.9835649911702544  0.9164103931258084  0.2862077686272002  1.0000
  H   H33       1.0  0.7008888407476375  0.9496028504292938  0.8666221386421142  1.0000
  H   H34       1.0  0.7991092615670323  0.0503974141998142  0.36662213864211407  1.0000
  H   H35       1.0  0.7008888407476375  0.5503970383939603  0.1333772128915101  1.0000
  H   H36       1.0  0.7991105392975226  0.44960220999433187  0.6333772128915099  1.0000
  H   H37       1.0  0.2991115977694675  0.0503974141998142  0.1333772128915101  1.0000
  H   H38       1.0  0.20088989921958234  0.9496028504292938  0.6333772128915099  1.0000
  H   H39       1.0  0.2991103200389702  0.44960220999433187  0.8666221386421142  1.0000
  H   H40       1.0  0.20088989921958234  0.5503980546347691  0.3666227871084898  1.0000
  H   H41       1.0  0.7249485059533638  0.8941059398499291  0.7567200570650385  1.0000
  H   H42       1.0  0.7750508740918036  0.10589432477917882  0.2567207055314213  1.0000
  H   H43       1.0  0.7249472282228664  0.605892932732516  0.24327929446857868  1.0000
  H   H44       1.0  0.7750508740918036  0.39410631565578313  0.7432792944685787  1.0000
  H   H45       1.0  0.2750519325637413  0.1058922922975611  0.24327929446857868  1.0000
  H   H46       1.0  0.22494956442530165  0.894106956090738  0.7432792944685787  1.0000
  H   H47       1.0  0.275050654833251  0.394107331896592  0.7567207055314211  1.0000
  H   H48       1.0  0.22494956442530165  0.6058939489733249  0.2567207055314213  1.0000
  H   H49       1.0  0.8503347548098714  0.8174813828515042  0.8408644056805625  1.0000
  H   H50       1.0  0.6496646252352958  0.1825188817776038  0.34086440568056275  1.0000
  H   H51       1.0  0.8503347548098714  0.6825185059717569  0.1591355943194372  1.0000
  H   H52       1.0  0.6496646252352958  0.3174817586573511  0.6591349458530542  1.0000
  H   H53       1.0  0.1496644059767434  0.1825178655367949  0.1591355943194372  1.0000
  H   H54       1.0  0.3503358132818093  0.8174813828515042  0.6591349458530542  1.0000
  H   H55       1.0  0.1496644059767434  0.3174817586573511  0.8408650541469456  1.0000
  H   H56       1.0  0.3503358132818093  0.682519522212566  0.3408650541469456  1.0000
  C   C1        1.0  0.9506813191716075  0.5206780921756362  0.9579891057648666  1.0000
  C   C2        1.0  0.54931933860405  0.47932013997185413  0.457990402697618  1.0000
  C   C3        1.0  0.9506800414411101  0.979321796647625  0.0420108942351334  1.0000
  C   C4        1.0  0.54931933860405  0.0206805004631008  0.5420108942351332  1.0000
  C   C5        1.0  0.049317841615000184  0.47932013997185413  0.042010245768757684  1.0000
  C   C6        1.0  0.4506798221825575  0.5206780921756362  0.5420108942351332  1.0000
  C   C7        1.0  0.049317841615000184  0.0206794842222919  0.9579897542312422  1.0000
  C   C8        1.0  0.4506798221825575  0.9793207804068161  0.457990402697618  1.0000
  C   C9        1.0  0.4699313875386223  0.7760573749951405  0.8959295765514526  1.0000
  C   C10       1.0  0.03006755398943989  0.2239418733931586  0.3959295765514526  1.0000
  C   C11       1.0  0.4699313875386223  0.7239425138281208  0.1040704234485474  1.0000
  C   C12       1.0  0.030068831719930193  0.2760567345601785  0.6040704234485472  1.0000
  C   C13       1.0  0.5300677732479926  0.2239418733931586  0.10406977498216458  1.0000
  C   C14       1.0  0.9699316067971748  0.7760573749951405  0.6040704234485472  1.0000
  C   C15       1.0  0.5300677732479926  0.2760577508009874  0.8959295765514526  1.0000
  C   C16       1.0  0.9699328845276722  0.7239425138281208  0.3959295765514526  1.0000
  C   C17       1.0  0.6074445765155543  0.6349188027191133  0.7873075676026176  1.0000
  C   C18       1.0  0.8925560812601032  0.36508146190999474  0.2873082160689933  1.0000
  C   C19       1.0  0.6074445765155543  0.865081086104148  0.21269178393100666  1.0000
  C   C20       1.0  0.8925560812601032  0.1349191785249602  0.7126917839310067  1.0000
  C   C21       1.0  0.3925558620015507  0.36508146190999474  0.21269178393100666  1.0000
  C   C22       1.0  0.1074443572570019  0.6349188027191133  0.7126924323973822  1.0000
  C   C23       1.0  0.3925558620015507  0.1349181622841513  0.7873082160689931  1.0000
  C   C24       1.0  0.1074443572570019  0.8650821023449566  0.2873082160689933  1.0000
  C   C25       1.0  0.7253778233994124  0.861523227031846  0.8248433953699532  1.0000
  C   C26       1.0  0.774621556645755  0.138478053838071  0.3248440438363288  1.0000
  C   C27       1.0  0.725376545668915  0.6384766617914082  0.1751559561636711  1.0000
  C   C28       1.0  0.7746228343762454  0.3615225865968839  0.6751559561636709  1.0000
  C   C29       1.0  0.27462389284819  0.1384770375972622  0.1751559561636711  1.0000
  C   C30       1.0  0.22537760414085983  0.8615222107910371  0.6751559561636709  1.0000
  C   C31       1.0  0.2746226151176927  0.3615225865968839  0.8248440438363289  1.0000
  C   C32       1.0  0.22537760414085983  0.6384776780322171  0.3248440438363288  1.0000
  N   N1        1.0  0.5927851745556365  0.7597141903048339  0.8374028921600427  1.0000
  N   N2        1.0  0.9072142054895309  0.240286074324267  0.3374028921600426  1.0000
  N   N3        1.0  0.5927851745556365  0.7402856985184202  0.16259710783995726  1.0000
  N   N4        1.0  0.9072142054895309  0.2597145661106879  0.6625971078399571  1.0000
  N   N5        1.0  0.4072152639614756  0.24028505808345813  0.16259710783995726  1.0000
  N   N6        1.0  0.09278623302757437  0.7597141903048339  0.6625971078399571  1.0000
  N   N7        1.0  0.4072139862309783  0.2597145661106879  0.8374028921600427  1.0000
  N   N8        1.0  0.09278623302757437  0.7402856985184202  0.3374028921600426  1.0000
  O   O1        1.0  0.8504369732494081  0.432892162371985  0.9257486544322686  1.0000
  O   O2        1.0  0.6495675177177345  0.5671070860163141  0.4257518967641545  1.0000
  O   O3        1.0  0.850435695518911  0.06710847806296981  0.07425069710135547  1.0000
  O   O4        1.0  0.6495662399872371  0.9328917865661382  0.5742500486349795  1.0000
  O   O5        1.0  0.14956346526769684  0.5671081022571229  0.0742500486349797  1.0000
  O   O6        1.0  0.3504329207993705  0.43289317861279397  0.5742500486349795  1.0000
  O   O7        1.0  0.1495647429981943  0.9328917865661382  0.9257499513650203  1.0000
  O   O8        1.0  0.3504329207993705  0.0671064455813521  0.42575124829777866  1.0000
  O   O9        1.0  0.9778688686271264  0.6383526804127158  0.9277601971337788  1.0000
  O   O10       1.0  0.5221292336875436  0.3616496166980099  0.42776019713377866  1.0000
  O   O11       1.0  0.977867590896629  0.8616482246513542  0.0722398028662212  1.0000
  O   O12       1.0  0.5221317891485311  0.1383520399777538  0.5722391543998455  1.0000
  O   O13       1.0  0.022129014428991  0.3616496166980099  0.0722398028662212  1.0000
  O   O14       1.0  0.47786737163807647  0.6383526804127158  0.5722404513325967  1.0000
  O   O15       1.0  0.022129014428991  0.138351023736945  0.9277601971337788  1.0000
  O   O16       1.0  0.4778699270990642  0.8616472084105455  0.4277608456001545  1.0000
  O   O17       1.0  0.3570132328444869  0.6879249070756188  0.9125445820634182  1.0000
  O   O18       1.0  0.1429869864140656  0.3120733250718644  0.4125439335970426  1.0000
  O   O19       1.0  0.3570132328444869  0.8120749817476351  0.0874554179365816  1.0000
  O   O20       1.0  0.1429869864140656  0.18792528288147284  0.5874560664029571  1.0000
  O   O21       1.0  0.642987205672618  0.3120743413126732  0.0874554179365816  1.0000
  O   O22       1.0  0.8570134521030395  0.6879259233164279  0.5874560664029571  1.0000
  O   O23       1.0  0.642987205672618  0.1879262991222816  0.9125439335970427  1.0000
  O   O24       1.0  0.8570134521030395  0.8120749817476351  0.4125439335970426  1.0000
