data_image0
_chemical_formula_structural       Zn8H24C116O26F48
_chemical_formula_sum              "Zn8 H24 C116 O26 F48"
_cell_length_a       21.622174565014284
_cell_length_b       21.622228355014514
_cell_length_c       34.51706632900036
_cell_angle_alpha    89.99998336847486
_cell_angle_beta     89.99999989446641
_cell_angle_gamma    90.00013170857876

_space_group_name_H-M_alt    "P 1"
_space_group_IT_number       1

loop_
  _space_group_symop_operation_xyz
  'x, y, z'

loop_
  _atom_site_type_symbol
  _atom_site_label
  _atom_site_symmetry_multiplicity
  _atom_site_fract_x
  _atom_site_fract_y
  _atom_site_fract_z
  _atom_site_occupancy
  Zn  Zn1       1.0  0.5522485106578756  0.5511519610145541  0.0335702973719663  1.0000
  Zn  Zn2       1.0  0.44775070072224565  0.551150703015722  0.9664282553777565  1.0000
  Zn  Zn3       1.0  0.44774965298582  0.44884508677438356  0.03356972773678989  1.0000
  Zn  Zn4       1.0  0.5522497857152117  0.4488449939759959  0.9664268159108785  1.0000
  Zn  Zn5       1.0  0.4488471385615895  0.4477488949989095  0.466430094865153  1.0000
  Zn  Zn6       1.0  0.44884448410994077  0.5522487472566412  0.5335736824770905  1.0000
  Zn  Zn7       1.0  0.5511519548660431  0.5522507301232906  0.46643124372862826  1.0000
  Zn  Zn8       1.0  0.5511532226005401  0.4477526971629685  0.5335736917784145  1.0000
  H   H1        1.0  0.4211278987703082  0.4395467275917966  0.15189641268003834  1.0000
  H   H2        1.0  0.5788698037006627  0.5604521161318914  0.15189553186288407  1.0000
  H   H3        1.0  0.5604530844440988  0.5788729082659927  0.3481033983975266  1.0000
  H   H4        1.0  0.4395460076728596  0.42112908330439325  0.3481048619146705  1.0000
  H   H5        1.0  0.3685259121809494  0.465825159834928  0.23901099807648046  1.0000
  H   H6        1.0  0.38404138550641415  0.39644195547333533  0.2135427334093833  1.0000
  H   H7        1.0  0.6314750286757302  0.5341750315878784  0.2390104114700407  1.0000
  H   H8        1.0  0.6159586300907094  0.6035577850870768  0.21354184439019255  1.0000
  H   H9        1.0  0.5341759539206948  0.6314747843616644  0.2609893854088625  1.0000
  H   H10       1.0  0.6035593368420537  0.6159574937386978  0.286457657627146  1.0000
  H   H11       1.0  0.46582498717993576  0.3685253970282929  0.260989989323285  1.0000
  H   H12       1.0  0.39644160454017907  0.38404175105166166  0.28645796942856083  1.0000
  H   H13       1.0  0.5788701310941988  0.4395481374641718  0.8481041886481008  1.0000
  H   H14       1.0  0.4211280415922901  0.5604503884585698  0.8481044677293637  1.0000
  H   H15       1.0  0.43954711563299054  0.5788713124960906  0.6518977566422564  1.0000
  H   H16       1.0  0.5604538298090561  0.42113100288933936  0.6518977707946332  1.0000
  H   H17       1.0  0.6314744905281627  0.465825342937876  0.7609901778256827  1.0000
  H   H18       1.0  0.615956545273484  0.39644209127999386  0.7864596141442559  1.0000
  H   H19       1.0  0.36852599363335514  0.5341741477270362  0.7609898826832263  1.0000
  H   H20       1.0  0.38404070175245414  0.6035564627811354  0.7864587266705454  1.0000
  H   H21       1.0  0.46582390458466694  0.6314755216679446  0.7390120496349795  1.0000
  H   H22       1.0  0.3964423359447409  0.6159562332235708  0.7135432008570106  1.0000
  H   H23       1.0  0.5341747293823431  0.36852582897551406  0.7390112045351811  1.0000
  H   H24       1.0  0.6035576852014586  0.38404281661193096  0.7135438009898818  1.0000
  C   C1        1.0  0.4999976567642648  0.6638223061839241  0.9999980154520357  1.0000
  C   C2        1.0  0.3349687388601695  0.49999811363115754  0.9999951340008475  1.0000
  C   C3        1.0  0.4999965385326561  0.4999985076152954  0.1048828517319151  1.0000
  C   C4        1.0  0.5000005176075889  0.33617568791643043  0.9999968868379908  1.0000
  C   C5        1.0  0.6650303604917126  0.5000031178808726  0.9999933946301736  1.0000
  C   C6        1.0  0.499997467893941  0.49999786476888625  0.8951148413226732  1.0000
  C   C7        1.0  0.33617675518771517  0.4999945292410928  0.4999998610645874  1.0000
  C   C8        1.0  0.4999999678208837  0.6650322863538844  0.500001583560774  1.0000
  C   C9        1.0  0.49999977756373687  0.5000012162989549  0.3951166712721985  1.0000
  C   C10       1.0  0.6638218761232866  0.5000041555826584  0.5000015982426403  1.0000
  C   C11       1.0  0.49999958846967724  0.33496917339186894  0.5000050905578561  1.0000
  C   C12       1.0  0.499999316238643  0.5000002434467349  0.6048879748641197  1.0000
  C   C13       1.0  0.2656338995042304  0.4999984964231318  0.9999962930788513  1.0000
  C   C14       1.0  0.2319323252642604  0.45157536588698116  0.0169226008228165  1.0000
  C   C15       1.0  0.1675359347465317  0.45169137613592636  0.0168136694052947  1.0000
  C   C16       1.0  0.2319296670088562  0.5484245526397445  0.9830765425764696  1.0000
  C   C17       1.0  0.16753420120613072  0.5483120942497877  0.9831915583696897  1.0000
  C   C18       1.0  0.13392142482378944  0.5000013481888175  5.328406089999998e-07  1.0000
  C   C19       1.0  0.06571690656037528  0.50000080730603  1.4022031748999996e-06  1.0000
  C   C20       1.0  0.032185132042073406  0.5000833336152866  0.9653369172784705  1.0000
  C   C21       1.0  0.0321860516622223  0.49991705070210213  0.0346668628398916  1.0000
  C   C22       1.0  0.7343647373584404  0.5000018101131972  0.9999971606521568  1.0000
  C   C23       1.0  0.7680649132220339  0.5484249269094333  0.016921431252932  1.0000
  C   C24       1.0  0.8324617662261816  0.5483084542241271  0.016810761157209697  1.0000
  C   C25       1.0  0.7680675822009703  0.45157529913159766  0.98307654972681  1.0000
  C   C26       1.0  0.8324644354673579  0.4516859075226948  0.9831909856468424  1.0000
  C   C27       1.0  0.8660748884972803  0.4999980273566536  8.201133709999999e-07  1.0000
  C   C28       1.0  0.9342840316450847  0.5000008806796714  8.198858551999998e-07  1.0000
  C   C29       1.0  0.9678144244376911  0.5000827715114083  0.034664831725066785  1.0000
  C   C30       1.0  0.9678162793654722  0.49991745123237763  0.9653377833118242  1.0000
  C   C31       1.0  0.40546156693612545  0.43265563481526936  0.23138462867145645  1.0000
  C   C32       1.0  0.5945379863703267  0.5673436351132183  0.23138374647814425  1.0000
  C   C33       1.0  0.5673446382644372  0.5945369072762149  0.2686148919140762  1.0000
  C   C34       1.0  0.43265584043158606  0.4054623456583856  0.26861519952108637  1.0000
  C   C35       1.0  0.45538072812048824  0.4658474752094578  0.16818603320959366  1.0000
  C   C36       1.0  0.45439932885668105  0.46620820476142916  0.2084823314438182  1.0000
  C   C37       1.0  0.5446169745318272  0.5341518235652529  0.1681860266096251  1.0000
  C   C38       1.0  0.5455997617079333  0.533791538107664  0.20848232490384078  1.0000
  C   C39       1.0  0.5341536550558601  0.5446192429601311  0.3318155168458644  1.0000
  C   C40       1.0  0.5337933776753944  0.5456020366650023  0.2915183493568563  1.0000
  C   C41       1.0  0.4658477493179731  0.45537998112651235  0.33181378703727654  1.0000
  C   C42       1.0  0.4662089512323178  0.45440136820001004  0.2915189374209248  1.0000
  C   C43       1.0  0.4999983887272493  0.5000012727220665  0.14789722571837413  1.0000
  C   C44       1.0  0.499998851665403  0.5000021792340946  0.22878909449377008  1.0000
  C   C45       1.0  0.5000002398116054  0.49999983865563996  0.35210345613263877  1.0000
  C   C46       1.0  0.4999993143900739  0.50000309452588  0.2712133256274143  1.0000
  C   C47       1.0  0.594536447087144  0.4326561920120255  0.7686171327755174  1.0000
  C   C48       1.0  0.4054612622294655  0.5673428326812981  0.7686162518422108  1.0000
  C   C49       1.0  0.4326560603085455  0.5945366468410285  0.7313856808113286  1.0000
  C   C50       1.0  0.5673434985464496  0.4054614698754547  0.7313854080974025  1.0000
  C   C51       1.0  0.5446196746423126  0.465849738752695  0.8318145632647427  1.0000
  C   C52       1.0  0.5456006122429145  0.4662067890582124  0.7915185546760453  1.0000
  C   C53       1.0  0.4553803478187247  0.5341511070432788  0.8318139778361553  1.0000
  C   C54       1.0  0.45439848479027495  0.5337903752345027  0.7915185487437525  1.0000
  C   C55       1.0  0.46584785374992077  0.544619087675528  0.6681873827857244  1.0000
  C   C56       1.0  0.46620859587711294  0.5456014013277511  0.7084833912463607  1.0000
  C   C57       1.0  0.5341554043143191  0.4553836827637242  0.6681876805039408  1.0000
  C   C58       1.0  0.5337928126806304  0.45440042574128364  0.7084833994365951  1.0000
  C   C59       1.0  0.4999983926337066  0.4999997245351936  0.8521019158945788  1.0000
  C   C60       1.0  0.4999970047155101  0.49999558061208665  0.7712138133723485  1.0000
  C   C61       1.0  0.5000011664310833  0.500001158606544  0.6478974237508481  1.0000
  C   C62       1.0  0.49999839194777707  0.4999983652186728  0.728789292526592  1.0000
  C   C63       1.0  0.5000013627297265  0.26669672509540027  0.9999980520960672  1.0000
  C   C64       1.0  0.4722603526974467  0.23268885640988662  0.03001585345349869  1.0000
  C   C65       1.0  0.4724249243775703  0.1682089160221878  0.029908376340152594  1.0000
  C   C66       1.0  0.5277441389906058  0.23268731818745186  0.9699824683556811  1.0000
  C   C67       1.0  0.5275812690473956  0.1682087648349295  0.9700919853507554  1.0000
  C   C68       1.0  0.5000025980465991  0.1343172148533611  0.9999995128699409  1.0000
  C   C69       1.0  0.5000011320089045  0.0659528457529319  0.9999992294663824  1.0000
  C   C70       1.0  0.5552994165511721  0.032212631121311106  0.9999667846784632  1.0000
  C   C71       1.0  0.444699989432749  0.032214582166538705  3.30226863809e-05  1.0000
  C   C72       1.0  0.4999986615916399  0.7332984940844156  0.999999167888276  1.0000
  C   C73       1.0  0.4722563474857822  0.767307914694655  0.9699818397858805  1.0000
  C   C74       1.0  0.4724196799183673  0.8317864679979793  0.9700901860335449  1.0000
  C   C75       1.0  0.5277401233481954  0.767308655491135  0.030015803937580198  1.0000
  C   C76       1.0  0.5275737017131233  0.8317876709518546  0.029907735502362698  1.0000
  C   C77       1.0  0.49999603880654314  0.8656747669153122  0.9999994453852636  1.0000
  C   C78       1.0  0.4999998172909417  0.9340442233758424  0.999998859653061  1.0000
  C   C79       1.0  0.44470245772518513  0.9677849005104948  0.9999658295834163  1.0000
  C   C80       1.0  0.5552990988155884  0.9677829434192944  3.2935990013499995e-05  1.0000
  C   C81       1.0  0.4999991225318396  0.7343660282499442  0.5000007080278479  1.0000
  C   C82       1.0  0.5484244477621374  0.7680679795506793  0.4830769026458481  1.0000
  C   C83       1.0  0.5483084372434065  0.8324637473550069  0.4831895945784621  1.0000
  C   C84       1.0  0.4515761872152808  0.7680710979151187  0.5169253763252611  1.0000
  C   C85       1.0  0.45168818336487965  0.8324673285197834  0.5168135416438844  1.0000
  C   C86       1.0  0.5000006613775128  0.8660786322094436  0.49999953702726413  1.0000
  C   C87       1.0  0.5000016647431237  0.9342829807995515  0.5000006895808653  1.0000
  C   C88       1.0  0.49991475569696325  0.9678137443670779  0.5346644087338814  1.0000
  C   C89       1.0  0.5000826385209649  0.9678156103313781  0.4653363848161972  1.0000
  C   C90       1.0  0.5000008962458226  0.26563450652282233  0.5000036483967917  1.0000
  C   C91       1.0  0.45157510834004466  0.23193302543373304  0.4830804289805144  1.0000
  C   C92       1.0  0.45169158134818593  0.16753725757889273  0.48319139452581067  1.0000
  C   C93       1.0  0.5484266066808346  0.23193081659714926  0.5169242666269225  1.0000
  C   C94       1.0  0.548315073018152  0.1675345860445887  0.5168101261363204  1.0000
  C   C95       1.0  0.5000012073528098  0.133921902566577  0.49999989429746694  1.0000
  C   C96       1.0  0.4999983540329254  0.0657161665128783  0.5000004800145561  1.0000
  C   C97       1.0  0.49991691738429017  0.032185402751856905  0.465336760862101  1.0000
  C   C98       1.0  0.5000829510234936  0.0321858496066056  0.5346642053549429  1.0000
  C   C99       1.0  0.7332996243213542  0.5000009980321495  0.5000033362820062  1.0000
  C   C100      1.0  0.7673059488749133  0.527742865495874  0.4699860085522189  1.0000
  C   C101      1.0  0.8317860496938965  0.5275764442584218  0.4700920428565212  1.0000
  C   C102      1.0  0.7673095853412802  0.4722564338259047  0.5300189255148878  1.0000
  C   C103      1.0  0.8317882990751431  0.4724211533439089  0.5299088348164601  1.0000
  C   C104      1.0  0.8656780764206006  0.49999837526912233  0.4999998593000967  1.0000
  C   C105      1.0  0.93404677798366  0.4999975288795612  0.49999898993711855  1.0000
  C   C106      1.0  0.9677852266091379  0.4446970694616753  0.500033760338539  1.0000
  C   C107      1.0  0.9677858162112681  0.5552957534211842  0.49996885469923313  1.0000
  C   C108      1.0  0.2666985445009615  0.4999972243032503  0.5000015995663672  1.0000
  C   C109      1.0  0.23268950878734526  0.5277389998869352  0.5300177633294821  1.0000
  C   C110      1.0  0.1682098700780443  0.5275761303659507  0.5299088319379732  1.0000
  C   C111      1.0  0.23269036965995582  0.47225398307841726  0.4699845668947303  1.0000
  C   C112      1.0  0.16821073132713593  0.47241762934527304  0.47009320900406226  1.0000
  C   C113      1.0  0.1343196299103298  0.49999707214454486  0.5000010205839088  1.0000
  C   C114      1.0  0.06595370327576688  0.4999974560506715  0.5000001516763746  1.0000
  C   C115      1.0  0.0322147921619589  0.5552974529653981  0.5000337532501078  1.0000
  C   C116      1.0  0.03221512753491141  0.4446983065500163  0.49996684003912856  1.0000
  O   O1        1.0  0.49999978091739916  0.49999830331997697  0.999999479127382  1.0000
  O   O2        1.0  0.5465974670756851  0.6377225918615397  0.015443604068607897  1.0000
  O   O3        1.0  0.361001299772056  0.5233357079240264  0.9703964401957064  1.0000
  O   O4        1.0  0.47014703932235585  0.45651637233334696  0.0879790438440864  1.0000
  O   O5        1.0  0.45340148081365333  0.6377222635534353  0.9845526150106636  1.0000
  O   O6        1.0  0.529846500046169  0.5434829630491791  0.0879784561969856  1.0000
  O   O7        1.0  0.361005865792933  0.4766654322961586  0.029591983008323598  1.0000
  O   O8        1.0  0.4534030088082092  0.3622749266914553  0.015443050372020695  1.0000
  O   O9        1.0  0.6389954868147  0.4766692369923718  0.9703955744403031  1.0000
  O   O10       1.0  0.5465948434314215  0.36227342516031774  0.9845506121344059  1.0000
  O   O11       1.0  0.6389941477683365  0.523339479590156  0.029591977775389498  1.0000
  O   O12       1.0  0.47015408117439966  0.5434854812827653  0.9120195185441489  1.0000
  O   O13       1.0  0.5298403923124014  0.4565097780509647  0.9120192366590627  1.0000
  O   O14       1.0  0.5000007031210815  0.5000002673873141  0.5000015987887991  1.0000
  O   O15       1.0  0.3622739841508817  0.453403157684015  0.48455388284830275  1.0000
  O   O16       1.0  0.47666278487886876  0.6389979333335633  0.529602595299849  1.0000
  O   O17       1.0  0.5434820249673463  0.5298515622783598  0.4120207700842116  1.0000
  O   O18       1.0  0.36227594138286184  0.5465947480465375  0.5154484465119822  1.0000
  O   O19       1.0  0.4565161428853558  0.4701527125496058  0.4120213553060736  1.0000
  O   O20       1.0  0.5233352409646415  0.6389966130291641  0.4704078194203446  1.0000
  O   O21       1.0  0.6377227970413274  0.54660015905786  0.48455850871915357  1.0000
  O   O22       1.0  0.5233367717397073  0.3610030504129896  0.5296063870486875  1.0000
  O   O23       1.0  0.6377226900980021  0.45340254226471893  0.5154481644816613  1.0000
  O   O24       1.0  0.4766670899275455  0.3610057852030266  0.4704095834974851  1.0000
  O   O25       1.0  0.4565120500728028  0.5298435598732283  0.587981552849925  1.0000
  O   O26       1.0  0.5434884321727226  0.4701597096619138  0.5879812683556125  1.0000
  F   F1        1.0  0.26066642608817864  0.5976429206101841  0.967408346591604  1.0000
  F   F2        1.0  0.1372551562232687  0.596825564181934  0.9674486170126854  1.0000
  F   F3        1.0  0.2606661964523056  0.40235706397417914  0.032591665751468185  1.0000
  F   F4        1.0  0.13725909086596744  0.4031801490340002  0.03256008750494739  1.0000
  F   F5        1.0  0.06238005890189411  0.4994252570985935  0.9311228276417651  1.0000
  F   F6        1.0  0.9376269019855598  0.5005769308348391  0.931121665772416  1.0000
  F   F7        1.0  0.0623763555339281  0.5005761216005027  0.068882111122349  1.0000
  F   F8        1.0  0.9376259708963133  0.49942183504845156  0.06888094946577179  1.0000
  F   F9        1.0  0.8627416303212032  0.40317105731347164  0.9674486324647164  1.0000
  F   F10       1.0  0.7393345228531133  0.40235693831800745  0.9674063350341835  1.0000
  F   F11       1.0  0.8627386102831095  0.5968210615994707  0.0325563009671512  1.0000
  F   F12       1.0  0.7393310422095  0.5976446091305122  0.0325916461369076  1.0000
  F   F13       1.0  0.5536869830483155  0.2611210571129092  0.9393289335662586  1.0000
  F   F14       1.0  0.5535628948051823  0.1380786970780363  0.939922274602516  1.0000
  F   F15       1.0  0.44631757400068767  0.2611239091661873  0.060666485877874286  1.0000
  F   F16       1.0  0.4464390669711307  0.13808201217026547  0.06007838236026689  1.0000
  F   F17       1.0  0.6100196586482128  0.06226394137400602  0.00043513928425649987  1.0000
  F   F18       1.0  0.6100202079070058  0.9377326839343353  0.9995657398665329  1.0000
  F   F19       1.0  0.38997842894929147  0.062266235337837414  0.9995649522464515  1.0000
  F   F20       1.0  0.3899794296077559  0.9377363589511278  0.0004318724053788999  1.0000
  F   F21       1.0  0.5535553970635476  0.8619168734616023  0.060080632906902985  1.0000
  F   F22       1.0  0.5536782775082331  0.7388777511203486  0.06067136653620509  1.0000
  F   F23       1.0  0.44643527889775214  0.861917474497439  0.9399204698979631  1.0000
  F   F24       1.0  0.4463162780189904  0.7388760397132331  0.9393274412812147  1.0000
  F   F25       1.0  0.4023563130070542  0.7393367190901473  0.5325953087587932  1.0000
  F   F26       1.0  0.4031764463744095  0.8627458320060556  0.5325602422458786  1.0000
  F   F27       1.0  0.5976424059694098  0.739335570973033  0.4674069755149617  1.0000
  F   F28       1.0  0.5968207063210756  0.862741444576109  0.4674443369475511  1.0000
  F   F29       1.0  0.500572841857803  0.9376235094946564  0.5688808188083384  1.0000
  F   F30       1.0  0.4994244027526591  0.062374681398509296  0.5688806098624112  1.0000
  F   F31       1.0  0.49942170803088004  0.9376226146393806  0.4311211391605454  1.0000
  F   F32       1.0  0.5005773850048456  0.06237702660071421  0.4311212199183956  1.0000
  F   F33       1.0  0.5968309725774575  0.137256537863145  0.5325524863264021  1.0000
  F   F34       1.0  0.5976469435538051  0.26066750070530287  0.5325921654471414  1.0000
  F   F35       1.0  0.40317792463230256  0.1372604925176191  0.467445853093949  1.0000
  F   F36       1.0  0.40235668747227765  0.2606668286245792  0.4674116557220315  1.0000
  F   F37       1.0  0.7388730079203824  0.44631364713443844  0.5606721703710136  1.0000
  F   F38       1.0  0.8619193738141249  0.4464349603017085  0.5600776814205017  1.0000
  F   F39       1.0  0.7388712807005363  0.5536860493052062  0.43933392273256533  1.0000
  F   F40       1.0  0.8619120964573245  0.5535590066656582  0.4399208783579879  1.0000
  F   F41       1.0  0.93773453221835  0.38997649556372954  0.499565301573675  1.0000
  F   F42       1.0  0.0622638461891825  0.3899778015173041  0.5004367574612727  1.0000
  F   F43       1.0  0.9377361725885222  0.6100185706737664  0.500437313664122  1.0000
  F   F44       1.0  0.06226594903518651  0.6100175645908267  0.49956470476305265  1.0000
  F   F45       1.0  0.13808098432081553  0.44643276827051886  0.4399243671955517  1.0000
  F   F46       1.0  0.2611218000806232  0.4463140506667429  0.4393310371142433  1.0000
  F   F47       1.0  0.138081570605074  0.5535641595881844  0.5600773842351855  1.0000
  F   F48       1.0  0.261120999178047  0.5536813100928484  0.5606721620555744  1.0000
