data_image0
_chemical_formula_structural       Cd2H30C40N2O12
_chemical_formula_sum              "Cd2 H30 C40 N2 O12"
_cell_length_a       9.483760761501388
_cell_length_b       9.76523026231182
_cell_length_c       10.771962787523352
_cell_angle_alpha    88.49927399931526
_cell_angle_beta     72.57539341118013
_cell_angle_gamma    69.45680754168886

_space_group_name_H-M_alt    "P 1"
_space_group_IT_number       1

loop_
  _space_group_symop_operation_xyz
  'x, y, z'

loop_
  _atom_site_type_symbol
  _atom_site_label
  _atom_site_symmetry_multiplicity
  _atom_site_fract_x
  _atom_site_fract_y
  _atom_site_fract_z
  _atom_site_occupancy
  Cd  Cd1       1.0  0.6506399733717387  0.5731035639381333  0.15168704115542653  1.0000
  Cd  Cd2       1.0  0.3493613729281079  0.42689603184315666  0.8483107281067108  1.0000
  H   H1        1.0  0.7317513355848962  0.42678190187001525  0.9088980180364459  1.0000
  H   H2        1.0  0.2682492574932808  0.5732166577893096  0.09110461761826373  1.0000
  H   H3        1.0  0.8898342529066808  0.45949593992961724  0.902087565431039  1.0000
  H   H4        1.0  0.11016515772677579  0.5405058448662461  0.09790970709759966  1.0000
  H   H5        1.0  0.6649217352919765  0.4181932092608491  0.40822680739579914  1.0000
  H   H6        1.0  0.3350768062181046  0.5818107939009067  0.5917724789329953  1.0000
  H   H7        1.0  0.6195309310517771  0.20646181840069033  0.5242029600529535  1.0000
  H   H8        1.0  0.3804724189612117  0.7935411019502681  0.47579790922033294  1.0000
  H   H9        1.0  0.4626837796901953  0.10948105239796042  0.2106116407201526  1.0000
  H   H10       1.0  0.5373198964242719  0.8905152793232461  0.789388412984174  1.0000
  H   H11       1.0  0.505124547111187  0.33261860714574715  0.11155522850999944  1.0000
  H   H12       1.0  0.4948749390105292  0.667379957299687  0.888447691219831  1.0000
  H   H13       1.0  0.48815988994150683  0.9386788088985796  0.3738712624652295  1.0000
  H   H14       1.0  0.5118485677335726  0.06131646277012241  0.6261322372561083  1.0000
  H   H15       1.0  0.3767114900731486  0.049039734909541714  0.04509273656655924  1.0000
  H   H16       1.0  0.6232891434184747  0.9509587906123474  0.9549071044793823  1.0000
  H   H17       1.0  0.1511373280391909  0.2673207733441032  0.02959971026634629  1.0000
  H   H18       1.0  0.8488643989377422  0.7326777587708265  0.9704007782407378  1.0000
  H   H19       1.0  0.8790277014038426  0.26175869728044904  0.1025915962903525  1.0000
  H   H20       1.0  0.12097361795370182  0.7382409212591341  0.8974080360442972  1.0000
  H   H21       1.0  0.8348700633209845  0.034777260668107594  0.18853999825941523  1.0000
  H   H22       1.0  0.16512974146071005  0.9652234490822451  0.8114590619779138  1.0000
  H   H23       1.0  0.12991437151210763  0.8888819181168016  0.3901223011161293  1.0000
  H   H24       1.0  0.8700816913096858  0.1111199037956752  0.6098776867103626  1.0000
  H   H25       1.0  0.05278671107628681  0.836472755884593  0.6223863100800104  1.0000
  H   H26       1.0  0.9472091004412773  0.1635268638272436  0.37761287955769535  1.0000
  H   H27       1.0  0.8808617171041748  0.6880365757406538  0.6972546143058482  1.0000
  H   H28       1.0  0.11913520136985062  0.31196303918507345  0.30274429125674374  1.0000
  H   H29       1.0  0.784446106119873  0.5964249617572364  0.5369031127925015  1.0000
  H   H30       1.0  0.21554889015891376  0.40357683080391393  0.46309436450033564  1.0000
  C   C1        1.0  0.6187091572014652  0.3472391015956973  0.36904891317161065  1.0000
  C   C2        1.0  0.3812928345508483  0.65276162134073  0.6309514419880102  1.0000
  C   C3        1.0  0.5935153562107941  0.22874944048640347  0.4324367779132816  1.0000
  C   C4        1.0  0.40648883598327495  0.7712512842569482  0.5675639406323614  1.0000
  C   C5        1.0  0.5361692645454567  0.1389246151920389  0.37699713573351096  1.0000
  C   C6        1.0  0.4638395252607524  0.8610727904024313  0.6230015729590692  1.0000
  C   C7        1.0  0.5066980556623903  0.1759867278210834  0.25771998135742546  1.0000
  C   C8        1.0  0.49330630631799727  0.8240106969178242  0.7422798636356163  1.0000
  C   C9        1.0  0.5312533616498457  0.2986691897230429  0.20174908847254616  1.0000
  C   C10       1.0  0.4687494588123899  0.7013293489849204  0.7982520474956875  1.0000
  C   C11       1.0  0.5049938237015397  0.013289558631541402  0.4372607509275498  1.0000
  C   C12       1.0  0.4950160461188276  0.9867078649351129  0.562739536762429  1.0000
  C   C13       1.0  0.37626375085695685  0.7911394512103058  0.13307380769166602  1.0000
  C   C14       1.0  0.6237388863478159  0.2088623988812515  0.8669291333654244  1.0000
  C   C15       1.0  0.23502700501564538  0.918403116078579  0.12591073283063994  1.0000
  C   C16       1.0  0.7649745110705198  0.08159317969827382  0.8740861628788895  1.0000
  C   C17       1.0  0.2571924679011203  0.0472834817877512  0.07817385077881064  1.0000
  C   C18       1.0  0.7428086405656488  0.9527139004137551  0.9218221887582774  1.0000
  C   C19       1.0  0.13109455123598932  0.16981418197293857  0.06917568152821472  1.0000
  C   C20       1.0  0.8689072296255417  0.8301843046254049  0.9308210808338446  1.0000
  C   C21       1.0  0.9781074278452593  0.16688065799998952  0.11063099198127445  1.0000
  C   C22       1.0  0.021894142816513747  0.8331211627402341  0.8893694385421684  1.0000
  C   C23       1.0  0.9524520900498317  0.04125126260510109  0.15922553761947716  1.0000
  C   C24       1.0  0.04754887557292875  0.9587493968425562  0.8407695123977137  1.0000
  C   C25       1.0  0.07996495719031316  0.917486048622635  0.16525917224781492  1.0000
  C   C26       1.0  0.9200357167147718  0.08251244276181782  0.8347378741893581  1.0000
  C   C27       1.0  0.005803717494089309  0.7669086286265668  0.3325269161078667  1.0000
  C   C28       1.0  0.9941924881717199  0.23308991603975937  0.6674740612385293  1.0000
  C   C29       1.0  0.05711708220210456  0.8219153284882735  0.4223136097572608  1.0000
  C   C30       1.0  0.942876332145083  0.1780876121793682  0.5776879531195362  1.0000
  C   C31       1.0  0.012344401468105603  0.7931872971349777  0.5529727104444718  1.0000
  C   C32       1.0  0.9876483404843203  0.20681453913582712  0.44702812960736094  1.0000
  C   C33       1.0  0.9154110571699545  0.7107038498295992  0.595259515813304  1.0000
  C   C34       1.0  0.08458281868122701  0.28929795889680326  0.4047391770909032  1.0000
  C   C35       1.0  0.8624388967013273  0.6587303520147288  0.5057200308212589  1.0000
  C   C36       1.0  0.13755454458815555  0.34127256589462013  0.49427966898302617  1.0000
  C   C37       1.0  0.9070298272931512  0.6843516744581208  0.3733713051184182  1.0000
  C   C38       1.0  0.092964469648571  0.3156490364644782  0.6266273124219667  1.0000
  C   C39       1.0  0.8393683460259992  0.6317848008587816  0.28390371630673894  1.0000
  C   C40       1.0  0.1606285859191772  0.36821480268780254  0.716094257719597  1.0000
  N   N1        1.0  0.5880214063797666  0.3826041312703339  0.2554146544186651  1.0000
  N   N2        1.0  0.4119783714596324  0.6173966012383045  0.744586268891176  1.0000
  O   O1        1.0  0.49386628014061523  0.8188248371460107  0.14517015835883748  1.0000
  O   O2        1.0  0.5061362950470425  0.18118022191682576  0.8548262039608121  1.0000
  O   O3        1.0  0.3800368788314613  0.659253675573723  0.125550687190895  1.0000
  O   O4        1.0  0.619963091088927  0.3407461525765783  0.874465996871493  1.0000
  O   O5        1.0  0.04736984681350257  0.7916821168245464  0.2023718196011331  1.0000
  O   O6        1.0  0.9526292586311346  0.20831751128725534  0.7976283808837509  1.0000
  O   O7        1.0  0.9173573354510297  0.585258376273629  0.1646820891669378  1.0000
  O   O8        1.0  0.08264138931651391  0.4147423155045402  0.8353153920729924  1.0000
  O   O9        1.0  0.6967078172543708  0.636713400637909  0.33388296608910656  1.0000
  O   O10       1.0  0.30329144450541895  0.3632829388485916  0.6661172923794255  1.0000
  O   O11       1.0  0.7705903611215844  0.4985296533849067  0.939433901674079  1.0000
  O   O12       1.0  0.22941015646832597  0.5014721266248473  0.06056308677944601  1.0000
