data_image0
_chemical_formula_structural       Cu3H12C12N14O8
_chemical_formula_sum              "Cu3 H12 C12 N14 O8"
_cell_length_a       6.434785824299193
_cell_length_b       8.80029996385043
_cell_length_c       10.657828936607954
_cell_angle_alpha    108.67875349320408
_cell_angle_beta     93.92266131903766
_cell_angle_gamma    109.03893544725001

_space_group_name_H-M_alt    "P 1"
_space_group_IT_number       1

loop_
  _space_group_symop_operation_xyz
  'x, y, z'

loop_
  _atom_site_type_symbol
  _atom_site_label
  _atom_site_symmetry_multiplicity
  _atom_site_fract_x
  _atom_site_fract_y
  _atom_site_fract_z
  _atom_site_occupancy
  Cu  Cu1       1.0  0.5004900593556058  0.5007893894329881  0.49990303859721064  1.0000
  Cu  Cu2       1.0  0.4274937872201008  0.8029817145450268  0.45505860209344473  1.0000
  Cu  Cu3       1.0  0.5721672016186332  0.19658640390448312  0.5451204307443265  1.0000
  H   H1        1.0  0.25571275196436016  0.6003396675474947  0.030108187089283034  1.0000
  H   H2        1.0  0.744500098949672  0.39974083658469783  0.9694613467979281  1.0000
  H   H3        1.0  0.10088999672138506  0.41947619560703947  0.7838512614947107  1.0000
  H   H4        1.0  0.8992992603694604  0.5804094507793494  0.21587292145979836  1.0000
  H   H5        1.0  0.1255082789835313  0.9801646014536017  0.8409725801296803  1.0000
  H   H6        1.0  0.874606817103519  0.0198537854670633  0.15915515128738636  1.0000
  H   H7        1.0  0.2803146367733191  0.14334680333728764  0.08982376378573063  1.0000
  H   H8        1.0  0.7200272097681123  0.8570174639370761  0.9102357384096894  1.0000
  H   H9        1.0  0.8628583179666124  0.8803122524154007  0.5843923460174383  1.0000
  H   H10       1.0  0.13718741202264786  0.1192516278663547  0.415718775602578  1.0000
  H   H11       1.0  0.8517373466014604  0.8106906669233497  0.42897066651094234  1.0000
  H   H12       1.0  0.14805390986518321  0.1888614347354149  0.5710333812581043  1.0000
  C   C1        1.0  0.3487874575809967  0.48506219758293406  0.22898169135417132  1.0000
  C   C2        1.0  0.6516984299738127  0.5154366144931969  0.7708298288125734  1.0000
  C   C3        1.0  0.2708730714988903  0.38407204160757413  0.08097189327462931  1.0000
  C   C4        1.0  0.729414930457189  0.6161961605531163  0.9188786979207467  1.0000
  C   C5        1.0  0.2266839962643061  0.4632945109699307  0.9928910853931899  1.0000
  C   C6        1.0  0.7734623508885078  0.5367794767427368  0.006842721353059662  1.0000
  C   C7        1.0  0.1447077077054146  0.3678384776055097  0.8573167389890418  1.0000
  C   C8        1.0  0.8553596041202383  0.6320817246025217  0.1424544716035926  1.0000
  C   C9        1.0  0.1560615143165266  0.11666281234906961  0.8903137454660455  1.0000
  C   C10       1.0  0.8440217562194476  0.8833847122215843  0.10971618194101043  1.0000
  C   C11       1.0  0.23926328472199296  0.2091087667056257  0.026530311841661103  1.0000
  C   C12       1.0  0.7610104224521806  0.7911447798874321  0.9734640199171453  1.0000
  N   N1        1.0  0.27588854892194803  0.6201077026823042  0.5256237459669039  1.0000
  N   N2        1.0  0.7208328879097508  0.37868421683843684  0.47358736511464633  1.0000
  N   N3        1.0  0.21285220492967472  0.6551175409537888  0.6325936801158392  1.0000
  N   N4        1.0  0.7863332164021201  0.344706851043135  0.36736525108094054  1.0000
  N   N5        1.0  0.14647858916114131  0.6843066383808035  0.7326952618796485  1.0000
  N   N6        1.0  0.8544480701815473  0.3161819316895205  0.26787863475136936  1.0000
  N   N7        1.0  0.464885842182838  0.003364415308979599  0.6198980918900645  1.0000
  N   N8        1.0  0.5352488684992167  0.9961819059109941  0.38056878796186316  1.0000
  N   N9        1.0  0.5460337466804148  0.0255996070034925  0.7337849216161134  1.0000
  N   N10       1.0  0.45407258666364914  0.9742825173943996  0.26675947709119197  1.0000
  N   N11       1.0  0.6185382758783008  0.05100798587686481  0.8443837366800866  1.0000
  N   N12       1.0  0.38167268077663863  0.9494109825225082  0.15627852218425184  1.0000
  N   N13       1.0  0.10578025154806173  0.1954631153353645  0.8075887984562018  1.0000
  N   N14       1.0  0.8940949403581727  0.8044075086055998  0.1923504458012318  1.0000
  O   O1        1.0  0.7752734435498567  0.7811218729144611  0.501308108035211  1.0000
  O   O2        1.0  0.22481037954628388  0.21840539679341478  0.49879964939090377  1.0000
  O   O3        1.0  0.3491375322530529  0.6381340169660417  0.268420446538002  1.0000
  O   O4        1.0  0.6507884239826254  0.3621801033637126  0.731392812195985  1.0000
  O   O5        1.0  0.40827835303360166  0.41084205497701015  0.30150125504065534  1.0000
  O   O6        1.0  0.5928310303345087  0.5899328990381748  0.6983336699975881  1.0000
  O   O7        1.0  0.017666260663126793  0.10614637465261009  0.6795322849593648  1.0000
  O   O8        1.0  0.9818508686808656  0.893516877734541  0.3204827647293628  1.0000
