data_image0
_chemical_formula_structural       CuH10C14N12O4
_chemical_formula_sum              "Cu1 H10 C14 N12 O4"
_cell_length_a       6.609110262140559
_cell_length_b       8.520202591386765
_cell_length_c       8.940256728933074
_cell_angle_alpha    88.97573071866677
_cell_angle_beta     76.70404643564432
_cell_angle_gamma    73.00342803269568

_space_group_name_H-M_alt    "P 1"
_space_group_IT_number       1

loop_
  _space_group_symop_operation_xyz
  'x, y, z'

loop_
  _atom_site_type_symbol
  _atom_site_label
  _atom_site_symmetry_multiplicity
  _atom_site_fract_x
  _atom_site_fract_y
  _atom_site_fract_z
  _atom_site_occupancy
  Cu  Cu1       1.0  0.9999986732462105  2.7368702504011077e-06  0.49999852629293434  1.0000
  H   H1        1.0  0.3412524843796661  0.3553881379679493  0.857482476330098  1.0000
  H   H2        1.0  0.6587502377493308  0.6446095201335779  0.14251930199595364  1.0000
  H   H3        1.0  0.4161828019145588  0.5043249126226782  0.728199607990483  1.0000
  H   H4        1.0  0.5838214243284483  0.49567276072403366  0.27180416715749095  1.0000
  H   H5        1.0  0.030265683629508575  0.7568003171357061  0.7410374026307025  1.0000
  H   H6        1.0  0.9697291058477902  0.24320590461045538  0.25895989742874553  1.0000
  H   H7        1.0  0.2105658251970723  0.7073305231118352  0.9720471391315401  1.0000
  H   H8        1.0  0.7894230869773153  0.2926707833155503  0.027953424206707236  1.0000
  H   H9        1.0  0.38900926704691596  0.9128398599435525  0.027404834556591585  1.0000
  H   H10       1.0  0.6109774585330143  0.08715899644703028  0.9725983588320092  1.0000
  C   C1        1.0  0.4215867373794993  0.37529964907153607  0.7402151728771289  1.0000
  C   C2        1.0  0.5784072712330256  0.6247004484648355  0.2597868352329797  1.0000
  C   C3        1.0  0.2404071375980834  0.20186106070664064  0.6186492590816286  1.0000
  C   C4        1.0  0.7595993495019471  0.7981390434540002  0.3813485184984131  1.0000
  C   C5        1.0  0.22902503871922866  0.06936292826362939  0.7237453892248811  1.0000
  C   C6        1.0  0.7709762529258982  0.9306384104185168  0.2762554336067282  1.0000
  C   C7        1.0  0.1162199930732585  0.8372972806118707  0.7741988726830656  1.0000
  C   C8        1.0  0.8837762021337243  0.1627052669612964  0.2258005053766824  1.0000
  C   C9        1.0  0.2141320415309593  0.8099840682335608  0.8982236707467948  1.0000
  C   C10       1.0  0.7858594185462806  0.19001849127265294  0.10177981939990846  1.0000
  C   C11       1.0  0.31412567276708375  0.9247312229903099  0.9292565721374969  1.0000
  C   C12       1.0  0.6858667574688652  0.07526887852373677  0.07074680666826794  1.0000
  C   C13       1.0  0.6638055314064105  0.2704722317391484  0.7073142119101662  1.0000
  C   C14       1.0  0.3362223846026069  0.7295279897397504  0.2926946835889268  1.0000
  N   N1        1.0  0.12181356952418555  0.967381063575125  0.6886545275605586  1.0000
  N   N2        1.0  0.8781924324964977  0.032620269581599394  0.31134330568995244  1.0000
  N   N3        1.0  0.3085488039378247  0.33474751391605645  0.6324346342137375  1.0000
  N   N4        1.0  0.6914566146191776  0.6652513588185653  0.3675633358856274  1.0000
  N   N5        1.0  0.1803690685029338  0.2079914869508598  0.4854552101766672  1.0000
  N   N6        1.0  0.8196348700618117  0.792011079179623  0.5145440494399695  1.0000
  N   N7        1.0  0.29099468745640433  0.4221794374662975  0.5057217295477798  1.0000
  N   N8        1.0  0.7090101717586704  0.5778206834872746  0.4942796637396327  1.0000
  N   N9        1.0  0.32396210158189115  0.053800673764221985  0.8423417218841109  1.0000
  N   N10       1.0  0.6760374885481468  0.9461969858850522  0.15766167532738967  1.0000
  N   N11       1.0  0.2131296256640738  0.3444988130197827  0.41890721205521686  1.0000
  N   N12       1.0  0.7868727840324682  0.6555037442731403  0.5810911732453549  1.0000
  O   O1        1.0  0.7150542105846681  0.15775926978054847  0.6003995179712193  1.0000
  O   O2        1.0  0.2849397999251837  0.8422296826097901  0.3995892636037156  1.0000
  O   O3        1.0  0.7770589362391574  0.30535179743009877  0.7871965809287715  1.0000
  O   O4        1.0  0.22294548866982214  0.6946421096069598  0.21279380532728  1.0000
