data_image0
_chemical_formula_structural       Mn2H26C36S2N6O12
_chemical_formula_sum              "Mn2 H26 C36 S2 N6 O12"
_cell_length_a       7.700786194323729
_cell_length_b       8.79146136660221
_cell_length_c       13.24344285122245
_cell_angle_alpha    77.36330875992893
_cell_angle_beta     78.62913787600108
_cell_angle_gamma    77.81348990619944

_space_group_name_H-M_alt    "P 1"
_space_group_IT_number       1

loop_
  _space_group_symop_operation_xyz
  'x, y, z'

loop_
  _atom_site_type_symbol
  _atom_site_label
  _atom_site_symmetry_multiplicity
  _atom_site_fract_x
  _atom_site_fract_y
  _atom_site_fract_z
  _atom_site_occupancy
  Mn  Mn1       1.0  0.3264732687215073  0.213556225736717  0.7823267414278803  1.0000
  Mn  Mn2       1.0  0.6748763647184008  0.7848818589099337  0.21853297724203463  1.0000
  H   H1        1.0  0.42840765931012476  0.14114529172435647  0.9627222121553276  1.0000
  H   H2        1.0  0.5734795012918923  0.8593516874903243  0.03797230068644811  1.0000
  H   H3        1.0  0.269587163893938  0.039903686441356  0.9800367019181948  1.0000
  H   H4        1.0  0.7330897086021225  0.9597423925063423  0.020540669464423893  1.0000
  H   H5        1.0  0.5987563338445983  0.8955365245714618  0.826087338593922  1.0000
  H   H6        1.0  0.4069235684444267  0.10404213731433029  0.17274817536354448  1.0000
  H   H7        1.0  0.8405707857506712  0.7435088436992527  0.7122226218507635  1.0000
  H   H8        1.0  0.1659643230412797  0.25908318172878336  0.28510193406310697  1.0000
  H   H9        1.0  0.90741529847643  0.850562051276718  0.5190416811648717  1.0000
  H   H10       1.0  0.09578697045785131  0.15418226065470012  0.47844621336251697  1.0000
  H   H11       1.0  0.8155263685124226  0.06497889696995429  0.3643903568865313  1.0000
  H   H12       1.0  0.18357586444911805  0.9398583818395847  0.6342428280789109  1.0000
  H   H13       1.0  0.6096598409650299  0.30819797741784777  0.299505626988342  1.0000
  H   H14       1.0  0.3856968806868082  0.6951239285337464  0.7005549717717658  1.0000
  H   H15       1.0  0.3403062457208462  0.5277066958918866  0.3396434377423247  1.0000
  H   H16       1.0  0.6521622580286466  0.4719492343344881  0.6618199282525694  1.0000
  H   H17       1.0  0.09978307154023013  0.6332571633725053  0.4748603601032713  1.0000
  H   H18       1.0  0.8904705573179827  0.3617546444219498  0.5275700131922038  1.0000
  H   H19       1.0  0.08557479904050788  0.5018310045187702  0.6621003132674802  1.0000
  H   H20       1.0  0.9079223887111709  0.49206397058043183  0.339817930381308  1.0000
  H   H21       1.0  0.22527580510580242  0.5253684241172606  0.8574838956889225  1.0000
  H   H22       1.0  0.7762620729459542  0.4752048972955904  0.1410419111889922  1.0000
  H   H23       1.0  0.9374720079310349  0.7092634224545904  0.9012059232491085  1.0000
  H   H24       1.0  0.06420508936417241  0.2926150942035477  0.09541417601079161  1.0000
  H   H25       1.0  0.6434519320737024  0.6179896476609557  0.9167408920310651  1.0000
  H   H26       1.0  0.3581382830914279  0.38391970368023454  0.080817950062432  1.0000
  C   C1        1.0  0.6286600488152773  0.9379798869491794  0.7421170448288097  1.0000
  C   C2        1.0  0.3751811972445367  0.062305876221024896  0.256712813286221  1.0000
  C   C3        1.0  0.7640163521672962  0.8544580509179905  0.6771033163056615  1.0000
  C   C4        1.0  0.24020450324228199  0.14745425805931228  0.3209240834609801  1.0000
  C   C5        1.0  0.8010377245102662  0.9127958149885412  0.5705400320501826  1.0000
  C   C6        1.0  0.20141426149581323  0.09029393417235809  0.4275335484820033  1.0000
  C   C7        1.0  0.6954490507254578  0.0547884374063798  0.528204994038859  1.0000
  C   C8        1.0  0.3047728726408324  0.9475720114559891  0.47076414519204945  1.0000
  C   C9        1.0  0.7121262877773235  0.12394145439942152  0.4188998492555669  1.0000
  C   C10       1.0  0.28641241618404933  0.8793691784559242  0.5802373966459768  1.0000
  C   C11       1.0  0.5974619637773486  0.2578673587840824  0.38296962032015364  1.0000
  C   C12       1.0  0.39899615747643935  0.7444848469591892  0.6169325291718195  1.0000
  C   C13       1.0  0.4559699860206764  0.3336475418152033  0.4529627176042084  1.0000
  C   C14       1.0  0.5397932017024731  0.6666005037070021  0.5476087835126648  1.0000
  C   C15       1.0  0.33018931418490644  0.4689461836628012  0.4215540813951365  1.0000
  C   C16       1.0  0.6634390895327726  0.5300439006032464  0.5797565541143755  1.0000
  C   C17       1.0  0.19763106912486722  0.5283861297686484  0.4974051729909236  1.0000
  C   C18       1.0  0.7950124083629718  0.4681634085389774  0.5044206289788633  1.0000
  C   C19       1.0  0.19032008568047587  0.45594944723625025  0.6028068294180287  1.0000
  C   C20       1.0  0.8041921655699938  0.5399546467830019  0.39885447961647474  1.0000
  C   C21       1.0  0.4410693643630097  0.26795974653086313  0.5611745355736701  1.0000
  C   C22       1.0  0.5565129181839623  0.7315438185225176  0.43928533825112476  1.0000
  C   C23       1.0  0.5600758008201865  0.130745387640431  0.5987459886990152  1.0000
  C   C24       1.0  0.4397808953522429  0.8697933906081089  0.40096734830438413  1.0000
  C   C25       1.0  0.5992999989432448  0.3304070263445737  0.8849430305470918  1.0000
  C   C26       1.0  0.402259080663427  0.669156078556071  0.11538779463599985  1.0000
  C   C27       1.0  0.7729949462783882  0.39399400342739443  0.8711760320216156  1.0000
  C   C28       1.0  0.2284159087182474  0.6060925834144655  0.12869969950916976  1.0000
  C   C29       1.0  0.9399647530081694  0.3019923570798611  0.8433209742159988  1.0000
  C   C30       1.0  0.06150579627121999  0.6971709058526585  0.1577912893314561  1.0000
  C   C31       1.0  0.09515008611270298  0.4927020749256954  0.8611797868038736  1.0000
  C   C32       1.0  0.9064043234164108  0.5075976593170708  0.13784793678190252  1.0000
  C   C33       1.0  0.9343898201024389  0.5928086564381162  0.8861212216200656  1.0000
  C   C34       1.0  0.06720986114403624  0.40841124860813227  0.11160385429585769  1.0000
  C   C35       1.0  0.770685277274275  0.5433082329379175  0.892967422224409  1.0000
  C   C36       1.0  0.23080580692353442  0.4578288501108929  0.10526797752358871  1.0000
  S   S1        1.0  0.9596530695267448  0.1214082104431711  0.796890350214845  1.0000
  S   S2        1.0  0.04205878243819683  0.8768032737051142  0.2051509515843435  1.0000
  N   N1        1.0  0.5294714908849586  0.0764123176023475  0.7049213941386299  1.0000
  N   N2        1.0  0.4721903389988995  0.9231802361904683  0.2947547647130975  1.0000
  N   N3        1.0  0.3103569910721405  0.32821232875467393  0.6363559953983824  1.0000
  N   N4        1.0  0.6870920010727631  0.6695682517421061  0.3646720770571151  1.0000
  N   N5        1.0  0.10095898753665009  0.34690637847420197  0.8393713767541939  1.0000
  N   N6        1.0  0.9005574853715219  0.6522763563486436  0.1614402614707943  1.0000
  O   O1        1.0  0.5239066552503147  0.35097275378967646  0.8036696100633737  1.0000
  O   O2        1.0  0.47760189253303764  0.6475452582299964  0.1967944434960458  1.0000
  O   O3        1.0  0.5455522660262915  0.26325470513562976  0.9765252477354454  1.0000
  O   O4        1.0  0.4562882709694023  0.7369279671737701  0.024018033952231083  1.0000
  O   O5        1.0  0.1594568339355718  0.061070548797943006  0.7868660993880141  1.0000
  O   O6        1.0  0.8421026706977273  0.9366171642221134  0.216119229069598  1.0000
  O   O7        1.0  0.8613116252079254  0.01369501289142511  0.8761215460646314  1.0000
  O   O8        1.0  0.13959718915310765  0.9850922318902988  0.12592253259853686  1.0000
  O   O9        1.0  0.9004351749230679  0.16704998633228738  0.6953481786361595  1.0000
  O   O10       1.0  0.10252970060651025  0.8306892307711066  0.3063462185305  1.0000
  O   O11       1.0  0.3701892402393626  0.0762403951832482  0.9290326893410994  1.0000
  O   O12       1.0  0.6330382934212155  0.9229662042182623  0.0719051135727327  1.0000
