data_image0
_chemical_formula_structural       Zn2H56C44N8O12
_chemical_formula_sum              "Zn2 H56 C44 N8 O12"
_cell_length_a       8.315387901496196
_cell_length_b       11.394210917507287
_cell_length_c       13.294649792543192
_cell_angle_alpha    98.94150273101114
_cell_angle_beta     105.57651553809816
_cell_angle_gamma    96.46172195386751

_space_group_name_H-M_alt    "P 1"
_space_group_IT_number       1

loop_
  _space_group_symop_operation_xyz
  'x, y, z'

loop_
  _atom_site_type_symbol
  _atom_site_label
  _atom_site_symmetry_multiplicity
  _atom_site_fract_x
  _atom_site_fract_y
  _atom_site_fract_z
  _atom_site_occupancy
  Zn  Zn1       1.0  0.4341980677753625  0.2927607767023019  0.29314835872965966  1.0000
  Zn  Zn2       1.0  0.5658019643479123  0.7072394070161964  0.7068513883129908  1.0000
  H   H1        1.0  0.17835470505845313  0.086500964557807  0.30401012388457355  1.0000
  H   H2        1.0  0.8216480278912569  0.9135001220303282  0.6959901967316069  1.0000
  H   H3        1.0  0.7464471217747429  0.3864882473467403  0.22017239608263128  1.0000
  H   H4        1.0  0.2535543624473321  0.6135128379788243  0.7798277140550595  1.0000
  H   H5        1.0  0.8739582647535257  0.09928215339154181  0.21890834380576504  1.0000
  H   H6        1.0  0.12604321890162143  0.9007189336970783  0.7810925186521656  1.0000
  H   H7        1.0  0.7608863575932148  0.07501287392107509  0.083153676739677  1.0000
  H   H8        1.0  0.23911637478957468  0.9249882144301157  0.9168473961967577  1.0000
  H   H9        1.0  0.8163679982648803  0.8792358533578477  0.11834156954049034  1.0000
  H   H10       1.0  0.18363598341247211  0.12076523449286472  0.8816589615541941  1.0000
  H   H11       1.0  0.7600682287845543  0.9020158894067837  0.2379624279765977  1.0000
  H   H12       1.0  0.2399345041651557  0.09798519718135879  0.7620378926395829  1.0000
  H   H13       1.0  0.5306269035912051  0.7629844875058251  0.0866840038227679  1.0000
  H   H14       1.0  0.4693768741480612  0.237015701763454  0.9133171269756274  1.0000
  H   H15       1.0  0.5135213053100641  0.8811588897305356  0.015589276804206475  1.0000
  H   H16       1.0  0.48648226962496466  0.1188403974312067  0.9844109490574052  1.0000
  H   H17       1.0  0.2909419894849562  0.8866794936549168  0.10477735858991365  1.0000
  H   H18       1.0  0.709061584883152  0.11331979526987371  0.8952236195919381  1.0000
  H   H19       1.0  0.42522351526628194  0.8639472069134156  0.22344027725344512  1.0000
  H   H20       1.0  0.5747817151387052  0.13605388219987452  0.7765604643197362  1.0000
  H   H21       1.0  0.7362583454928995  0.7342663494119533  0.31176120959084835  1.0000
  H   H22       1.0  0.2637452288752087  0.2657329395128443  0.6882397685910034  1.0000
  H   H23       1.0  0.6067428507495124  0.7036346666582816  0.39630475203524895  1.0000
  H   H24       1.0  0.39325863233872127  0.2963664221933938  0.6036968627429359  1.0000
  H   H25       1.0  0.5116904195017256  0.6991518146372399  0.2597700598104922  1.0000
  H   H26       1.0  0.48831231344798454  0.3008492719508951  0.7402302608056883  1.0000
  H   H27       1.0  0.11151159521400436  0.4159014896588004  0.5081260497226763  1.0000
  H   H28       1.0  0.8884911383026336  0.5840995951662863  0.49187351857325706  1.0000
  H   H29       1.0  0.0017585375476016827  0.2718543179021679  0.5119966522534438  1.0000
  H   H30       1.0  0.9982452407585923  0.728145869604056  0.488003726224697  1.0000
  H   H31       1.0  0.925696199029595  0.3458689184415888  0.40512333501647646  1.0000
  H   H32       1.0  0.07430528462555938  0.654132168647024  0.5948775274414542  1.0000
  H   H33       1.0  0.6311488315670317  0.4658813503059989  0.4966111266104391  1.0000
  H   H34       1.0  0.3688534940734343  0.5341179373562143  0.503389641092923  1.0000
  H   H35       1.0  0.8158203104557629  0.47184063160501216  0.6751377227842779  1.0000
  H   H36       1.0  0.18418285830386344  0.5281568531046972  0.32486144552400015  1.0000
  H   H37       1.0  0.7583626771869945  0.0829385246557095  0.5969608729237307  1.0000
  H   H38       1.0  0.24163819805544048  0.9170598561102778  0.40303727472384293  1.0000
  H   H39       1.0  0.5734262918827397  0.09413741251400151  0.4183376722524768  1.0000
  H   H40       1.0  0.4265722875748139  0.9058618713604929  0.5816624640153802  1.0000
  H   H41       1.0  0.05542622555220329  0.27735233703980094  0.7504462334836927  1.0000
  H   H42       1.0  0.9445771169440677  0.7226514523448557  0.24955529730235773  1.0000
  H   H43       1.0  0.8961346436668548  0.18413708805702106  0.7792570658165869  1.0000
  H   H44       1.0  0.10386997719157162  0.8158612982597476  0.2207424655867243  1.0000
  H   H45       1.0  0.9764292636168151  0.46110047979880153  0.8324305090962125  1.0000
  H   H46       1.0  0.0235616184029794  0.5388979014449121  0.16757046864486108  1.0000
  H   H47       1.0  0.8023653379562463  0.37785274201235103  0.8571663990111343  1.0000
  H   H48       1.0  0.19762473398043312  0.6221420272750892  0.14282945434229788  1.0000
  H   H49       1.0  0.8484840443850957  0.2860018391820206  0.016470595848325328  1.0000
  H   H50       1.0  0.1515084931046573  0.7139983440132482  0.9835308976043248  1.0000
  H   H51       1.0  0.04976371025106369  0.2508994703268356  0.17929844982894133  1.0000
  H   H52       1.0  0.9502311218897361  0.749099813286037  0.8207025596439194  1.0000
  H   H53       1.0  0.4633723845022288  0.3875950735796748  0.0914776405612301  1.0000
  H   H54       1.0  0.5366187031564138  0.6124042009563126  0.9085204805153849  1.0000
  H   H55       1.0  0.276622992108706  0.4261878351581956  0.9208282563573318  1.0000
  H   H56       1.0  0.7233680949830159  0.5738114411408475  0.0791706170395372  1.0000
  C   C1        1.0  0.46322402666697116  0.0413853938534672  0.19761507577229048  1.0000
  C   C2        1.0  0.5367785034785016  0.9586147906271308  0.8023843399071068  1.0000
  C   C3        1.0  0.615136122791121  0.11413277981856142  0.18989038809505832  1.0000
  C   C4        1.0  0.38486536199787463  0.8858683037439402  0.8101089697223781  1.0000
  C   C5        1.0  0.7531019994516229  0.055217134616945884  0.1605790776454015  1.0000
  C   C6        1.0  0.24690093686925246  0.9447848523156778  0.8394213955873224  1.0000
  C   C7        1.0  0.727894030527736  0.9193193145154978  0.15619487933984996  1.0000
  C   C8        1.0  0.2721087018550535  0.08068177383569258  0.8438061935965847  1.0000
  C   C9        1.0  0.5453886375873012  0.8615379207226754  0.09649875826104187  1.0000
  C   C10       1.0  0.45461409536240893  0.13846316586545976  0.9035015623551457  1.0000
  C   C11       1.0  0.4233874320960707  0.9083694592339239  0.15507123027254718  1.0000
  C   C12       1.0  0.57661530142056  0.0916316255911553  0.8449283380233862  1.0000
  C   C13       1.0  0.628251472500132  0.5460977148158791  0.29006770815728083  1.0000
  C   C14       1.0  0.3717498089176985  0.4539024684021413  0.7099314970436197  1.0000
  C   C15       1.0  0.6230818070898891  0.6795118367814652  0.31704509584199764  1.0000
  C   C16       1.0  0.3769219706493772  0.3204883524878142  0.6829560349563906  1.0000
  C   C17       1.0  0.14052248270036927  0.2656501466687616  0.3962191945880348  1.0000
  C   C18       1.0  0.8594798440739453  0.7343491374673476  0.603780068474819  1.0000
  C   C19       1.0  0.0407030799040413  0.3289791915982718  0.46101082799878396  1.0000
  C   C20       1.0  0.9592996530456688  0.6710218949898632  0.5389894926173964  1.0000
  C   C21       1.0  0.6632001751755255  0.3825834276081181  0.5210141611168451  1.0000
  C   C22       1.0  0.3368006994999818  0.6174149549209248  0.4789847388509754  1.0000
  C   C23       1.0  0.7682315139441656  0.38457650915274394  0.6223565864428833  1.0000
  C   C24       1.0  0.23177060889206302  0.6154218764019319  0.3776432763236811  1.0000
  C   C25       1.0  0.8075314125373791  0.2767341655173752  0.6526185174274842  1.0000
  C   C26       1.0  0.19247071086576983  0.723264218274245  0.3473805930188333  1.0000
  C   C27       1.0  0.7342951224259622  0.17008480989257177  0.577606693734708  1.0000
  C   C28       1.0  0.26570679760602184  0.8299126735545597  0.422392264095073  1.0000
  C   C29       1.0  0.631077415400661  0.1757794838334945  0.4778090634393449  1.0000
  C   C30       1.0  0.36892221054721125  0.8242188974329779  0.5221896260499789  1.0000
  C   C31       1.0  0.9266294976466513  0.2721882445773502  0.758834196173616  1.0000
  C   C32       1.0  0.07337157983310053  0.727811040059237  0.24116560873099493  1.0000
  C   C33       1.0  0.9307063610008653  0.37466859862570345  0.8501261882621589  1.0000
  C   C34       1.0  0.06928556807617528  0.6253288782469396  0.14987259038012718  1.0000
  C   C35       1.0  0.0460834640284062  0.35747476455080834  0.9531566183943452  1.0000
  C   C36       1.0  0.9539074191252368  0.6425236131668016  0.04684285470623446  1.0000
  C   C37       1.0  0.9839800730288389  0.30776885968403894  0.027813768075752494  1.0000
  C   C38       1.0  0.01601246446092117  0.6922313235112298  0.9721877253769049  1.0000
  C   C39       1.0  0.09623723765406568  0.2880907129895646  0.11985043543809579  1.0000
  C   C40       1.0  0.9037577984248132  0.7119094692047411  0.880149974331054  1.0000
  C   C41       1.0  0.3259171776967947  0.365023676291429  0.0707101545188564  1.0000
  C   C42       1.0  0.6740764068502045  0.6349756025327622  0.9292891398350062  1.0000
  C   C43       1.0  0.2223760886075894  0.38698759363857965  0.9767277178989385  1.0000
  C   C44       1.0  0.777617088063245  0.6130098880227449  0.023272775862352543  1.0000
  N   N1        1.0  0.3686453516241812  0.0971535156613044  0.24593460452918234  1.0000
  N   N2        1.0  0.6313561331648145  0.9028475679012044  0.7540647532882615  1.0000
  N   N3        1.0  0.6221453870121253  0.23033759656459543  0.2108286130467576  1.0000
  N   N4        1.0  0.37785484961614907  0.7696634839722806  0.7891697819719352  1.0000
  N   N5        1.0  0.5962307777322452  0.28039291178137654  0.4485894965367691  1.0000
  N   N6        1.0  0.4037688476487062  0.7196054712481512  0.5514099452728018  1.0000
  N   N7        1.0  0.2649770489985031  0.3158118609571757  0.14154310781473353  1.0000
  N   N8        1.0  0.7350167377858128  0.6841883217376149  0.8584578437961665  1.0000
  O   O1        1.0  0.2277634736856484  0.027960195414984002  0.2509792234504572  1.0000
  O   O2        1.0  0.7722378077321891  0.972039987803036  0.7490199817504432  1.0000
  O   O3        1.0  0.7659058536650177  0.29605745430389874  0.204644779312332  1.0000
  O   O4        1.0  0.23409292916369398  0.7039427299150844  0.7953555095720686  1.0000
  O   O5        1.0  0.5293599017918496  0.4765869763807374  0.3210315089967536  1.0000
  O   O6        1.0  0.47064013033142515  0.5234132073377609  0.6789682380458968  1.0000
  O   O7        1.0  0.7274986149293027  0.5129685895181026  0.23641830276946502  1.0000
  O   O8        1.0  0.2725026653546863  0.48703159722602163  0.7635824070719293  1.0000
  O   O9        1.0  0.2464976890014228  0.3307076186897717  0.36614429462515824  1.0000
  O   O10       1.0  0.7535066999851665  0.6692952680868629  0.6338557893823518  1.0000
  O   O11       1.0  0.1072198940758184  0.1505913731617383  0.3731989003451658  1.0000
  O   O12       1.0  0.8927853363291689  0.849409715951552  0.6268018412280154  1.0000
