data_image0
_chemical_formula_structural       K3Sc3H12C12O30
_chemical_formula_sum              "K3 Sc3 H12 C12 O30"
_cell_length_a       8.875543284050728
_cell_length_b       8.875615567078777
_cell_length_c       11.610680250060744
_cell_angle_alpha    90.00004021988101
_cell_angle_beta     89.99965941814732
_cell_angle_gamma    120.00074459366894

_space_group_name_H-M_alt    "P 1"
_space_group_IT_number       1

loop_
  _space_group_symop_operation_xyz
  'x, y, z'

loop_
  _atom_site_type_symbol
  _atom_site_label
  _atom_site_symmetry_multiplicity
  _atom_site_fract_x
  _atom_site_fract_y
  _atom_site_fract_z
  _atom_site_occupancy
  K   K1        1.0  4.363091221599998e-06  1.223282736999996e-07  0.33332327792636113  1.0000
  K   K2        1.0  0.9999998308735839  2.3086904835708997e-07  0.6666772709553541  1.0000
  K   K3        1.0  1.6011922455e-06  5.878270882999993e-07  0.9999913657048156  1.0000
  Sc  Sc1       1.0  0.5000007169166807  0.5000015673839684  0.3333334678203599  1.0000
  Sc  Sc2       1.0  0.9999953435666383  0.49999749713158786  0.6666624956893088  1.0000
  Sc  Sc3       1.0  0.49999408100378406  0.9999974186489808  6.8783780947e-06  1.0000
  H   H1        1.0  0.09912277658399657  0.34772529314045636  0.18378410291437314  1.0000
  H   H2        1.0  0.9008788090371456  0.6522797310861109  0.18378149454264295  1.0000
  H   H3        1.0  0.6523208613019733  0.9008744033780048  0.48286796302983953  1.0000
  H   H4        1.0  0.3476899573959074  0.09912857256868793  0.4828667210101186  1.0000
  H   H5        1.0  0.7513842673231181  0.6522714647833183  0.8162133418015785  1.0000
  H   H6        1.0  0.24862504370265992  0.3477397358328674  0.8162109619155302  1.0000
  H   H7        1.0  0.09911714642377945  0.7513973260143204  0.14952265232793852  1.0000
  H   H8        1.0  0.9008870254172476  0.2486100864210528  0.14952241205686082  1.0000
  H   H9        1.0  0.6522615818773404  0.7513832883664975  0.8504742915090232  1.0000
  H   H10       1.0  0.34774384191165114  0.24862682500133107  0.8504757129394918  1.0000
  H   H11       1.0  0.7514339877432832  0.09911338818107407  0.5171221910300333  1.0000
  H   H12       1.0  0.24857892587658625  0.900889278693029  0.5171244133122314  1.0000
  C   C1        1.0  0.210323360882704  0.42064361827981145  0.500009957270528  1.0000
  C   C2        1.0  0.789673724195474  0.5793548300349515  0.500009539698432  1.0000
  C   C3        1.0  0.5793516763642189  0.789668966929206  0.16666268187861993  1.0000
  C   C4        1.0  0.4206457430438989  0.21032919021156724  0.16666288903809348  1.0000
  C   C5        1.0  0.21031524793212242  0.7896743988767057  0.8333341950944303  1.0000
  C   C6        1.0  0.7896753933256521  0.2103169300401717  0.8333318577598731  1.0000
  C   C7        1.0  0.3099180668530367  0.6198263238440661  0.500008060800809  1.0000
  C   C8        1.0  0.6900819221558194  0.38017372739049893  0.5000054072300983  1.0000
  C   C9        1.0  0.38017553746314564  0.6900863527117668  0.16666741588890227  1.0000
  C   C10       1.0  0.6198204532909842  0.3099064728696491  0.1666650452374725  1.0000
  C   C11       1.0  0.30990955079570176  0.6900884783730278  0.8333322188042728  1.0000
  C   C12       1.0  0.6900815666730936  0.30990462772748373  0.8333329727734409  1.0000
  O   O1        1.0  0.26554925060749923  0.34564115224558384  0.4341644014096601  1.0000
  O   O2        1.0  0.7344573601266902  0.6543599362386275  0.43415996940645124  1.0000
  O   O3        1.0  0.6543684592881435  0.7344511622476946  0.23249412550526927  1.0000
  O   O4        1.0  0.34563170071603383  0.26555011593109873  0.2324955656025978  1.0000
  O   O5        1.0  0.9199082148310039  0.6543531944885005  0.565838308358721  1.0000
  O   O6        1.0  0.08008758027257565  0.34564564527326525  0.565838418602027  1.0000
  O   O7        1.0  0.26554160281368405  0.9199085122281119  0.8991709010572462  1.0000
  O   O8        1.0  0.7344517789815868  0.0800859377030676  0.8991713298519171  1.0000
  O   O9        1.0  0.6543670683586812  0.9199089629128994  0.10083608379207479  1.0000
  O   O10       1.0  0.3456263093988099  0.08008737413504012  0.10083828607647402  1.0000
  O   O11       1.0  0.9199158790255098  0.265552553258907  0.7675033911377795  1.0000
  O   O12       1.0  0.08008133715501492  0.7344488730336707  0.7675028478875418  1.0000
  O   O13       1.0  0.44935848982156307  0.6914627683121567  0.4419586222223301  1.0000
  O   O14       1.0  0.55064579179696  0.30853603611033276  0.4419531212677085  1.0000
  O   O15       1.0  0.30854223785658513  0.5506596629472826  0.22472443320074834  1.0000
  O   O16       1.0  0.6914559185363701  0.44933696475646234  0.22472008776419725  1.0000
  O   O17       1.0  0.7578728293806023  0.3085347534872938  0.5580431766140633  1.0000
  O   O18       1.0  0.24212369193742944  0.6914634664610377  0.558044455123671  1.0000
  O   O19       1.0  0.4493407119757508  0.7578846173339856  0.8913870875795878  1.0000
  O   O20       1.0  0.550649191023638  0.24210891079897595  0.8913901638434963  1.0000
  O   O21       1.0  0.30855271423079234  0.7578934313973847  0.1086244865642669  1.0000
  O   O22       1.0  0.691442237449202  0.2420967187023991  0.10862433682858348  1.0000
  O   O23       1.0  0.7578642119450834  0.449326374112502  0.7752862995537199  1.0000
  O   O24       1.0  0.2421255179467607  0.5506689118713695  0.7752797513249375  1.0000
  O   O25       1.0  8.495652856812013e-06  0.2319173552274165  0.1666414609241045  1.0000
  O   O26       1.0  0.9999943831849052  0.7680888631467654  0.16664190745932933  1.0000
  O   O27       1.0  0.768136705569191  0.999996823741647  0.49999850460943657  1.0000
  O   O28       1.0  0.2318781515958648  6.3867269730847724e-06  0.50000032169676  1.0000
  O   O29       1.0  0.7680738474057167  0.7680785901693102  0.8333441139034361  1.0000
  O   O30       1.0  0.231933519999572  0.23193206682184817  0.8333434708173613  1.0000
