data_image0
_chemical_formula_structural       Al6H34C72O28F4
_chemical_formula_sum              "Al6 H34 C72 O28 F4"
_cell_length_a       12.17582061542572
_cell_length_b       12.204510756736758
_cell_length_c       27.03297212257386
_cell_angle_alpha    82.42688244799427
_cell_angle_beta     90.89090100612337
_cell_angle_gamma    61.71245387945866

_space_group_name_H-M_alt    "P 1"
_space_group_IT_number       1

loop_
  _space_group_symop_operation_xyz
  'x, y, z'

loop_
  _atom_site_type_symbol
  _atom_site_label
  _atom_site_symmetry_multiplicity
  _atom_site_fract_x
  _atom_site_fract_y
  _atom_site_fract_z
  _atom_site_occupancy
  Al  Al1       1.0  0.4117283801715317  0.18945496653047667  0.4897986994489615  1.0000
  Al  Al2       1.0  0.4090655908106126  0.9251860282216174  0.4995425245852303  1.0000
  Al  Al3       1.0  0.6582702180314612  0.9189894318179557  0.5034484234648957  1.0000
  Al  Al4       1.0  0.9137481670662951  0.16147809422455592  0.016566887447076798  1.0000
  Al  Al5       1.0  0.6578306899761799  0.42315402978813677  0.003148266965794696  1.0000
  Al  Al6       1.0  0.8992447308189851  0.43454828712369686  0.002506968471635686  1.0000
  H   H1        1.0  0.4795033443004257  0.6854361303411097  0.20722898979026644  1.0000
  H   H2        1.0  0.7841060675108834  0.39865486877221923  0.6174269178036482  1.0000
  H   H3        1.0  0.9503975406645253  0.17917627869179853  0.6492408267255599  1.0000
  H   H4        1.0  0.8465286654651153  0.2413778902012141  0.6954312403191454  1.0000
  H   H5        1.0  0.012309810605550699  0.6077390375283614  0.26511317691853986  1.0000
  H   H6        1.0  0.038137916446267045  0.45209929156660444  0.285143586083116  1.0000
  H   H7        1.0  0.10892629772823871  0.48372897714139657  0.23243582087810216  1.0000
  H   H8        1.0  0.9289050052778407  0.46196016244163485  0.2022962688239645  1.0000
  H   H9        1.0  0.9008917996965876  0.6158161908331437  0.18362260318221504  1.0000
  H   H10       1.0  0.4035531182940843  0.25460770096096763  0.6581734018351071  1.0000
  H   H11       1.0  0.33408240586683746  0.3493140743414643  0.7053445582629153  1.0000
  H   H12       1.0  0.8577126613425178  0.5939585417190756  0.313764533369607  1.0000
  H   H13       1.0  0.30516696115369507  0.41921084502741485  0.6409579304101742  1.0000
  H   H14       1.0  0.46108224661464453  0.4612602704266068  0.6850450250023244  1.0000
  H   H15       1.0  0.5292822720084801  0.36644852272410594  0.6381185375466958  1.0000
  H   H16       1.0  0.0304531355280915  0.0007883612239326002  0.8029757709756496  1.0000
  H   H17       1.0  0.9503007485748683  0.09551526417185843  0.8487690973595577  1.0000
  H   H18       1.0  0.049907154489296786  0.9318020451534258  0.8670814381583511  1.0000
  H   H19       1.0  0.8262822391927994  0.9813480898941905  0.8634977794986299  1.0000
  H   H20       1.0  0.9043599523485994  0.8844073742542663  0.8188259811017602  1.0000
  H   H21       1.0  0.8112518689954552  0.8160957356882007  0.7578276077128976  1.0000
  H   H22       1.0  0.7471693813997858  0.8815312378896183  0.6948962413118949  1.0000
  H   H23       1.0  0.4162628557054972  0.9036829337059662  0.3188772065555198  1.0000
  H   H24       1.0  0.9040633903226122  0.7577041916774478  0.707484805014545  1.0000
  H   H25       1.0  0.8998149611917722  0.9643960254915671  0.6828079936721493  1.0000
  H   H26       1.0  0.9652211824158667  0.9007469871397618  0.7452179366632097  1.0000
  H   H27       1.0  0.3441000645996013  0.9187402391114999  0.25892827392678447  1.0000
  H   H28       1.0  0.2687409580262212  0.9079303346269398  0.31389372309579505  1.0000
  H   H29       1.0  0.3668957845680367  0.7012512587580347  0.2817383702969849  1.0000
  H   H30       1.0  0.4375375320127969  0.6870993147477906  0.3417167908464407  1.0000
  H   H31       1.0  0.8280429537371176  0.4552092372602134  0.667415350898125  1.0000
  H   H32       1.0  0.9328124144110889  0.3930091029000381  0.6208855630562554  1.0000
  H   H33       1.0  0.29977416112896543  0.39889806391389027  0.4499086439809049  1.0000
  H   H34       1.0  0.04203491431203333  0.9558450925553288  0.05786002873208669  1.0000
  C   C1        1.0  0.27247794162134653  0.1128471393862966  0.4189089971263372  1.0000
  C   C2        1.0  0.6672597657089412  0.19897069536256853  0.18041551867684552  1.0000
  C   C3        1.0  0.6601847617790496  0.18122188652596796  0.22993295413942155  1.0000
  C   C4        1.0  0.6084676562748895  0.7645736739683289  0.446866402264611  1.0000
  C   C5        1.0  0.6576879214169722  0.1643046123110992  0.27581177668220397  1.0000
  C   C6        1.0  0.6530410221637409  0.14429800045192565  0.3254281004464659  1.0000
  C   C7        1.0  0.64762955672866  0.12437842360523634  0.37075725458371533  1.0000
  C   C8        1.0  0.10257404135068525  0.2333783369119829  0.13169161003257562  1.0000
  C   C9        1.0  0.12464745333530657  0.2184946880497236  0.17723161098160742  1.0000
  C   C10       1.0  0.1460795902085792  0.20298793564784753  0.22704974980880624  1.0000
  C   C11       1.0  0.1639152532721582  0.18866360367098886  0.27303677030782586  1.0000
  C   C12       1.0  0.7876353394897463  0.5966591043058074  0.23979367314196054  1.0000
  C   C13       1.0  0.18903756139553707  0.16878795733074983  0.3228028067119056  1.0000
  C   C14       1.0  0.21686393370825385  0.14590056683762506  0.3681809582298285  1.0000
  C   C15       1.0  0.6752571563878786  0.6316328836429294  0.8740019120490959  1.0000
  C   C16       1.0  0.6220646529607023  0.0993309819553616  0.42144085857083285  1.0000
  C   C17       1.0  0.6619954826002966  0.652311472523465  0.8280103961215062  1.0000
  C   C18       1.0  0.6486839606133472  0.6729458641571641  0.7777483484059219  1.0000
  C   C19       1.0  0.6379495672882525  0.6902154013584153  0.7314838084643683  1.0000
  C   C20       1.0  0.6260027061917056  0.7129839511258212  0.6812229537460726  1.0000
  C   C21       1.0  0.6148493894377295  0.7359552508228334  0.6352489838715202  1.0000
  C   C22       1.0  0.6773716569571632  0.1174497810186423  0.6077929486256224  1.0000
  C   C23       1.0  0.7759766676670591  0.6133499179754126  0.289706869441723  1.0000
  C   C24       1.0  0.5901508164417918  0.2690924159367612  0.7130581763568246  1.0000
  C   C25       1.0  0.5900234542711402  0.28188697013551695  0.7631981999876489  1.0000
  C   C26       1.0  0.775165037021459  0.0758408248554687  0.7877700574021277  1.0000
  C   C27       1.0  0.7800897099847147  0.059489143118760524  0.7373978204675852  1.0000
  C   C28       1.0  0.26879687679491576  0.10006803958411584  0.5591384870861944  1.0000
  C   C29       1.0  0.686865956533623  0.15470272362485102  0.7009984431196871  1.0000
  C   C30       1.0  0.6782186221728638  0.18916816359810443  0.8007964349747143  1.0000
  C   C31       1.0  0.6706269853822703  0.210433709082757  0.8508521763908875  1.0000
  C   C32       1.0  0.6858201707274674  0.13432606438247063  0.650854817189675  1.0000
  C   C33       1.0  0.6686389726018546  0.22622632088341993  0.8944791672912376  1.0000
  C   C34       1.0  0.6598694455706633  0.6560295906531338  0.31070326376496393  1.0000
  C   C35       1.0  0.2106198909704062  0.1200581802400933  0.6054322304780656  1.0000
  C   C36       1.0  0.2524441033009808  0.1347678194204462  0.7317508746769407  1.0000
  C   C37       1.0  0.23171215654814148  0.1615950436766838  0.7800793425266052  1.0000
  C   C38       1.0  0.01133525145771588  0.2467931590006529  0.7592636066697908  1.0000
  C   C39       1.0  0.027929284554900794  0.22017581201305347  0.7106540507820895  1.0000
  C   C40       1.0  0.5946771040976554  0.7840830844337393  0.5825494862186105  1.0000
  C   C41       1.0  0.15231893462725304  0.16396572970808174  0.6965781135944341  1.0000
  C   C42       1.0  0.10973649227005916  0.21823657636728205  0.7954154654292509  1.0000
  C   C43       1.0  0.08824519840381123  0.2389027289814863  0.8452755903412311  1.0000
  C   C44       1.0  0.17977074062086018  0.13888204678247723  0.6474252980455547  1.0000
  C   C45       1.0  0.6771215285528812  0.6258250161677736  0.20979136425991385  1.0000
  C   C46       1.0  0.06881127319662987  0.2513938368503901  0.8887257884806277  1.0000
  C   C47       1.0  0.70711185923993  0.23763743122972164  0.0851327864328724  1.0000
  C   C48       1.0  0.7065964670364832  0.5647925941478109  0.0658379951677404  1.0000
  C   C49       1.0  0.051599045728366384  0.25597010345965293  0.08077346357297438  1.0000
  C   C50       1.0  0.6903279844176707  0.24877945845402397  0.9432548613342819  1.0000
  C   C51       1.0  0.7032804987463946  0.5809675208711484  0.9264683252719053  1.0000
  C   C52       1.0  0.6388187594215539  0.09514156647724549  0.5616639163255499  1.0000
  C   C53       1.0  0.02780456978493358  0.2631029410204349  0.9384199179665844  1.0000
  C   C54       1.0  0.6378207703026106  0.7052954303230196  0.4032049238752294  1.0000
  C   C55       1.0  0.5507156937930375  0.6807573646343955  0.28118457656489687  1.0000
  C   C56       1.0  0.682369085222909  0.6143757203015668  0.1583627519939199  1.0000
  C   C57       1.0  0.5620112139030268  0.6654276756648799  0.23106949886390285  1.0000
  C   C58       1.0  0.4255684054415596  0.7295877333671613  0.3022127663548062  1.0000
  C   C59       1.0  0.3596601242230048  0.8734982698958904  0.29817578845276677  1.0000
  C   C60       1.0  0.918923942384076  0.25026698195480895  0.6743853741362288  1.0000
  C   C61       1.0  0.8629173235778322  0.38227563995651803  0.6432089624747094  1.0000
  C   C62       1.0  0.9112763950734716  0.5482983088756941  0.21711117060011287  1.0000
  C   C63       1.0  0.023425093872745512  0.5218241838406357  0.2520225622783769  1.0000
  C   C64       1.0  0.49024891162479634  0.36802964868913796  0.6745471306936327  1.0000
  C   C65       1.0  0.3762394661201112  0.3465256688202914  0.6695593823074333  1.0000
  C   C66       1.0  0.8709181095564417  0.9791402181443805  0.8283671590486181  1.0000
  C   C67       1.0  0.6508794899970523  0.6790200632394773  0.3608348282651974  1.0000
  C   C68       1.0  0.9821582290877586  0.0030631309773526036  0.8371804368675485  1.0000
  C   C69       1.0  0.8779899773114226  0.940840403340403  0.7207601663680948  1.0000
  C   C70       1.0  0.8327157728315414  0.8430151962356902  0.7203013772111504  1.0000
  C   C71       1.0  0.6881512346767379  0.6036095882906737  0.11406029838045129  1.0000
  C   C72       1.0  0.6769021887529333  0.21504985916840275  0.1352784665865059  1.0000
  O   O1        1.0  0.5230450467101804  0.1827281952319809  0.43577637619613807  1.0000
  O   O2        1.0  0.8062504335683939  0.5506952051223166  0.0458748393349211  1.0000
  O   O3        1.0  0.023714981184561168  0.3642538244463722  0.05527057806691001  1.0000
  O   O4        1.0  0.29668412667677296  0.1916900122452604  0.4355216339253119  1.0000
  O   O5        1.0  0.002305939409602301  0.1796316806159268  0.9585680339653495  1.0000
  O   O6        1.0  0.7894761198447282  0.16670094154454773  0.9694252285040295  1.0000
  O   O7        1.0  0.6094840288711083  0.35441971798255173  0.9560194000543876  1.0000
  O   O8        1.0  0.6245442581886561  0.5544523081829598  0.947984632123543  1.0000
  O   O9        1.0  0.8087547773240759  0.5599205213871273  0.9466177422273321  1.0000
  O   O10       1.0  0.01614136830926324  0.35959872532769316  0.9570527686403026  1.0000
  O   O11       1.0  0.823289812128358  0.3418509686713734  0.007560483308175493  1.0000
  O   O12       1.0  0.49134761981489544  0.8074828296758487  0.5597257590396012  1.0000
  O   O13       1.0  0.2971776271764525  0.0032418672654515013  0.44185759897120397  1.0000
  O   O14       1.0  0.499337723443318  0.7964458790933409  0.46193530120056187  1.0000
  O   O15       1.0  0.6900569821925587  0.7878008275171385  0.4667938161731656  1.0000
  O   O16       1.0  0.7002734549171946  0.9916624800018853  0.4468066490721086  1.0000
  O   O17       1.0  0.5300580705171003  0.17445108995736552  0.5421201743784537  1.0000
  O   O18       1.0  0.30808051155525357  0.17550613981556756  0.5428511088540376  1.0000
  O   O19       1.0  0.2803857418625099  0.004682486618541802  0.5394200230761685  1.0000
  O   O20       1.0  0.6795850580459302  0.8049670014076042  0.5634554852916054  1.0000
  O   O21       1.0  0.715277614728741  0.9939288124942113  0.54466288533596  1.0000
  O   O22       1.0  0.493430277575797  0.009439383334395802  0.49695747532578605  1.0000
  O   O23       1.0  0.032951210751029684  0.17158501372342272  0.06636446361890341  1.0000
  O   O24       1.0  0.8170401174692897  0.1648491679587281  0.0754362014449868  1.0000
  O   O25       1.0  0.6214970731200112  0.332612819732475  0.0554102228809938  1.0000
  O   O26       1.0  0.6245269985536906  0.5404947778675153  0.047013437521314885  1.0000
  O   O27       1.0  0.33527260231940653  0.35386359283596397  0.4832544004108146  1.0000
  O   O28       1.0  0.9982927389526848  0.9971220150812389  0.025136417258643476  1.0000
  F   F1        1.0  0.3299131836945293  0.13149947995030686  0.8128948953015823  1.0000
  F   F2        1.0  0.8931207006559205  0.3023183895362395  0.7737890957458263  1.0000
  F   F3        1.0  0.49966530497538747  0.3892353829480869  0.7772867328636367  1.0000
  F   F4        1.0  0.3713476818708728  0.0785356122257284  0.7187691439983583  1.0000
