data_image0
_chemical_formula_structural       Ho2H20C12O16
_chemical_formula_sum              "Ho2 H20 C12 O16"
_cell_length_a       6.626296615563544
_cell_length_b       9.397158444171316
_cell_length_c       10.259203904276156
_cell_angle_alpha    80.90059065995841
_cell_angle_beta     89.08106653352954
_cell_angle_gamma    69.37376886669581

_space_group_name_H-M_alt    "P 1"
_space_group_IT_number       1

loop_
  _space_group_symop_operation_xyz
  'x, y, z'

loop_
  _atom_site_type_symbol
  _atom_site_label
  _atom_site_symmetry_multiplicity
  _atom_site_fract_x
  _atom_site_fract_y
  _atom_site_fract_z
  _atom_site_occupancy
  Ho  Ho1       1.0  0.3834957403253442  0.615960967234649  0.8209863829785604  1.0000
  Ho  Ho2       1.0  0.6165055895439195  0.38403680927153533  0.17901400123680836  1.0000
  H   H1        1.0  0.8597232798112417  0.5618069435367731  0.7643016899847409  1.0000
  H   H2        1.0  0.14027525299376717  0.4381965587039788  0.23569586906722148  1.0000
  H   H3        1.0  0.8347314870535599  0.44439354844686113  0.8870110315614708  1.0000
  H   H4        1.0  0.16527178432270515  0.5556064709961533  0.1129860644363561  1.0000
  H   H5        1.0  0.5267018849678564  0.8210256037440687  0.6336814796774276  1.0000
  H   H6        1.0  0.4733021769946576  0.1789757248744692  0.3663241802132191  1.0000
  H   H7        1.0  0.47651905195253613  0.716391883163013  0.5423482274683378  1.0000
  H   H8        1.0  0.5234843076725681  0.2836139970016235  0.4576538015583082  1.0000
  H   H9        1.0  0.8124039370453602  0.6957013621214616  0.15427524834225176  1.0000
  H   H10       1.0  0.1876053929922961  0.3042894170494534  0.8457222750499934  1.0000
  H   H11       1.0  0.5896147357053536  0.8684472265958051  0.14554261021819304  1.0000
  H   H12       1.0  0.41039354636426856  0.13154251155258834  0.8544609321406395  1.0000
  H   H13       1.0  0.9105826705388863  0.9315208356560947  0.08094117203432918  1.0000
  H   H14       1.0  0.0894167178233758  0.06847469791325271  0.9190625003985744  1.0000
  H   H15       1.0  0.7333725371945121  0.9846767454049896  0.9417462764072866  1.0000
  H   H16       1.0  0.26662774470671746  0.015319990078673101  0.058260126774669595  1.0000
  H   H17       1.0  0.16835928841976514  0.33638728051403183  0.5344715964927289  1.0000
  H   H18       1.0  0.8316331134245658  0.6636163271668354  0.4655308621779639  1.0000
  H   H19       1.0  0.20695974197592187  0.48927184602746376  0.4247910603086922  1.0000
  H   H20       1.0  0.7930321793859677  0.5107328245667305  0.5752063612524339  1.0000
  C   C1        1.0  0.5873024988906009  0.7375658085937078  0.9951862938583316  1.0000
  C   C2        1.0  0.4127051151591772  0.26242844534704807  0.00481167325524719  1.0000
  C   C3        1.0  0.7081470327062859  0.7950305301499798  0.08517185620326725  1.0000
  C   C4        1.0  0.29186054702591957  0.20496375954451204  0.9148280552915649  1.0000
  C   C5        1.0  0.837016779874709  0.8849191312160161  0.010451350809766785  1.0000
  C   C6        1.0  0.1629886708130854  0.11507636842068794  0.9895513107669203  1.0000
  C   C7        1.0  0.014646189091450866  0.7898922713742497  0.9327925808309131  1.0000
  C   C8        1.0  0.9853524969333948  0.210107813741196  0.0672074607379969  1.0000
  C   C9        1.0  0.21096100848220795  0.5120114285829019  0.624690413020815  1.0000
  C   C10       1.0  0.7890322366339646  0.4879966908763792  0.37530646073822277  1.0000
  C   C11       1.0  0.12136903291172979  0.4626708972540358  0.5127140385522962  1.0000
  C   C12       1.0  0.8786258938747551  0.5373337831891264  0.48728433586666137  1.0000
  O   O1        1.0  0.7624554725388392  0.5069138895297699  0.8002373390090155  1.0000
  O   O2        1.0  0.23754745441603825  0.4930837935781299  0.19975817458681883  1.0000
  O   O3        1.0  0.4261507324329088  0.7704839753818291  0.617221591516106  1.0000
  O   O4        1.0  0.573853742586131  0.22951961806434448  0.3827817620140266  1.0000
  O   O5        1.0  0.5258432396187801  0.6235647758218832  0.041943232712263495  1.0000
  O   O6        1.0  0.4741545700258881  0.37643408950237517  0.9580531059169598  1.0000
  O   O7        1.0  0.5430661107007778  0.7990741246795069  0.8754935755530224  1.0000
  O   O8        1.0  0.45693824175185693  0.20092364379878805  0.12450678932954419  1.0000
  O   O9        1.0  0.09216308266405095  0.641792801979811  0.9663213463932079  1.0000
  O   O10       1.0  0.9078325636186337  0.35820730904038817  0.03367968669912358  1.0000
  O   O11       1.0  0.09453124185451853  0.853179893532641  0.8376223146900159  1.0000
  O   O12       1.0  0.9054665506313597  0.1468189896684819  0.16237499612983436  1.0000
  O   O13       1.0  0.0855006900394456  0.6044902905889631  0.6959325990446102  1.0000
  O   O14       1.0  0.9144955605013152  0.3955178387193002  0.30406522757225923  1.0000
  O   O15       1.0  0.41469346054000056  0.46236893287274955  0.6471384187446814  1.0000
  O   O16       1.0  0.585302032522847  0.5376345952727634  0.3528601318307025  1.0000
