data_image0
_chemical_formula_structural       Sm2H46C54O20
_chemical_formula_sum              "Sm2 H46 C54 O20"
_cell_length_a       7.777768377211945
_cell_length_b       12.944186638050647
_cell_length_c       13.676021642289342
_cell_angle_alpha    97.66678573467308
_cell_angle_beta     97.39721470100211
_cell_angle_gamma    103.55808834551001

_space_group_name_H-M_alt    "P 1"
_space_group_IT_number       1

loop_
  _space_group_symop_operation_xyz
  'x, y, z'

loop_
  _atom_site_type_symbol
  _atom_site_label
  _atom_site_symmetry_multiplicity
  _atom_site_fract_x
  _atom_site_fract_y
  _atom_site_fract_z
  _atom_site_occupancy
  Sm  Sm1       1.0  0.2313711935913361  0.4623525447668939  0.4816144280416098  1.0000
  Sm  Sm2       1.0  0.7686345265018703  0.5376480930221064  0.5183861811933426  1.0000
  H   H1        1.0  0.9434608364568787  0.3194471511682338  0.5715534066601081  1.0000
  H   H2        1.0  0.05654418460625977  0.6805518595542921  0.4284418312107762  1.0000
  H   H3        1.0  0.12515071057622862  0.3252438980938735  0.6420702936117735  1.0000
  H   H4        1.0  0.8748487897368379  0.6747543107840247  0.35792736840043204  1.0000
  H   H5        1.0  0.40829809712658266  0.5280041254910373  0.24445476088414614  1.0000
  H   H6        1.0  0.5917033903990755  0.47199570319172324  0.7555454403409243  1.0000
  H   H7        1.0  0.09701741476341401  0.17032706486375562  0.3769485902230798  1.0000
  H   H8        1.0  0.9029801070452733  0.8296695323776504  0.6230494590616474  1.0000
  H   H9        1.0  0.34399019151294397  0.08682683253615409  0.7766216883952949  1.0000
  H   H10       1.0  0.6560017497402698  0.9131657484342811  0.22338203744240562  1.0000
  H   H11       1.0  0.16442756220134658  0.6162186679848817  0.236799977946788  1.0000
  H   H12       1.0  0.8355791770467391  0.383784382835529  0.7631988114460739  1.0000
  H   H13       1.0  0.9404829889966565  0.6600179190658865  0.11215899291178034  1.0000
  H   H14       1.0  0.05952394423430017  0.339979482740489  0.8878369152342034  1.0000
  H   H15       1.0  0.9848111801249287  0.6575387915361546  0.9358323102610201  1.0000
  H   H16       1.0  0.015189200138756626  0.3424553831416049  0.06416345214027791  1.0000
  H   H17       1.0  0.49137477491558457  0.5798378695126019  0.010836193712478308  1.0000
  H   H18       1.0  0.5086431689845057  0.42017325469168304  0.9891658750013905  1.0000
  H   H19       1.0  0.39356365243902763  0.5789084717839046  0.8450795250041525  1.0000
  H   H20       1.0  0.6064594018021693  0.4210994252843818  0.15492032048734933  1.0000
  H   H21       1.0  0.022247356822326547  0.6153214857954128  0.7796592623315206  1.0000
  H   H22       1.0  0.9777711207789253  0.3846847937386359  0.22033931852143243  1.0000
  H   H23       1.0  0.8475815679758583  0.2322300854672292  0.33742164093515475  1.0000
  H   H24       1.0  0.1524165647558106  0.7677648978670604  0.6625755210477777  1.0000
  H   H25       1.0  0.5160184869177726  0.19236992449693702  0.3179977299155041  1.0000
  H   H26       1.0  0.48397904359912763  0.8076266809128615  0.6820032458546096  1.0000
  H   H27       1.0  0.33792129858251485  0.015497002872145104  0.3475438792811333  1.0000
  H   H28       1.0  0.662072414129902  0.9845028264962323  0.652457950802841  1.0000
  H   H29       1.0  0.8335553872055922  0.9215318511282006  0.41725617334142123  1.0000
  H   H30       1.0  0.16643625671830617  0.07846312358800842  0.5827390537278703  1.0000
  H   H31       1.0  0.3211713552759079  0.8399615076594458  0.3869241847092653  1.0000
  H   H32       1.0  0.6788233233171539  0.16003752644029134  0.6130812728083228  1.0000
  H   H33       1.0  0.6797588808627567  0.7827474875853755  0.44711454313220866  1.0000
  H   H34       1.0  0.3202377457559464  0.21725312956150597  0.5528802844139875  1.0000
  H   H35       1.0  0.30583030356218904  0.9291787257785987  0.8462246838958478  1.0000
  H   H36       1.0  0.694154198241975  0.0708146561370668  0.1537786009440367  1.0000
  H   H37       1.0  0.2295836030479563  0.8478117930791811  0.9949428772313098  1.0000
  H   H38       1.0  0.7703954508738562  0.1521840136707837  0.005063969066320269  1.0000
  H   H39       1.0  0.18359760824525748  0.9615233629952017  0.14591379706898522  1.0000
  H   H40       1.0  0.8163910778790253  0.0384829303985867  0.8540950516605224  1.0000
  H   H41       1.0  0.2942856609399769  0.23972927616124912  0.9976272874099764  1.0000
  H   H42       1.0  0.7057133013178215  0.7602737733026926  0.002372399220448052  1.0000
  H   H43       1.0  0.16873026518668877  0.12719344102630006  0.23146620138459892  1.0000
  H   H44       1.0  0.8312674730480933  0.8728128342097817  0.7685345282280664  1.0000
  H   H45       1.0  0.3154410061695286  0.33276108426775153  0.145178318120017  1.0000
  H   H46       1.0  0.6845612401915914  0.6672435859078333  0.8548240020574623  1.0000
  C   C1        1.0  0.34234319685322845  0.595015678337106  0.1312670320905838  1.0000
  C   C2        1.0  0.6576570535870943  0.40498736386522444  0.8687298223886373  1.0000
  C   C3        1.0  0.18658445852144467  0.6182481149138965  0.15987179395298773  1.0000
  C   C4        1.0  0.8134213877137169  0.381758957854082  0.8401245053226988  1.0000
  C   C5        1.0  0.06132757386568955  0.6423294414017705  0.0892790851867531  1.0000
  C   C6        1.0  0.938676492202063  0.35767037479987357  0.9107161833572591  1.0000
  C   C7        1.0  0.0861668118914665  0.6415061051749618  0.9902748063190216  1.0000
  C   C8        1.0  0.9138342499858609  0.3584896802324947  0.009720474475564294  1.0000
  C   C9        1.0  0.2414846662513738  0.6173941708910818  0.9604867900384093  1.0000
  C   C10       1.0  0.7585265702377909  0.3826072646583541  0.03950993181253179  1.0000
  C   C11       1.0  0.3702917899832343  0.5978552859949957  0.032604438637669396  1.0000
  C   C12       1.0  0.62971685707857  0.4021461518250789  0.9673935577875881  1.0000
  C   C13       1.0  0.26975483984659837  0.6010334721208467  0.8572498884174706  1.0000
  C   C14       1.0  0.7302591383365138  0.3989744206420838  0.14275002835605477  1.0000
  C   C15       1.0  0.1526350261829208  0.6000955732230794  0.77471594524215  1.0000
  C   C16       1.0  0.847374913415514  0.3999058614195832  0.225280682274601  1.0000
  C   C17       1.0  0.18819667329453438  0.5675424723017812  0.6744767778686624  1.0000
  C   C18       1.0  0.8118158644394738  0.4324589682386204  0.3255215015591659  1.0000
  C   C19       1.0  0.8602822552803956  0.07807738519959881  0.37794406316783125  1.0000
  C   C20       1.0  0.13971424519635184  0.9219167969683043  0.622055074337638  1.0000
  C   C21       1.0  0.7700145768404738  0.1550623114360619  0.35023882354408903  1.0000
  C   C22       1.0  0.22998164807748378  0.8449342848985711  0.649759131406448  1.0000
  C   C23       1.0  0.5836247459087859  0.13183610590532172  0.33909219329763834  1.0000
  C   C24       1.0  0.41636923583126156  0.8681613031700409  0.66090862447723  1.0000
  C   C25       1.0  0.48357884525874084  0.0326216062226976  0.3545345754218516  1.0000
  C   C26       1.0  0.5164158268031612  0.9673774217507546  0.6454686872316913  1.0000
  C   C27       1.0  0.572102808531085  0.9551383291451998  0.3826630586849192  1.0000
  C   C28       1.0  0.4278964314625567  0.04486230819410512  0.617338542121786  1.0000
  C   C29       1.0  0.7608576316823843  0.9789057678217292  0.39414452963297464  1.0000
  C   C30       1.0  0.2391382556943284  0.021090026211197706  0.6058547635529408  1.0000
  C   C31       1.0  0.4668651193407671  0.852398061103955  0.3998604837009907  1.0000
  C   C32       1.0  0.5331298173946662  0.1475985424922825  0.6001403034007495  1.0000
  C   C33       1.0  0.535520009339578  0.7734944083788874  0.4311374120486278  1.0000
  C   C34       1.0  0.46447430558760777  0.22650379891399555  0.5688606042481723  1.0000
  C   C35       1.0  0.4268408372906265  0.6718964728039583  0.4482303616368881  1.0000
  C   C36       1.0  0.5731599620902302  0.32810173902280587  0.5517681263308489  1.0000
  C   C37       1.0  0.30178184159484545  0.08979366550661183  0.9137002561272852  1.0000
  C   C38       1.0  0.6982163020220894  0.910201328038163  0.08630056396238932  1.0000
  C   C39       1.0  0.2850103874262686  0.9790178561185741  0.912416015970777  1.0000
  C   C40       1.0  0.7149823061312545  0.02097956021840021  0.0875876339552875  1.0000
  C   C41       1.0  0.2426771271432173  0.9336525095867146  0.9959765423114889  1.0000
  C   C42       1.0  0.7573065806403748  0.06634814546059431  0.004034169183810795  1.0000
  C   C43       1.0  0.21736950761044938  0.9971694863587359  0.08075433892366143  1.0000
  C   C44       1.0  0.7826284594400404  0.002831172536844  0.9192552153836786  1.0000
  C   C45       1.0  0.23818776469344974  0.10867891224962992  0.0834400968263012  1.0000
  C   C46       1.0  0.7618069758820595  0.891323338318557  0.9165628399009762  1.0000
  C   C47       1.0  0.2799885156278634  0.15419519985354674  0.9989770013999577  1.0000
  C   C48       1.0  0.7200006313298675  0.8458030221910848  0.0010272221522101212  1.0000
  C   C49       1.0  0.21924883803971798  0.1730112152888665  0.17487936457753517  1.0000
  C   C50       1.0  0.7807439903679736  0.8269926441954637  0.8251229018746573  1.0000
  C   C51       1.0  0.2622229433726275  0.2820011010119217  0.19739778425597623  1.0000
  C   C52       1.0  0.7377741219567183  0.718003571662841  0.8026063534487947  1.0000
  C   C53       1.0  0.24525773168174686  0.34017655072920433  0.2930986687003526  1.0000
  C   C54       1.0  0.7547460805977406  0.6598257000601321  0.7069027335022043  1.0000
  O   O1        1.0  0.06256724490376799  0.556896416566083  0.5975470208020042  1.0000
  O   O2        1.0  0.9374408706339282  0.4431098679663137  0.4024551951055244  1.0000
  O   O3        1.0  0.0729346601859646  0.32111171658026905  0.5726075200748967  1.0000
  O   O4        1.0  0.9270703674083338  0.6788873002685423  0.4273899126600327  1.0000
  O   O5        1.0  0.33369292928562544  0.5452123230577187  0.6585728447785472  1.0000
  O   O6        1.0  0.6663193198272735  0.4547915193968421  0.3414198623662585  1.0000
  O   O7        1.0  0.467846554485753  0.5682037931959415  0.19507164496872062  1.0000
  O   O8        1.0  0.5321565718259791  0.4317968427795052  0.8049287755978582  1.0000
  O   O9        1.0  0.5084119477612814  0.6010838431387597  0.47522813876842224  1.0000
  O   O10       1.0  0.49159013544798574  0.39891435734221403  0.524766053805422  1.0000
  O   O11       1.0  0.255381480611561  0.6470312035979263  0.4379195215448703  1.0000
  O   O12       1.0  0.7446199384004828  0.35296540249010644  0.5620810056064657  1.0000
  O   O13       1.0  0.04100920384158261  0.09571592223502993  0.3889697565836414  1.0000
  O   O14       1.0  0.9589860682580422  0.9042814816208208  0.6110289606613721  1.0000
  O   O15       1.0  0.1899857687144362  0.291764862085479  0.3641700744148437  1.0000
  O   O16       1.0  0.8100146974792821  0.7082325515237785  0.6358312150309758  1.0000
  O   O17       1.0  0.28384036372021637  0.44394941903778584  0.3080815348868029  1.0000
  O   O18       1.0  0.7161689029727824  0.5560504130435504  0.6919185007220534  1.0000
  O   O19       1.0  0.3396186231854728  0.13949071611430952  0.8341768177428364  1.0000
  O   O20       1.0  0.6603804819580077  0.8605034780776252  0.16582616653774807  1.0000
