data_image0
_chemical_formula_structural       Cd8H132C112N20O44
_chemical_formula_sum              "Cd8 H132 C112 N20 O44"
_cell_length_a       14.384591818522429
_cell_length_b       14.477440957525005
_cell_length_c       22.659284668244318
_cell_angle_alpha    102.31630759754337
_cell_angle_beta     89.99937139912753
_cell_angle_gamma    90.0008679769819

_space_group_name_H-M_alt    "P 1"
_space_group_IT_number       1

loop_
  _space_group_symop_operation_xyz
  'x, y, z'

loop_
  _atom_site_type_symbol
  _atom_site_label
  _atom_site_symmetry_multiplicity
  _atom_site_fract_x
  _atom_site_fract_y
  _atom_site_fract_z
  _atom_site_occupancy
  Cd  Cd1       1.0  0.24321491012234733  0.7432877800718387  0.7616344533740503  1.0000
  Cd  Cd2       1.0  0.3732931420081301  0.8112125202599213  0.6426279559349198  1.0000
  Cd  Cd3       1.0  0.743208889441192  0.25669473503116075  0.7383598516544937  1.0000
  Cd  Cd4       1.0  0.8732840249757318  0.1887796401545216  0.8573715212172316  1.0000
  Cd  Cd5       1.0  0.75678258963017  0.2566927433636579  0.2383646980085601  1.0000
  Cd  Cd6       1.0  0.6267168712407953  0.18878715453507053  0.3573757908710675  1.0000
  Cd  Cd7       1.0  0.25678096332850237  0.7432847539030757  0.2616281358348331  1.0000
  Cd  Cd8       1.0  0.12671486535148094  0.8112327322026687  0.1426329264271189  1.0000
  H   H1        1.0  0.5109441255985204  0.5057105912652559  0.7483835669787952  1.0000
  H   H2        1.0  0.6230347391226162  0.37882866307865726  0.5738055744262313  1.0000
  H   H3        1.0  0.42142822843045025  0.6031480065474851  0.590449688630784  1.0000
  H   H4        1.0  0.6336472870794553  0.12350044548513488  0.9335737923214112  1.0000
  H   H5        1.0  0.5094172818247529  0.03495915090758219  0.7578834615626563  1.0000
  H   H6        1.0  0.40562493747879813  0.9251444482171249  0.9070957459059487  1.0000
  H   H7        1.0  0.2847065145385415  0.5589138808277807  0.5194417482774938  1.0000
  H   H8        1.0  0.16601452782222034  0.5974338702144663  0.5196283366259493  1.0000
  H   H9        1.0  0.23592788137261078  0.6277444810640131  0.586292248208089  1.0000
  H   H10       1.0  0.3180968113844997  0.8626552122125585  0.5006143244539913  1.0000
  H   H11       1.0  0.20436719115737398  0.8862122250811736  0.47453439809016373  1.0000
  H   H12       1.0  0.28770007789072594  0.823146928247894  0.4221823081180958  1.0000
  H   H13       1.0  0.16288656099140306  0.6296653254880765  0.42367767627457203  1.0000
  H   H14       1.0  0.13622081192082902  0.742014826328301  0.4099094363255844  1.0000
  H   H15       1.0  0.08591686212722754  0.7071311651989801  0.4738231474489042  1.0000
  H   H16       1.0  0.5117074883015961  0.72588790517684  0.5358487427299677  1.0000
  H   H17       1.0  0.6312185124653882  0.692663819086661  0.5281294441567752  1.0000
  H   H18       1.0  0.5952594716215958  0.8045522397709062  0.5156327750495677  1.0000
  H   H19       1.0  0.7445537011465291  0.8052453689248646  0.5439879183063923  1.0000
  H   H20       1.0  0.8199395372177279  0.827057746394047  0.6077292521953127  1.0000
  H   H21       1.0  0.7617427686175094  0.9231110555383635  0.5863234316367781  1.0000
  H   H22       1.0  0.6416639572024394  0.8495922993916665  0.7198303775969066  1.0000
  H   H23       1.0  0.6780538864294103  0.9577637165019154  0.7007976063771864  1.0000
  H   H24       1.0  0.7622842695208336  0.8692415335587922  0.7053971484626231  1.0000
  H   H25       1.0  0.2774590035492466  0.11276200463815657  0.6268854929323525  1.0000
  H   H26       1.0  0.30735687624014224  0.09139311185062131  0.6989173476693581  1.0000
  H   H27       1.0  0.25852176900983187  0.9989798341404564  0.6428837288513166  1.0000
  H   H28       1.0  0.5686913159790451  0.9806875552610631  0.6079446440415666  1.0000
  H   H29       1.0  0.615546872507352  0.09435010249153208  0.642807580710155  1.0000
  H   H30       1.0  0.575591416265759  0.0722230918885529  0.5663005565693241  1.0000
  H   H31       1.0  0.5067752940074755  0.20704250855447975  0.7004936394193494  1.0000
  H   H32       1.0  0.3907979775009239  0.20820997371274064  0.6722230027760006  1.0000
  H   H33       1.0  0.48690970980801757  0.23087283140019105  0.6276259566007739  1.0000
  H   H34       1.0  0.010957629508745001  0.4942737778955075  0.7516121101850005  1.0000
  H   H35       1.0  0.1230270089200474  0.6211636858000346  0.9261947483426951  1.0000
  H   H36       1.0  0.9214102728021561  0.3968539686705339  0.9095502432962661  1.0000
  H   H37       1.0  0.13366775784993482  0.8765063916055522  0.5664353273042338  1.0000
  H   H38       1.0  0.009424254406603402  0.9650460250489414  0.7421258558711443  1.0000
  H   H39       1.0  0.9056547954286247  0.07485963486598728  0.5929111773448171  1.0000
  H   H40       1.0  0.7847060840892298  0.44107932998351623  0.9805619945194481  1.0000
  H   H41       1.0  0.6660079493574218  0.4025711181822017  0.9803750352726511  1.0000
  H   H42       1.0  0.7359199051815397  0.37226769183961034  0.913708012260756  1.0000
  H   H43       1.0  0.8180851480640712  0.13734391305605698  0.9993837489915695  1.0000
  H   H44       1.0  0.7043570991892312  0.11378025921629838  0.025465075953434304  1.0000
  H   H45       1.0  0.7876872663396457  0.17685579849283062  0.0778161100368209  1.0000
  H   H46       1.0  0.6628829945624588  0.37033077126545777  0.07631988249346482  1.0000
  H   H47       1.0  0.6362090305833448  0.25798305038605207  0.09008896751943503  1.0000
  H   H48       1.0  0.5859060240983069  0.29286821727880846  0.026177552470521403  1.0000
  H   H49       1.0  0.011698654378086802  0.2741099308892885  0.9641494916435462  1.0000
  H   H50       1.0  0.1312072731716327  0.30733628298133187  0.9718673758600858  1.0000
  H   H51       1.0  0.09524491274150652  0.19544961073228956  0.9843680391793227  1.0000
  H   H52       1.0  0.2445514399680989  0.19476735016120725  0.9560030821804376  1.0000
  H   H53       1.0  0.3199338723349072  0.172955867858704  0.8922578152037772  1.0000
  H   H54       1.0  0.26173873898702743  0.07690186534757966  0.9136665941296442  1.0000
  H   H55       1.0  0.14166336022903894  0.1504331924492561  0.7801629168005777  1.0000
  H   H56       1.0  0.17805199944649533  0.04225572579444759  0.7991889474901798  1.0000
  H   H57       1.0  0.26228103674661446  0.13078769206608598  0.7945962312661763  1.0000
  H   H58       1.0  0.7774568334253048  0.8872359402568293  0.8731149170980148  1.0000
  H   H59       1.0  0.8073472405000361  0.9086038158373665  0.8010827318421079  1.0000
  H   H60       1.0  0.7585202091079423  0.0010164588940995028  0.8571170455708171  1.0000
  H   H61       1.0  0.06869303493554921  0.019318629021185498  0.8920480637025039  1.0000
  H   H62       1.0  0.11554538594840841  0.9056567033200265  0.8571848853517495  1.0000
  H   H63       1.0  0.07559172731943423  0.9277874907105212  0.9336948596936382  1.0000
  H   H64       1.0  0.006773773706328301  0.7929581289621904  0.79950630210476  1.0000
  H   H65       1.0  0.8907951292345333  0.7917931662816072  0.8277825797896982  1.0000
  H   H66       1.0  0.9869106103154409  0.7691371992972333  0.8723785063766272  1.0000
  H   H67       1.0  0.48903599455429264  0.4942840172454835  0.2516155755169081  1.0000
  H   H68       1.0  0.3769759693276102  0.6211753054127627  0.42620047345518236  1.0000
  H   H69       1.0  0.5785776137547745  0.3968536054206595  0.4095481202422917  1.0000
  H   H70       1.0  0.36634743192438896  0.8764894639153552  0.0664331505932552  1.0000
  H   H71       1.0  0.4905600575188629  0.9650414401958826  0.2421274619693179  1.0000
  H   H72       1.0  0.5943676959415287  0.0748426336491761  0.09291084437632692  1.0000
  H   H73       1.0  0.7152902901195973  0.44108150018779907  0.48055969748534016  1.0000
  H   H74       1.0  0.8339857528770197  0.40257200920295594  0.4803708872784044  1.0000
  H   H75       1.0  0.7640723992986909  0.3722600501073288  0.41370901452809505  1.0000
  H   H76       1.0  0.6819159826614509  0.13734358538415134  0.4993835747935337  1.0000
  H   H77       1.0  0.7956449076863167  0.11378445187066429  0.5254632366808281  1.0000
  H   H78       1.0  0.7123141065485898  0.17685325691257953  0.577814881384441  1.0000
  H   H79       1.0  0.8371185860483693  0.3703375823102705  0.5763163216479015  1.0000
  H   H80       1.0  0.8637898966002172  0.2579888932095642  0.5900881939831281  1.0000
  H   H81       1.0  0.91409593196898  0.2928717950613588  0.5261726225744141  1.0000
  H   H82       1.0  0.4882920970948917  0.2741046352340105  0.464151907357774  1.0000
  H   H83       1.0  0.3687838537029578  0.30732865582854163  0.4718689907730821  1.0000
  H   H84       1.0  0.40474219935840244  0.19544312817412648  0.4843682276705721  1.0000
  H   H85       1.0  0.25544588438119586  0.19475900500804494  0.4560080280698742  1.0000
  H   H86       1.0  0.18006004831560324  0.17294516136740865  0.39226474574150677  1.0000
  H   H87       1.0  0.23825542652707554  0.07689406457386377  0.4136739319929461  1.0000
  H   H88       1.0  0.358341189892137  0.15042415705373458  0.2801692826262467  1.0000
  H   H89       1.0  0.321954041457616  0.042245369796219685  0.29919098255110305  1.0000
  H   H90       1.0  0.23772296314710673  0.1307698306088128  0.29459702130748877  1.0000
  H   H91       1.0  0.7225405818481292  0.8872341487900425  0.3731182561334521  1.0000
  H   H92       1.0  0.6926559177797105  0.9086057774658156  0.3010836527891598  1.0000
  H   H93       1.0  0.7414805971286216  0.0010185316661833006  0.3571233858966423  1.0000
  H   H94       1.0  0.4313089647621524  0.01931600697381699  0.3920476699323316  1.0000
  H   H95       1.0  0.3844485419017261  0.9056542321052559  0.3571870365864456  1.0000
  H   H96       1.0  0.42441025485758394  0.9277847902529996  0.43369494453849455  1.0000
  H   H97       1.0  0.49322151066280645  0.7929506601011055  0.2995044406541609  1.0000
  H   H98       1.0  0.6091988272112092  0.791789556863648  0.32777587073248077  1.0000
  H   H99       1.0  0.5130884853244241  0.7691345010720312  0.372374772718274  1.0000
  H   H100      1.0  0.9890565548059346  0.5057080414854694  0.24838323020217962  1.0000
  H   H101      1.0  0.8769753570733559  0.3788091537064914  0.0738065344844898  1.0000
  H   H102      1.0  0.07857054257718943  0.6031383357650881  0.09044243229732983  1.0000
  H   H103      1.0  0.8663492073405763  0.12350681877978789  0.43357363875436056  1.0000
  H   H104      1.0  0.9905697694070884  0.03494244438112299  0.257880024666143  1.0000
  H   H105      1.0  0.09436286493809122  0.9251528948495177  0.40709858661283255  1.0000
  H   H106      1.0  0.21529211097062276  0.5589210254075495  0.019440954416175802  1.0000
  H   H107      1.0  0.3339853794494303  0.597436240463388  0.019626580119229704  1.0000
  H   H108      1.0  0.2640741188359854  0.6277395881936768  0.08629094494848738  1.0000
  H   H109      1.0  0.18192069411920644  0.8626649380496119  0.0006207008677776775  1.0000
  H   H110      1.0  0.29565152367282377  0.8862201748608384  0.9745405311361497  1.0000
  H   H111      1.0  0.21231927105984036  0.823157293897985  0.92218886877739  1.0000
  H   H112      1.0  0.33710963899191176  0.6296674110371753  0.9236810298576048  1.0000
  H   H113      1.0  0.36378499334766456  0.7420122388913555  0.9099093770395684  1.0000
  H   H114      1.0  0.414090780585923  0.7071270720170446  0.9738207920813124  1.0000
  H   H115      1.0  0.9882946744399493  0.7258973884478407  0.035850794657911016  1.0000
  H   H116      1.0  0.8687867508551932  0.6926724108121359  0.028131757668042198  1.0000
  H   H117      1.0  0.9047518920348454  0.8045562031479887  0.015628969583289614  1.0000
  H   H118      1.0  0.7554495360079018  0.8052432808791821  0.04399011338608718  1.0000
  H   H119      1.0  0.68006084698267  0.8270568051635363  0.1077329866763534  1.0000
  H   H120      1.0  0.7382601514398888  0.9231094332506016  0.08632536051127461  1.0000
  H   H121      1.0  0.8583334446710965  0.8495844811587148  0.21983027431084418  1.0000
  H   H122      1.0  0.8219468909896864  0.957759879598363  0.2008057512581018  1.0000
  H   H123      1.0  0.7377164633213059  0.8692315001292242  0.20540068040347853  1.0000
  H   H124      1.0  0.2225420569364119  0.11277414112345237  0.1268835066761582  1.0000
  H   H125      1.0  0.19266138245324532  0.09140352980684699  0.1989184404801847  1.0000
  H   H126      1.0  0.2414870235283361  0.9989935701302384  0.14287960606126401  1.0000
  H   H127      1.0  0.9313121120809316  0.9806836374111608  0.1079480612112391  1.0000
  H   H128      1.0  0.8844569802999802  0.09434272247069939  0.1428104439012543  1.0000
  H   H129      1.0  0.9244134196784091  0.07221484123591179  0.06630348037082  1.0000
  H   H130      1.0  0.9932244214056639  0.20704493602386254  0.20049301219734872  1.0000
  H   H131      1.0  0.10920376107038271  0.20821349862359284  0.1722193904585438  1.0000
  H   H132      1.0  0.013089670372615105  0.2308687194286491  0.12762204661815696  1.0000
  C   C1        1.0  0.6311840430051776  0.3703728126975605  0.691760156243305  1.0000
  C   C2        1.0  0.4496939837035755  0.9752634292448972  0.828864817443062  1.0000
  C   C3        1.0  0.45904105053347183  0.5613740888750697  0.673381601060143  1.0000
  C   C4        1.0  0.5228561667463723  0.4906946693741431  0.5753533151836407  1.0000
  C   C5        1.0  0.514238313916934  0.5013727729048085  0.6998455987739902  1.0000
  C   C6        1.0  0.5778177617893476  0.4306879961485848  0.6017552915183018  1.0000
  C   C7        1.0  0.4634483475319089  0.5564255861565498  0.611315040663385  1.0000
  C   C8        1.0  0.5190753814079515  0.025330783618414898  0.9278242060052123  1.0000
  C   C9        1.0  0.5815317377917995  0.0823885066847652  0.9044143954774172  1.0000
  C   C10       1.0  0.573203992620151  0.43566473809746487  0.6639908980125427  1.0000
  C   C11       1.0  0.5118215114910144  0.0331163744629706  0.8056377891927655  1.0000
  C   C12       1.0  0.45314851394462624  0.9713455837901817  0.8897063963377507  1.0000
  C   C13       1.0  0.3815855683051981  0.9132859404093165  0.788062528642122  1.0000
  C   C14       1.0  0.5781363010363308  0.08636272588091028  0.8433357551114113  1.0000
  C   C15       1.0  0.39252004955684333  0.6277450488292258  0.7116500174206949  1.0000
  C   C16       1.0  0.6483537629391806  0.14529569975336898  0.818892544479084  1.0000
  C   C17       1.0  0.23592266487256106  0.616964773021408  0.5368056635551852  1.0000
  C   C18       1.0  0.27389674842834216  0.7052084150734996  0.5209268447233413  1.0000
  C   C19       1.0  0.2622913314080081  0.8354124277591308  0.468833367418867  1.0000
  C   C20       1.0  0.14871899693659432  0.7033339794820462  0.4457184140250946  1.0000
  C   C21       1.0  0.5960059051683474  0.794024896902414  0.6097686385746216  1.0000
  C   C22       1.0  0.5830547991780933  0.7519976506641372  0.5433417698333045  1.0000
  C   C23       1.0  0.7545629616589624  0.8484756956755177  0.5893235406887812  1.0000
  C   C24       1.0  0.6902998066591622  0.8809589840707869  0.6925703201202538  1.0000
  C   C25       1.0  0.3054042692317296  0.059790886286563684  0.6504316819623669  1.0000
  C   C26       1.0  0.563399393972091  0.056938782188865375  0.6112079739250618  1.0000
  C   C27       1.0  0.40041351414703297  0.026099209088364692  0.6269554602206355  1.0000
  C   C28       1.0  0.4627874676136586  0.18921521808693595  0.6599731530075418  1.0000
  C   C29       1.0  0.13119794552760314  0.6296028234360163  0.808242881939023  1.0000
  C   C30       1.0  0.9497064283396243  0.02473834527509669  0.6711393107470798  1.0000
  C   C31       1.0  0.9590383760426208  0.4386235682552736  0.8266219499982839  1.0000
  C   C32       1.0  0.022837712927405107  0.5092970050086335  0.92464584039314  1.0000
  C   C33       1.0  0.014246179213671403  0.4986139308936827  0.8001560852824384  1.0000
  C   C34       1.0  0.07781041560524221  0.5693038315351442  0.8982479226687942  1.0000
  C   C35       1.0  0.9634342485223332  0.4435700480300893  0.8886895523028784  1.0000
  C   C36       1.0  0.019101427187678204  0.9746765363994213  0.5721817817981432  1.0000
  C   C37       1.0  0.08155233424491123  0.9176139605496301  0.5955896788416695  1.0000
  C   C38       1.0  0.07320876857949801  0.5643206141317946  0.8360097743864899  1.0000
  C   C39       1.0  0.011829337432793404  0.9668830473230158  0.6943663802603695  1.0000
  C   C40       1.0  0.9531731928794402  0.028659064156521193  0.6102980666394444  1.0000
  C   C41       1.0  0.8815975617062294  0.0867085294034098  0.7119398283407464  1.0000
  C   C42       1.0  0.07814535341120891  0.9136390679724256  0.6566709067732006  1.0000
  C   C43       1.0  0.8925107633094457  0.3722502858738749  0.7883528144043838  1.0000
  C   C44       1.0  0.1483635761195359  0.8547034911566054  0.6811133144104957  1.0000
  C   C45       1.0  0.7359146937462953  0.38303404770827126  0.9631955800919982  1.0000
  C   C46       1.0  0.7738815902612687  0.2947857253327867  0.97906561140573  1.0000
  C   C47       1.0  0.762279138087898  0.16458501377174878  0.031164564681802197  1.0000
  C   C48       1.0  0.6487112073827108  0.29666334306740777  0.05427939415188379  1.0000
  C   C49       1.0  0.09599521971733083  0.20598383578671073  0.8902264079363106  1.0000
  C   C50       1.0  0.08304430456625063  0.2480018387108345  0.9566561846800924  1.0000
  C   C51       1.0  0.2545601266970224  0.1515385830450597  0.9106680275187671  1.0000
  C   C52       1.0  0.19030034392925194  0.11905851314936906  0.8074163491257451  1.0000
  C   C53       1.0  0.8054033170760635  0.9402066831288347  0.8495671666676616  1.0000
  C   C54       1.0  0.06339862943842432  0.9430680518611607  0.8887852923118089  1.0000
  C   C55       1.0  0.900413367461191  0.9739010082081094  0.8730421885890252  1.0000
  C   C56       1.0  0.9627874793165535  0.8107880913878062  0.8400293118741472  1.0000
  C   C57       1.0  0.3688002481768963  0.6296163635480453  0.3082458124785248  1.0000
  C   C58       1.0  0.5503007353086816  0.02472428089841119  0.1711392028124123  1.0000
  C   C59       1.0  0.5409515830544012  0.4386268685366516  0.3266178918081266  1.0000
  C   C60       1.0  0.4771538465127777  0.5093071391639369  0.4246511391308162  1.0000
  C   C61       1.0  0.48574528217086776  0.49862258181752833  0.30015496096262245  1.0000
  C   C62       1.0  0.4221866899307758  0.5693117572264298  0.39825111348287834  1.0000
  C   C63       1.0  0.5365533235132319  0.44357678507528675  0.3886846285004637  1.0000
  C   C64       1.0  0.4809165568315309  0.9746562720376417  0.07218149821856203  1.0000
  C   C65       1.0  0.4184615908289758  0.9175963628261526  0.09558882911374407  1.0000
  C   C66       1.0  0.4267858601186277  0.5643286008486468  0.3360129414707417  1.0000
  C   C67       1.0  0.48816973157783394  0.9668727887259221  0.19436773648099154  1.0000
  C   C68       1.0  0.5468413387578722  0.028642820098127686  0.11029726905957922  1.0000
  C   C69       1.0  0.6184084555969492  0.08670728063909647  0.2119373235591198  1.0000
  C   C70       1.0  0.4218549420548429  0.9136292517255169  0.1566696801699692  1.0000
  C   C71       1.0  0.6074788408206971  0.3722657001226891  0.28834716542249333  1.0000
  C   C72       1.0  0.3516374801250207  0.8546927565554298  0.18111289303523387  1.0000
  C   C73       1.0  0.7640797013794869  0.3830404257354019  0.4631943582446354  1.0000
  C   C74       1.0  0.7261125696863433  0.29478962320879276  0.4790691942531353  1.0000
  C   C75       1.0  0.7377228530043284  0.16458423610372105  0.531163824316593  1.0000
  C   C76       1.0  0.8512889308396442  0.2966675407801986  0.5542762936316095  1.0000
  C   C77       1.0  0.4039971562133929  0.2059725523836562  0.3902312995298233  1.0000
  C   C78       1.0  0.416946871790728  0.24799775658935627  0.4566605619772589  1.0000
  C   C79       1.0  0.24543731905799157  0.1515293982449037  0.4106729368752795  1.0000
  C   C80       1.0  0.3097039500272843  0.11904456508433006  0.3074215508145386  1.0000
  C   C81       1.0  0.6945967065785654  0.9402073091742194  0.34956967339732614  1.0000
  C   C82       1.0  0.4365988011911597  0.9430633793748271  0.3887846067654763  1.0000
  C   C83       1.0  0.5995853761244379  0.973898894638857  0.3730427939334433  1.0000
  C   C84       1.0  0.537210032294233  0.8107842862884238  0.3400248344388714  1.0000
  C   C85       1.0  0.8688099819796594  0.3703728829362091  0.1917600826020163  1.0000
  C   C86       1.0  0.0503035849241797  0.9752641701430702  0.3288652317268159  1.0000
  C   C87       1.0  0.040959818984738716  0.5613660529062725  0.1733752462442837  1.0000
  C   C88       1.0  0.9771528349551278  0.49068202600366817  0.0753504765076585  1.0000
  C   C89       1.0  0.9857568820769131  0.5013708207564207  0.1998431520123347  1.0000
  C   C90       1.0  0.9221870841239835  0.430676050534359  0.1017533557050854  1.0000
  C   C91       1.0  0.03655351865998571  0.556418198610565  0.11130879673812899  1.0000
  C   C92       1.0  0.9809183188072413  0.02534155665090049  0.4278255862186597  1.0000
  C   C93       1.0  0.918464630985639  0.082401278756258  0.4044164504842556  1.0000
  C   C94       1.0  0.9267956830365026  0.4356592548809956  0.1639910609393098  1.0000
  C   C95       1.0  0.9881758095007671  0.03311878738842469  0.3056389601269203  1.0000
  C   C96       1.0  0.046843077133061704  0.9713504938984057  0.38970647135245434  1.0000
  C   C97       1.0  0.11840549966618143  0.9132903991569276  0.28806250123329846  1.0000
  C   C98       1.0  0.9218646598907159  0.08636982246936496  0.3433348721658191  1.0000
  C   C99       1.0  0.10747839428575653  0.627742895833805  0.21164570871899002  1.0000
  C   C100      1.0  0.8516429612158024  0.14529753186141647  0.318888393572621  1.0000
  C   C101      1.0  0.2640793301939795  0.6169655483637653  0.03680550857436768  1.0000
  C   C102      1.0  0.22611451931374665  0.7052186878855192  0.020931664069934162  1.0000
  C   C103      1.0  0.23772739925950503  0.8354195829551826  0.9688389131889539  1.0000
  C   C104      1.0  0.3512835117412224  0.7033355461291536  0.9457216063532529  1.0000
  C   C105      1.0  0.9040008899376988  0.7940304213415671  0.10977032965097779  1.0000
  C   C106      1.0  0.9169504146461095  0.7520046951385165  0.04334135527748369  1.0000
  C   C107      1.0  0.7454408492854797  0.8484741948412234  0.08932631858636603  1.0000
  C   C108      1.0  0.8096971561554586  0.8809591735660333  0.19257728501402485  1.0000
  C   C109      1.0  0.19459974438753858  0.059802050033027895  0.15043329592757712  1.0000
  C   C110      1.0  0.9366037368173893  0.05693424075838039  0.11121171866939512  1.0000
  C   C111      1.0  0.09959038917116202  0.026107070489551597  0.1269599579655463  1.0000
  C   C112      1.0  0.03721349654773581  0.18921425363377856  0.1599694712312072  1.0000
  N   N1        1.0  0.5327158032691699  0.4817790355302306  0.5123580781747705  1.0000
  N   N2        1.0  0.5294421875464081  0.025122906078784996  0.9898024663884399  1.0000
  N   N3        1.0  0.2288359940305115  0.7461780687837346  0.48126490040849745  1.0000
  N   N4        1.0  0.6777372697513969  0.836654415353358  0.6288918214824406  1.0000
  N   N5        1.0  0.47102560471088156  0.08856826439708239  0.633228165882116  1.0000
  N   N6        1.0  0.03269431203617051  0.5182246424534398  0.9876376519307969  1.0000
  N   N7        1.0  0.029467221879947703  0.974889552022489  0.5102058571801108  1.0000
  N   N8        1.0  0.728821905953453  0.25381816964986104  0.0187313439864454  1.0000
  N   N9        1.0  0.17773043313599152  0.16335533603402297  0.8711005882809533  1.0000
  N   N10       1.0  0.9710260002707118  0.9114342902472357  0.8667688519834514  1.0000
  N   N11       1.0  0.4672956004103528  0.5182247888347928  0.48764309637328296  1.0000
  N   N12       1.0  0.47054627478313915  0.9748712707663783  0.010205891559294883  1.0000
  N   N13       1.0  0.7711768000275401  0.25382140948742915  0.5187322009381745  1.0000
  N   N14       1.0  0.3222650965053689  0.16334570421464178  0.3711031528998632  1.0000
  N   N15       1.0  0.5289732856258028  0.9114310565480466  0.36676361913870886  1.0000
  N   N16       1.0  0.9672899791702181  0.481757216037728  0.012359017623907703  1.0000
  N   N17       1.0  0.970553914475751  0.025127873465422095  0.48980275176409555  1.0000
  N   N18       1.0  0.2711776795314194  0.7461849084482278  0.9812684133422209  1.0000
  N   N19       1.0  0.822264286136857  0.836657494222038  0.12889552996088582  1.0000
  N   N20       1.0  0.02897636596646441  0.08856806788639907  0.1332303741484608  1.0000
  O   O1        1.0  0.3825503046336891  0.9172581196615255  0.7325337324121223  1.0000
  O   O2        1.0  0.34328677251036055  0.6822599219544118  0.6842744318053351  1.0000
  O   O3        1.0  0.3499601412437984  0.7394307029640286  0.5443503653927806  1.0000
  O   O4        1.0  0.6342230032977058  0.38228784677912836  0.7489626796759552  1.0000
  O   O5        1.0  0.6385862052788484  0.15336844509176467  0.764328505780135  1.0000
  O   O6        1.0  0.6754068566722041  0.3040834637458899  0.6561609636072135  1.0000
  O   O7        1.0  0.38125265848194095  0.6274456070539356  0.7662747507532971  1.0000
  O   O8        1.0  0.71228047400502  0.18269930270992774  0.8548958394240105  1.0000
  O   O9        1.0  0.5328595035534462  0.7892816865363624  0.6475045963543948  1.0000
  O   O10       1.0  0.32945278855899574  0.8624369527374113  0.8134657700474152  1.0000
  O   O11       1.0  0.41339990685726496  0.9407179237903659  0.6009537237350174  1.0000
  O   O12       1.0  0.8825557162073283  0.08273426847038927  0.767469241193382  1.0000
  O   O13       1.0  0.8432733977313448  0.3177347858355829  0.8157295400457657  1.0000
  O   O14       1.0  0.8499420830482978  0.26056444642279075  0.9556416983934142  1.0000
  O   O15       1.0  0.13425439622994162  0.6176750273244948  0.7510360977348753  1.0000
  O   O16       1.0  0.138592866458545  0.8466299486565986  0.7356786444315946  1.0000
  O   O17       1.0  0.17540516991107327  0.6959039117584778  0.8438379406944778  1.0000
  O   O18       1.0  0.881225550621011  0.3725538062439425  0.7337282251637377  1.0000
  O   O19       1.0  0.21229242217251001  0.8173056319672366  0.6451085347086973  1.0000
  O   O20       1.0  0.032851628306467304  0.21072482096419515  0.8524914856125891  1.0000
  O   O21       1.0  0.8294632187064225  0.1375519166585377  0.6865375678252407  1.0000
  O   O22       1.0  0.9134006002123275  0.05928240026531028  0.8990416429353305  1.0000
  O   O23       1.0  0.61744371924231  0.0827409791755187  0.2674743565770825  1.0000
  O   O24       1.0  0.6567155937649716  0.31774591816839143  0.31572346300321646  1.0000
  O   O25       1.0  0.6500505672074511  0.26056530640695286  0.4556485103127771  1.0000
  O   O26       1.0  0.36575016477941363  0.617687911773821  0.2510420570753027  1.0000
  O   O27       1.0  0.3614050378095258  0.8466242656003897  0.23567790372096914  1.0000
  O   O28       1.0  0.3245885576065248  0.6959126503461942  0.3438414563789252  1.0000
  O   O29       1.0  0.6187552692895013  0.3725667784660158  0.2337301398978866  1.0000
  O   O30       1.0  0.28770242689256526  0.8173003981108804  0.1451087935121862  1.0000
  O   O31       1.0  0.4671484240868652  0.2107101863581845  0.3524972946428235  1.0000
  O   O32       1.0  0.6705335882196907  0.1375506656308474  0.1865351490185887  1.0000
  O   O33       1.0  0.5866038496866964  0.05927961722004939  0.3990493155786368  1.0000
  O   O34       1.0  0.11744247885160061  0.9172653669377693  0.232533176552657  1.0000
  O   O35       1.0  0.15671436949381257  0.6822547566398851  0.1842649980428419  1.0000
  O   O36       1.0  0.15005194095619603  0.7394414329531357  0.0443575255270829  1.0000
  O   O37       1.0  0.8657639590544692  0.3822928903330904  0.248965453995261  1.0000
  O   O38       1.0  0.8613983765908203  0.15335277399458383  0.2643234296263302  1.0000
  O   O39       1.0  0.8245902443183796  0.3040829735839948  0.15616200412848974  1.0000
  O   O40       1.0  0.11875109366845044  0.6274492061878972  0.2662693170733874  1.0000
  O   O41       1.0  0.787711334417914  0.18270187087851747  0.3548979539878588  1.0000
  O   O42       1.0  0.9671423958227338  0.7892936381223379  0.14750445184629513  1.0000
  O   O43       1.0  0.1705370618970079  0.8624405582428308  0.31346086711000254  1.0000
  O   O44       1.0  0.08660663235224321  0.9407242646952266  0.10096032729139635  1.0000
