data_image0
_chemical_formula_structural       Cu6H42C78O30
_chemical_formula_sum              "Cu6 H42 C78 O30"
_cell_length_a       18.809060959328647
_cell_length_b       18.809073001956595
_cell_length_c       21.209292179573747
_cell_angle_alpha    63.63715974974893
_cell_angle_beta     63.63671080278559
_cell_angle_gamma    60.003179198890855

_space_group_name_H-M_alt    "P 1"
_space_group_IT_number       1

loop_
  _space_group_symop_operation_xyz
  'x, y, z'

loop_
  _atom_site_type_symbol
  _atom_site_label
  _atom_site_symmetry_multiplicity
  _atom_site_fract_x
  _atom_site_fract_y
  _atom_site_fract_z
  _atom_site_occupancy
  Cu  Cu1       1.0  0.0637885900543935  0.49588170123271164  0.944523892189558  1.0000
  Cu  Cu2       1.0  0.49586457702771713  0.4958640015108244  0.9445115512489435  1.0000
  Cu  Cu3       1.0  0.4958791240628031  0.06378902254429158  0.9445225197510894  1.0000
  Cu  Cu4       1.0  0.9362099938186503  0.5041354367037204  0.055470899989536596  1.0000
  Cu  Cu5       1.0  0.5041335466940425  0.9362127009142398  0.055467614904884534  1.0000
  Cu  Cu6       1.0  0.5041359470829504  0.50413815332179  0.0554865525962994  1.0000
  H   H1        1.0  0.0153615912399161  0.5443184298478698  0.19485465018816234  1.0000
  H   H2        1.0  0.9111244016584619  0.5160421541323502  0.4322968188850994  1.0000
  H   H3        1.0  0.13045638476261698  0.48934404815503996  0.8092134559947581  1.0000
  H   H4        1.0  0.5442048522038121  0.24498445340392289  0.19508932708625804  1.0000
  H   H5        1.0  0.51648889380715  0.14038783147857  0.43180191627613596  1.0000
  H   H6        1.0  0.48935176758466536  0.571245668236415  0.8092575184037258  1.0000
  H   H7        1.0  0.24507330064126623  0.015424468669209476  0.1948490337962667  1.0000
  H   H8        1.0  0.140346494600081  0.9110868573328261  0.43199088764614385  1.0000
  H   H9        1.0  0.5713119908709743  0.13025071352994652  0.8093195091116526  1.0000
  H   H10       1.0  0.984590878689495  0.7549256734411786  0.8051357323388971  1.0000
  H   H11       1.0  0.0889192746359413  0.8596566789613718  0.5679823477714835  1.0000
  H   H12       1.0  0.8697571066196231  0.4286885444218098  0.19067596482569374  1.0000
  H   H13       1.0  0.4556739658172404  0.9846409999680577  0.8051556350622631  1.0000
  H   H14       1.0  0.4839409779182517  0.08886534290259351  0.5677185884051782  1.0000
  H   H15       1.0  0.5106551965932055  0.8695491608859387  0.1907844014762431  1.0000
  H   H16       1.0  0.7550296943328688  0.45576504586529143  0.8049223854886949  1.0000
  H   H17       1.0  0.8595991662635852  0.48350396242823757  0.568212181386336  1.0000
  H   H18       1.0  0.42875906089435734  0.5106551476118713  0.1907410280554558  1.0000
  H   H19       1.0  0.9846403070974503  0.455673817096624  0.8051605279851228  1.0000
  H   H20       1.0  0.08886978830602028  0.4839452240165232  0.5677167703642068  1.0000
  H   H21       1.0  0.8695512093307086  0.5106531034694796  0.19078712472760628  1.0000
  H   H22       1.0  0.45576749232470337  0.7550271049377032  0.8049176737673562  1.0000
  H   H23       1.0  0.48350395872238755  0.8595999715686347  0.5682016635541629  1.0000
  H   H24       1.0  0.5106558124812394  0.42875979919492124  0.19074022549712305  1.0000
  H   H25       1.0  0.7549322534201935  0.9845851861672158  0.8051299316438829  1.0000
  H   H26       1.0  0.8596635751374251  0.08890686503272598  0.5679930989674418  1.0000
  H   H27       1.0  0.42868980238164067  0.8697545179532752  0.19067591989005453  1.0000
  H   H28       1.0  0.0154249804964905  0.2450772123547367  0.1948507824787598  1.0000
  H   H29       1.0  0.9110818116563308  0.14034872667471637  0.4320010344704384  1.0000
  H   H30       1.0  0.13025110811298654  0.5713107265664165  0.8093206949611229  1.0000
  H   H31       1.0  0.5443157137516221  0.015363505918621493  0.1948538690963062  1.0000
  H   H32       1.0  0.516047392814677  0.9111265267510903  0.4322865714053776  1.0000
  H   H33       1.0  0.4893446661714406  0.1304597586627523  0.8092098556191587  1.0000
  H   H34       1.0  0.24498632540765183  0.5441957564507831  0.19509498105088596  1.0000
  H   H35       1.0  0.14038925017939619  0.5164867630202395  0.4318014317419099  1.0000
  H   H36       1.0  0.571247239010212  0.4893502070818626  0.8092572709304803  1.0000
  H   H37       1.0  0.23457922274612028  0.5273849739627039  0.0037042921554118254  1.0000
  H   H38       1.0  0.5273824012408995  0.2345814805442856  0.0037016614772084635  1.0000
  H   H39       1.0  0.23438248107422766  0.23438259019930294  0.003456604359861585  1.0000
  H   H40       1.0  0.7656262839035789  0.7656336043991702  0.9965227188790917  1.0000
  H   H41       1.0  0.47261748247418467  0.7654143702138114  0.996296852279137  1.0000
  H   H42       1.0  0.7654129930156232  0.47262032822521144  0.9962996404391263  1.0000
  C   C1        1.0  0.07327535566919609  0.5283785122208188  0.05858729509908762  1.0000
  C   C2        1.0  0.11950146956397129  0.5370051391658208  0.09526317319404849  1.0000
  C   C3        1.0  0.0802988254016839  0.5430636284345168  0.16710389663652586  1.0000
  C   C4        1.0  0.9497708484930883  0.5089964201859587  0.46223129489569453  1.0000
  C   C5        1.0  0.5283950299698646  0.339721643448499  0.058672920420136145  1.0000
  C   C6        1.0  0.5369861520235731  0.2481414280441143  0.09532860540981852  1.0000
  C   C7        1.0  0.5430145039940583  0.20919076671708584  0.16719017602705571  1.0000
  C   C8        1.0  0.5092807778669196  0.07889217597792714  0.46191895679068296  1.0000
  C   C9        1.0  0.3396278149104718  0.07317373866244732  0.058502226954701066  1.0000
  C   C10       1.0  0.24803337957246188  0.11938951662829567  0.09511445436951507  1.0000
  C   C11       1.0  0.20919315220542248  0.08031210839508421  0.16701689744958506  1.0000
  C   C12       1.0  0.0788898645660936  0.9497511503049627  0.46203609833921894  1.0000
  C   C13       1.0  0.9268274048960593  0.6603822885742472  0.9414907275672632  1.0000
  C   C14       1.0  0.8806213289628247  0.7519758886999952  0.9048607595678816  1.0000
  C   C15       1.0  0.9196976866469982  0.7908110417179228  0.8329711296826969  1.0000
  C   C16       1.0  0.05025367828453399  0.9211133275071931  0.5379440762003895  1.0000
  C   C17       1.0  0.4716321616162489  0.926705170646933  0.9414271086744535  1.0000
  C   C18       1.0  0.4629943421854747  0.8804954788446508  0.9047414907779869  1.0000
  C   C19       1.0  0.45692511931932234  0.9197014474257728  0.8329071550169401  1.0000
  C   C20       1.0  0.49099107575999307  0.05021424396571211  0.5377822054307018  1.0000
  C   C21       1.0  0.6602804991887014  0.4715958770032103  0.9413383616516311  1.0000
  C   C22       1.0  0.7518564982493102  0.46300801680985876  0.9046742722883608  1.0000
  C   C23       1.0  0.7908185179682975  0.4569560562237952  0.8328273513509784  1.0000
  C   C24       1.0  0.9210969700688666  0.4907072494258313  0.5380899182421431  1.0000
  C   C25       1.0  0.9267073176551291  0.471631060701128  0.9414314689328479  1.0000
  C   C26       1.0  0.8804952623222703  0.4629955358019161  0.9047455186941634  1.0000
  C   C27       1.0  0.919702434449725  0.4569264812746638  0.8329119161821695  1.0000
  C   C28       1.0  0.050216939662036  0.4909921782395586  0.5377848307580281  1.0000
  C   C29       1.0  0.4715939959972886  0.6602819000451066  0.9413343987063812  1.0000
  C   C30       1.0  0.46300795088421864  0.7518601426758523  0.9046685181007136  1.0000
  C   C31       1.0  0.4569604381930503  0.7908151045922125  0.8328227709933814  1.0000
  C   C32       1.0  0.49070437775755227  0.9210990996113324  0.5380848919943162  1.0000
  C   C33       1.0  0.6603797151676148  0.9268298937425428  0.9414863665667925  1.0000
  C   C34       1.0  0.751970233440147  0.88062143573972  0.9048614669989307  1.0000
  C   C35       1.0  0.7908098935265356  0.9196955880632914  0.8329728065821485  1.0000
  C   C36       1.0  0.9211195428227228  0.050251120741258065  0.5379438025034988  1.0000
  C   C37       1.0  0.07317182675409128  0.3396310460060336  0.05850532213320744  1.0000
  C   C38       1.0  0.1193867846000103  0.24803696573697206  0.09511685382372549  1.0000
  C   C39       1.0  0.0803137019431546  0.2091941369322186  0.16701908201631713  1.0000
  C   C40       1.0  0.9497506127367001  0.07889147182019941  0.46203874204434925  1.0000
  C   C41       1.0  0.5283774184247534  0.07327585366857646  0.05858523703174972  1.0000
  C   C42       1.0  0.5370010718407272  0.11950861557147616  0.09526070557299693  1.0000
  C   C43       1.0  0.5430651939135701  0.08029864598239557  0.16710102600657709  1.0000
  C   C44       1.0  0.5090005015258684  0.9497722612893188  0.4622228712820584  1.0000
  C   C45       1.0  0.33971882844650747  0.5283949440929945  0.05867605166909579  1.0000
  C   C46       1.0  0.2481363689374732  0.5369839658419835  0.09533187962634311  1.0000
  C   C47       1.0  0.2091891863188948  0.5430114562705982  0.1671944269558097  1.0000
  C   C48       1.0  0.07889401225434509  0.5092783521571178  0.46192377124901174  1.0000
  C   C49       1.0  0.20349649182084306  0.533884951555102  0.05912536755774767  1.0000
  C   C50       1.0  0.12508854442991438  0.5450355052024418  0.20435525812690275  1.0000
  C   C51       1.0  0.0885528758445844  0.542964510689295  0.2793856159700708  1.0000
  C   C52       1.0  0.06008455037840579  0.533999691378682  0.3454348270306014  1.0000
  C   C53       1.0  0.02937362409820571  0.5185218144854247  0.42250079686443365  1.0000
  C   C54       1.0  0.5338816080404242  0.20350263363696558  0.059123742064436206  1.0000
  C   C55       1.0  0.5450372835101547  0.12508801078042345  0.2043520995902383  1.0000
  C   C56       1.0  0.5429659982140934  0.08855426297569118  0.2793835914576164  1.0000
  C   C57       1.0  0.534002906286254  0.06008474999607221  0.3454306433956802  1.0000
  C   C58       1.0  0.5185230887703299  0.02937280972154348  0.42249538788615837  1.0000
  C   C59       1.0  0.203369398548233  0.20337161822590843  0.05890495567317087  1.0000
  C   C60       1.0  0.1251121605905112  0.12511346953574076  0.20424827624923128  1.0000
  C   C61       1.0  0.08865131505883281  0.08865184786176881  0.2793367344502897  1.0000
  C   C62       1.0  0.060127869762737894  0.06013288530655101  0.3454012540332201  1.0000
  C   C63       1.0  0.029364502307544196  0.029362216486056508  0.4224915396041169  1.0000
  C   C64       1.0  0.7966400631918162  0.7966443920073588  0.941084536445501  1.0000
  C   C65       1.0  0.8748909079057794  0.874893059739655  0.7957456558700143  1.0000
  C   C66       1.0  0.9113549475198823  0.9113427596418971  0.7206550176714612  1.0000
  C   C67       1.0  0.9398892915276276  0.9398719201693382  0.6545886919085008  1.0000
  C   C68       1.0  0.9706430149372595  0.9706324782243315  0.5774949627323521  1.0000
  C   C69       1.0  0.4661176708766916  0.7964946835582295  0.940881500875534  1.0000
  C   C70       1.0  0.4549408437352795  0.8749219944385372  0.7956565162434972  1.0000
  C   C71       1.0  0.4570121223854429  0.9114539506194107  0.7206238549870887  1.0000
  C   C72       1.0  0.4659797026701256  0.9399122636872477  0.6545766486228785  1.0000
  C   C73       1.0  0.48146719851887104  0.970615952905064  0.5775083603169335  1.0000
  C   C74       1.0  0.7964925521743708  0.46611979997087627  0.9408852350015662  1.0000
  C   C75       1.0  0.8749236154230147  0.4549398142091404  0.7956597474559928  1.0000
  C   C76       1.0  0.9114573429595011  0.4570121062538846  0.7206263455411205  1.0000
  C   C77       1.0  0.9399199117481701  0.4659820747003136  0.6545802056286333  1.0000
  C   C78       1.0  0.9706186377464476  0.48146806412123766  0.5775120928059253  1.0000
  O   O1        1.0  0.9982636461342479  0.5274136743129461  0.09556299122913718  1.0000
  O   O2        1.0  0.11316138682049372  0.5206014192190266  0.993777502216723  1.0000
  O   O3        1.0  0.527362921467109  0.3786757251643137  0.09568683780513962  1.0000
  O   O4        1.0  0.5207453192724286  0.37249058313163624  0.9938239461983258  1.0000
  O   O5        1.0  0.3785964998965454  0.9982094151365288  0.09551483959774025  1.0000
  O   O6        1.0  0.372442504707351  0.11302854705205324  0.9936838727921539  1.0000
  O   O7        1.0  0.0018104345534695006  0.6214121037654724  0.9044672902180934  1.0000
  O   O8        1.0  0.8869885272678315  0.6275738512207882  0.006296018890175386  1.0000
  O   O9        1.0  0.4725960940478516  0.001733920967822668  0.9044384586866343  1.0000
  O   O10       1.0  0.47940935198626283  0.8868341752107445  0.006220356179433089  1.0000
  O   O11       1.0  0.6213257510675233  0.4726300157718129  0.9043160040331131  1.0000
  O   O12       1.0  0.6275090724467702  0.4792463878510065  0.006178226672354057  1.0000
  O   O13       1.0  0.0017349890064082003  0.472596970077575  0.9044414408007314  1.0000
  O   O14       1.0  0.8868327488582749  0.4794144640671193  0.00622522064592343  1.0000
  O   O15       1.0  0.4726279930115496  0.621324683218269  0.9043139055437096  1.0000
  O   O16       1.0  0.47924814551218736  0.627511230674543  0.0061738062429269975  1.0000
  O   O17       1.0  0.6214128813470552  0.0018136543625217045  0.9044596123362609  1.0000
  O   O18       1.0  0.6275758598857594  0.8869905739448711  0.006290930205771744  1.0000
  O   O19       1.0  0.998207334532829  0.3786025430770863  0.09551613413024997  1.0000
  O   O20       1.0  0.11302603253462001  0.3724449673065777  0.9936870219432877  1.0000
  O   O21       1.0  0.5274089275193532  0.9982665628983651  0.09556087628377682  1.0000
  O   O22       1.0  0.520596932898279  0.1131646195568336  0.9937753764367867  1.0000
  O   O23       1.0  0.3786754345705461  0.5273665645054917  0.09568594370463049  1.0000
  O   O24       1.0  0.372490848785631  0.5207447405603461  0.9938273405636407  1.0000
  O   O25       1.0  0.15653370144868006  0.5089818024201733  0.8258156185574138  1.0000
  O   O26       1.0  0.508917142649274  0.5089136917847199  0.825772206658435  1.0000
  O   O27       1.0  0.5089816157110505  0.15653490033785294  0.8258146392805727  1.0000
  O   O28       1.0  0.8434706945615744  0.49101774713690105  0.17418669555116395  1.0000
  O   O29       1.0  0.491019545701505  0.8434699855339078  0.17418259375558148  1.0000
  O   O30       1.0  0.49109106397624896  0.4910909259911308  0.1742227971252745  1.0000
