data_image0
_chemical_formula_structural       Zn8H80C104I8N32
_chemical_formula_sum              "Zn8 H80 C104 I8 N32"
_cell_length_a       14.792015239952375
_cell_length_b       17.545744846042467
_cell_length_c       19.490795977204982
_cell_angle_alpha    91.42512843833984
_cell_angle_beta     87.34285476045122
_cell_angle_gamma    91.4903326838674

_space_group_name_H-M_alt    "P 1"
_space_group_IT_number       1

loop_
  _space_group_symop_operation_xyz
  'x, y, z'

loop_
  _atom_site_type_symbol
  _atom_site_label
  _atom_site_symmetry_multiplicity
  _atom_site_fract_x
  _atom_site_fract_y
  _atom_site_fract_z
  _atom_site_occupancy
  Zn  Zn1       1.0  0.9785049110406234  0.9195180979784539  0.5494069467516026  1.0000
  Zn  Zn2       1.0  0.975579204837686  0.0649511528765316  0.40268517911486157  1.0000
  Zn  Zn3       1.0  0.5252577813364638  0.558389600684052  0.0702334845278187  1.0000
  Zn  Zn4       1.0  0.5157073131172751  0.4246505388737347  0.9300497520805351  1.0000
  Zn  Zn5       1.0  0.1497654140601981  0.03542591628772129  0.4904779979279396  1.0000
  Zn  Zn6       1.0  0.8001250391725704  0.979736923830778  0.5046443146015918  1.0000
  Zn  Zn7       1.0  0.7184974108605502  0.46128921541509976  0.988076669124396  1.0000
  Zn  Zn8       1.0  0.3279705609347872  0.5316994638915632  0.004487093265687704  1.0000
  H   H1        1.0  0.07847554560227368  0.17916168686422648  0.6006460916254283  1.0000
  H   H2        1.0  0.6459351662404629  0.9076837114234522  0.6240346517034538  1.0000
  H   H3        1.0  0.9639337146935033  0.21028566114048167  0.5067618948638212  1.0000
  H   H4        1.0  0.18533579492299881  0.8663436673502574  0.45261355288663896  1.0000
  H   H5        1.0  0.5459840141238175  0.7125142277630658  0.9764855750733684  1.0000
  H   H6        1.0  0.47053272998381596  0.27294113255469904  0.0211198368149965  1.0000
  H   H7        1.0  0.20044866296211686  0.5941164997935572  0.12150129485046786  1.0000
  H   H8        1.0  0.8413454433487502  0.40955334702918117  0.8554218515728063  1.0000
  H   H9        1.0  0.063857850780515  0.18445514990907697  0.2803708769139348  1.0000
  H   H10       1.0  0.8999345095045328  0.8270329577652761  0.6927926082631044  1.0000
  H   H11       1.0  0.8681661431185078  0.036976062542351  0.6481628753200609  1.0000
  H   H12       1.0  0.9868121472882051  0.75205939242376  0.4497356721623689  1.0000
  H   H13       1.0  0.0023885868512251904  0.9146395495237125  0.29272898270858144  1.0000
  H   H14       1.0  0.5996838810378833  0.5365502183973732  0.821343026688815  1.0000
  H   H15       1.0  0.4212083737603293  0.4525501948829174  0.17334743650265944  1.0000
  H   H16       1.0  0.45422658932213966  0.6801680521965634  0.1990358424079233  1.0000
  H   H17       1.0  0.582568085551827  0.3147267083025867  0.7957594327574496  1.0000
  H   H18       1.0  0.2539528318010085  0.8907690224998889  0.2429116516592771  1.0000
  H   H19       1.0  0.7469524866640995  0.12326986962695935  0.7017204550931025  1.0000
  H   H20       1.0  0.5856153561823091  0.8722915151390964  0.7800296682900691  1.0000
  H   H21       1.0  0.36294841703514175  0.11328569106355961  0.2033086671144417  1.0000
  H   H22       1.0  0.8884264690227469  0.3790055398032591  0.6927632118586615  1.0000
  H   H23       1.0  0.853778248555031  0.15689104034323978  0.3109913337152505  1.0000
  H   H24       1.0  0.15925822248337337  0.6277116124851148  0.2939698894149672  1.0000
  H   H25       1.0  0.2759801684355594  0.38129138521729533  0.2166121614760286  1.0000
  H   H26       1.0  0.7455151297515882  0.6308385085058815  0.7795858808054276  1.0000
  H   H27       1.0  0.801823693277278  0.30308232341178604  0.5828152488364251  1.0000
  H   H28       1.0  0.2325881181893905  0.7348111127649801  0.3894576148632324  1.0000
  H   H29       1.0  0.3398002404857365  0.2972725537254348  0.327262914033561  1.0000
  H   H30       1.0  0.6609428444024843  0.6913370095640232  0.6650152200048891  1.0000
  H   H31       1.0  0.1812055231661347  0.782209788265156  0.14725106724436898  1.0000
  H   H32       1.0  0.834003788429797  0.20003091175800594  0.8118866144362258  1.0000
  H   H33       1.0  0.6701991950128771  0.8130103683055406  0.8943065240162437  1.0000
  H   H34       1.0  0.061279577694421085  0.8547595186413159  0.6816202337626148  1.0000
  H   H35       1.0  0.2992383568875283  0.1964656577336612  0.09307753475286519  1.0000
  H   H36       1.0  0.6570951195097906  0.25849037762557  0.6737077030695813  1.0000
  H   H37       1.0  0.3687375416416431  0.7765736625549521  0.2890278096208405  1.0000
  H   H38       1.0  0.4796186464148419  0.2387216761546894  0.23710366654839274  1.0000
  H   H39       1.0  0.5072241976472752  0.7256007554948312  0.7521518675853186  1.0000
  H   H40       1.0  0.0442760361528229  0.7420922155930969  0.24849044561631217  1.0000
  H   H41       1.0  0.9794842836355713  0.24284610900132  0.7198456566687738  1.0000
  H   H42       1.0  0.8235084506767621  0.7766507597992813  0.8083832545612067  1.0000
  H   H43       1.0  0.16065727365440804  0.2571968099088763  0.18152132600024365  1.0000
  H   H44       1.0  0.23440101891161896  0.7888500252037146  0.7212496161251918  1.0000
  H   H45       1.0  0.6437111088855971  0.6300724620987382  0.19174646834778025  1.0000
  H   H46       1.0  0.6493429383703528  0.19625829158559335  0.29749156252321274  1.0000
  H   H47       1.0  0.7993238365242022  0.7403494478133227  0.2982712495580842  1.0000
  H   H48       1.0  0.2668538671286882  0.2602286651841296  0.7246059252498609  1.0000
  H   H49       1.0  0.779666156877859  0.2612257173681273  0.23917170136353855  1.0000
  H   H50       1.0  0.1841922331252874  0.7884954599555412  0.8266771540165292  1.0000
  H   H51       1.0  0.17255556416184703  0.28220706415641666  0.8201295940332683  1.0000
  H   H52       1.0  0.8559344868916623  0.7080060040190759  0.19013054860966605  1.0000
  H   H53       1.0  0.400819529298957  0.9713601405725284  0.7600334142478358  1.0000
  H   H54       1.0  0.2939943519375987  0.9968698772566211  0.731890612674128  1.0000
  H   H55       1.0  0.312287656239249  0.9917090754502169  0.8215278572192515  1.0000
  H   H56       1.0  0.3845696053244083  0.3638233454694557  0.8069417559793733  1.0000
  H   H57       1.0  0.6921008868835657  0.3768841098303  0.43228020412108487  1.0000
  H   H58       1.0  0.7481031089047788  0.292041280022012  0.45105708059588767  1.0000
  H   H59       1.0  0.802601567329397  0.36197948601071067  0.39687894014372194  1.0000
  H   H60       1.0  0.0095477316795751  0.5850105545602133  0.32335218514717917  1.0000
  H   H61       1.0  0.017117184054761505  0.6716681841580369  0.371153024865272  1.0000
  H   H62       1.0  0.9414174401074079  0.5978678231158765  0.39972172349543195  1.0000
  H   H63       1.0  0.11559606694282816  0.414387896982717  0.6280776454017384  1.0000
  H   H64       1.0  0.11443278817129957  0.3206702633072496  0.5907576952351972  1.0000
  H   H65       1.0  0.0307074903454563  0.3476479517454649  0.6545805812179849  1.0000
  H   H66       1.0  0.645747445072253  0.4432616103283635  0.335764229877526  1.0000
  H   H67       1.0  0.3917554240229463  0.670589453668576  0.8923745021257047  1.0000
  H   H68       1.0  0.6613097544065524  0.4484100362153639  0.24483253549696116  1.0000
  H   H69       1.0  0.5654408086938717  0.39929129003675706  0.28227932998896677  1.0000
  H   H70       1.0  0.4207210522539881  0.9048214736559715  0.8716046528227253  1.0000
  H   H71       1.0  0.401326477566883  0.8158617300666505  0.9126573854611804  1.0000
  H   H72       1.0  0.4608591767109544  0.8203481132651902  0.8314728031061305  1.0000
  H   H73       1.0  0.1277775850620202  0.4864659674456886  0.7323182750725792  1.0000
  H   H74       1.0  0.21296397193864183  0.4900165002351143  0.7933667417932709  1.0000
  H   H75       1.0  0.2419623160778173  0.47497896126208156  0.704124875787194  1.0000
  H   H76       1.0  0.9195022960724016  0.5027558955266755  0.26580757597646  1.0000
  H   H77       1.0  0.8139641970716339  0.5140641613846242  0.3104219179849322  1.0000
  H   H78       1.0  0.6285797735843417  0.40216965087373785  0.13305338126021837  1.0000
  H   H79       1.0  0.8196551880279516  0.5004042056735826  0.21924517021987094  1.0000
  H   H80       1.0  0.30315043307543726  0.11189729195875489  0.3783626833230754  1.0000
  C   C1        1.0  0.15100919463925777  0.1718109282938727  0.5955903755716816  1.0000
  C   C2        1.0  0.29649469343883783  0.769038113792618  0.2799216178297215  1.0000
  C   C3        1.0  0.1028511529072844  0.3536581702672592  0.6388045231915809  1.0000
  C   C4        1.0  0.6385010796782068  0.4112016559119169  0.28702392839153384  1.0000
  C   C5        1.0  0.40413924818681585  0.8439408508394806  0.8628540994358571  1.0000
  C   C6        1.0  0.19187786620247496  0.46137274336679474  0.7458775377815384  1.0000
  C   C7        1.0  0.8526683018939137  0.5283488632348534  0.2626930177672762  1.0000
  C   C8        1.0  0.40809964718076935  0.24221291324187172  0.22553147208326146  1.0000
  C   C9        1.0  0.5778977486339302  0.7374384333628399  0.764060366007058  1.0000
  C   C10       1.0  0.11663714812582529  0.7495435489693631  0.2569869015436835  1.0000
  C   C11       1.0  0.9075201537927098  0.24670820564940493  0.7099680107206082  1.0000
  C   C12       1.0  0.7529837975666425  0.7654181121576398  0.7956255103589243  1.0000
  C   C13       1.0  0.23159131229176214  0.25254883659182775  0.19441878448915156  1.0000
  C   C14       1.0  0.6823175493679727  0.21762398392107937  0.34352326154831286  1.0000
  C   C15       1.0  0.2498054125577269  0.8499523565037208  0.7177808063330245  1.0000
  C   C16       1.0  0.21601355425461577  0.2657161675681934  0.686177673691489  1.0000
  C   C17       1.0  0.9328833547135106  0.7892327093338734  0.43724396435181473  1.0000
  C   C18       1.0  0.8555630928631787  0.7260640181200202  0.3297172909977419  1.0000
  C   C19       1.0  0.2501224890991196  0.783045910985443  0.8489919536712164  1.0000
  C   C20       1.0  0.7391663265667816  0.3109268485877124  0.23016001718031018  1.0000
  C   C21       1.0  0.8395549784861058  0.6472396884658096  0.19578528964998299  1.0000
  C   C22       1.0  0.1922206800719479  0.3423807193028736  0.8150495875661503  1.0000
  C   C23       1.0  0.6984410254342778  0.2938830210222179  0.34859255794272304  1.0000
  C   C24       1.0  0.2971888456727498  0.8822833634289396  0.7694524896001054  1.0000
  C   C25       1.0  0.1631365795476896  0.328241894526343  0.693407566688755  1.0000
  C   C26       1.0  0.8968053705659786  0.65927084462691  0.31257845088715186  1.0000
  C   C27       1.0  0.3160106220236045  0.8339089796316868  0.8278941171214595  1.0000
  C   C28       1.0  0.8139911456524374  0.13533457292962942  0.35497937692309  1.0000
  C   C29       1.0  0.6902595087519713  0.3386351783006418  0.2858236169233805  1.0000
  C   C30       1.0  0.8625807038955459  0.6133074542777378  0.2540463365026966  1.0000
  C   C31       1.0  0.17949443668440776  0.3765639879032178  0.7544780509980311  1.0000
  C   C32       1.0  0.23548236736175449  0.12243846035148924  0.36189517558671  1.0000
  C   C33       1.0  0.7159797071398374  0.8946227026286663  0.6322873019583707  1.0000
  C   C34       1.0  0.9460666123545564  0.15836457443503352  0.5340583724221587  1.0000
  C   C35       1.0  0.13440241468157407  0.8876671103818409  0.4201922843110493  1.0000
  C   C36       1.0  0.5524781359765285  0.6603327353831075  0.9456837232796  1.0000
  C   C37       1.0  0.4673385917184021  0.3253876604016455  0.051849879638190495  1.0000
  C   C38       1.0  0.2703226426732357  0.6059327693065341  0.1340457602387133  1.0000
  C   C39       1.0  0.11484584044382729  0.8816206004580495  0.6499737672605688  1.0000
  C   C40       1.0  0.7707139583040785  0.3933007515479119  0.8494507277599225  1.0000
  C   C41       1.0  0.11353873860547029  0.1599415232583397  0.3121931894455016  1.0000
  C   C42       1.0  0.8459066725393855  0.8538875380896016  0.66708884102853  1.0000
  C   C43       1.0  0.8967915761631672  0.0698656294390787  0.6057603085922947  1.0000
  C   C44       1.0  0.04114128669423419  0.9129403134698675  0.33864511538999403  1.0000
  C   C45       1.0  0.5803718467202401  0.5704665897203469  0.8668099410436836  1.0000
  C   C46       1.0  0.4421349304011172  0.41701684273575507  0.12934914973279626  1.0000
  C   C47       1.0  0.40007883947836825  0.6506174527381245  0.17257590745082746  1.0000
  C   C48       1.0  0.6387566020463851  0.34460293914766976  0.8195080320480909  1.0000
  C   C49       1.0  0.7115621575566208  0.112827755601387  0.43756961543644474  1.0000
  C   C50       1.0  0.6873021116861792  0.6086810051039748  0.1495670610447064  1.0000
  C   C51       1.0  0.24238010811982488  0.9272135350632879  0.6037530370923179  1.0000
  C   C52       1.0  0.2980974628954982  0.17037930686706906  0.6059187754496023  1.0000
  C   C53       1.0  0.8187935579336737  0.8482498944845673  0.3950675034765111  1.0000
  C   C54       1.0  0.17686964631900537  0.6904061134935233  0.9346642085977378  1.0000
  C   C55       1.0  0.8258381615336888  0.3222888615602102  0.11451734418485418  1.0000
  C   C56       1.0  0.8000540887713612  0.5764810364123747  0.0787371750233845  1.0000
  C   C57       1.0  0.24052408519837334  0.4072836841495686  0.9325866397764742  1.0000
  C   C58       1.0  0.21972088491383351  0.20817497049963413  0.6324556933981711  1.0000
  C   C59       1.0  0.8705232965234018  0.7817626349915159  0.38419049374677167  1.0000
  C   C60       1.0  0.7291020897199304  0.15954874976743835  0.38077308959344686  1.0000
  C   C61       1.0  0.3459393083787745  0.38311797236110573  0.8526158152142141  1.0000
  C   C62       1.0  0.2077086821362926  0.8865029102546486  0.661193818420493  1.0000
  C   C63       1.0  0.7822859851999836  0.6114215587809184  0.14354509819478514  1.0000
  C   C64       1.0  0.2518701620473252  0.3763160718399803  0.8659463826901825  1.0000
  C   C65       1.0  0.2528049626081099  0.7216758011875156  0.8966377805567162  1.0000
  C   C66       1.0  0.7511808026467436  0.3381175646981234  0.16126695062979474  1.0000
  C   C67       1.0  0.2083270495008662  0.16449135035577456  0.3060538048156829  1.0000
  C   C68       1.0  0.7521138673363764  0.8479311366255613  0.6811883983198541  1.0000
  C   C69       1.0  0.8994448498540139  0.14888565703625284  0.5981238067800092  1.0000
  C   C70       1.0  0.1114369793417822  0.8644527471548996  0.354158760745804  1.0000
  C   C71       1.0  0.5867949573226241  0.6497747098107778  0.8778487350509535  1.0000
  C   C72       1.0  0.3214712426091708  0.6714165181162173  0.9111075368686766  1.0000
  C   C73       1.0  0.4258017401702077  0.33888654668545115  0.11716497233407348  1.0000
  C   C74       1.0  0.3061734082762868  0.6575498919880259  0.18227025012154027  1.0000
  C   C75       1.0  0.7313554498525506  0.34468462016753415  0.8001083039854677  1.0000
  C   C76       1.0  0.8092707661815554  0.2798060415665161  0.633831125974943  1.0000
  C   C77       1.0  0.22134584388725642  0.7455414191138914  0.3354074718878763  1.0000
  C   C78       1.0  0.331612836965931  0.2756899161790684  0.2746484310742757  1.0000
  C   C79       1.0  0.6625373333792836  0.7173839465153404  0.7165929585638933  1.0000
  C   C80       1.0  0.19166179202138517  0.7728626884048353  0.20161987361238687  1.0000
  C   C81       1.0  0.8274554126892325  0.221960758123636  0.7603108040075524  1.0000
  C   C82       1.0  0.6680965503673236  0.7856167173571791  0.8432759008191224  1.0000
  C   C83       1.0  0.6949219718792535  0.37922700526680586  0.12061027682261737  1.0000
  C   C84       1.0  0.308441158147602  0.21908947655668237  0.14524072742176483  1.0000
  C   C85       1.0  0.23390477048122446  0.8315350896403899  0.25343547410327  1.0000
  C   C86       1.0  0.7787647870914896  0.1803268261871622  0.700025777399091  1.0000
  C   C87       1.0  0.6207834312160897  0.818178466115171  0.7802641027710917  1.0000
  C   C88       1.0  0.34416448670713606  0.1733003262806321  0.20603899812171284  1.0000
  C   C89       1.0  0.857504349603488  0.3216348289619759  0.6945933612507176  1.0000
  C   C90       1.0  0.1793938085394728  0.6868393905544748  0.283191999002767  1.0000
  C   C91       1.0  0.2954114034859501  0.32140595374898584  0.21420727695350905  1.0000
  C   C92       1.0  0.710214582468197  0.6849288519442279  0.7791074997685427  1.0000
  C   C93       1.0  0.1582503888693836  0.8084719941320343  0.3097813777883473  1.0000
  C   C94       1.0  0.728921247090632  0.25518804794052835  0.6844860314434199  1.0000
  C   C95       1.0  0.8591054973474214  0.2038006645417809  0.6483108224802194  1.0000
  C   C96       1.0  0.7062278284600296  0.7990317037459462  0.7325025358009609  1.0000
  C   C97       1.0  0.2660631127810404  0.20629943502913764  0.2557222482035754  1.0000
  C   C98       1.0  0.7763723165534132  0.29783433981115337  0.7456797061506178  1.0000
  C   C99       1.0  0.2552945740997643  0.709848158209752  0.22774741073615692  1.0000
  C   C100      1.0  0.37243526492809315  0.289054369775819  0.1640256428742077  1.0000
  C   C101      1.0  0.6255294879974329  0.7042364673098476  0.8279265957266161  1.0000
  C   C102      1.0  0.3272930474905138  0.964834784036633  0.7707912991802812  1.0000
  C   C103      1.0  0.7375843820976228  0.33286164380049854  0.4105765698533332  1.0000
  C   C104      1.0  0.9698673373315359  0.626850665884625  0.35372495792631037  1.0000
  I   I1        1.0  0.6005890420168356  0.1128475063278245  0.5069670705095602  1.0000
  I   I2        1.0  0.37810666463059317  0.9442462017503176  0.5741486000770522  1.0000
  I   I3        1.0  0.4304171992768174  0.19011932939525167  0.6366684174056586  1.0000
  I   I4        1.0  0.7109881336029957  0.8849624693609712  0.34093124284341053  1.0000
  I   I5        1.0  0.0471455521448121  0.7346955270985732  0.9393022965928989  1.0000
  I   I6        1.0  0.9435287470265125  0.2654979927838781  0.13564760772722909  1.0000
  I   I7        1.0  0.9218308678095753  0.5488331111032209  0.028456133447164692  1.0000
  I   I8        1.0  0.12299009708114989  0.4150650161975945  0.9945719143629005  1.0000
  N   N1        1.0  0.18790304604320343  0.11897058011171421  0.5521461204124235  1.0000
  N   N2        1.0  0.7840917893400317  0.9254730938260634  0.59248961090028  1.0000
  N   N3        1.0  0.9689471208328301  0.08999268622203968  0.5059976003816613  1.0000
  N   N4        1.0  0.08176192795017559  0.9465517478827293  0.44264368240659024  1.0000
  N   N5        1.0  0.5269286998048486  0.5921099645578211  0.9725233768077782  1.0000
  N   N6        1.0  0.5050875622215685  0.39095198873550163  0.027246029436817292  1.0000
  N   N7        1.0  0.3383816455386679  0.5709710485118364  0.09860248033982089  1.0000
  N   N8        1.0  0.7058930711423415  0.4198831295580447  0.8943941066562928  1.0000
  N   N9        1.0  0.08693247145002661  0.1182975154824319  0.3673766385347931  1.0000
  N   N10       1.0  0.8646678910029734  0.9000543712396265  0.6140728562492086  1.0000
  N   N11       1.0  0.9363773625081536  0.034202126394646384  0.5496184110082608  1.0000
  N   N12       1.0  0.9185830036427589  0.8534329552713444  0.47476958419949966  1.0000
  N   N13       1.0  0.024587062990938997  0.9613564255124131  0.3918083520612114  1.0000
  N   N14       1.0  0.5454721316168828  0.5367367234131349  0.9236775770651631  1.0000
  N   N15       1.0  0.4887966086894053  0.4476969824077628  0.07530148907248699  1.0000
  N   N16       1.0  0.4187904957752195  0.5988493628656356  0.12189313153937317  1.0000
  N   N17       1.0  0.6241027371063268  0.38915589046875715  0.8761123050594647  1.0000
  N   N18       1.0  0.7814531962810704  0.0653781506792015  0.4449044004613753  1.0000
  N   N19       1.0  0.1758549530959428  0.9459401556233542  0.5624715314620942  1.0000
  N   N20       1.0  0.28003860869987557  0.11831730464989218  0.5572613077475806  1.0000
  N   N21       1.0  0.8478205446121906  0.8901484085683861  0.4486429771906726  1.0000
  N   N22       1.0  0.196172893253582  0.6285312600753697  0.9690363944190351  1.0000
  N   N23       1.0  0.8447825397798852  0.07928742195841211  0.3925282356609258  1.0000
  N   N24       1.0  0.8165619599037298  0.3502759345727425  0.05244758811544871  1.0000
  N   N25       1.0  0.7217986639140362  0.5553232511802905  0.04886123430155459  1.0000
  N   N26       1.0  0.321492120161146  0.43223032032656755  0.956377830987918  1.0000
  N   N27       1.0  0.09651288465804701  0.9169690900231657  0.5916957073749386  1.0000
  N   N28       1.0  0.6520161289441191  0.5752263715879735  0.0936903752050071  1.0000
  N   N29       1.0  0.38684856821635805  0.41629342248343437  0.9059360582011635  1.0000
  N   N30       1.0  0.2864044110439679  0.6168445757511236  0.9531520540997033  1.0000
  N   N31       1.0  0.7340466154716125  0.38477000323393895  0.05668471050111628  1.0000
  N   N32       1.0  0.1626687663800155  0.0946102390329457  0.39774584884688113  1.0000
