data_image0
_chemical_formula_structural       Cd2H40C52N12Cl4
_chemical_formula_sum              "Cd2 H40 C52 N12 Cl4"
_cell_length_a       9.077263047837514
_cell_length_b       11.412531625952003
_cell_length_c       16.36046523745692
_cell_angle_alpha    73.8323706859291
_cell_angle_beta     73.8883566274214
_cell_angle_gamma    66.5651628670494

_space_group_name_H-M_alt    "P 1"
_space_group_IT_number       1

loop_
  _space_group_symop_operation_xyz
  'x, y, z'

loop_
  _atom_site_type_symbol
  _atom_site_label
  _atom_site_symmetry_multiplicity
  _atom_site_fract_x
  _atom_site_fract_y
  _atom_site_fract_z
  _atom_site_occupancy
  Cd  Cd1       1.0  9.701869459000003e-07  0.0  1.764449635e-07  1.0000
  Cd  Cd2       1.0  6.762357001870436e-07  0.5000009436696756  0.49999975292664806  1.0000
  H   H1        1.0  0.7142428599018302  0.5213171768524347  0.0720911361445147  1.0000
  H   H2        1.0  0.3076806821700371  0.9789317865556199  0.4277841248233116  1.0000
  H   H3        1.0  0.2857563456152335  0.4786837376315772  0.9279082423331177  1.0000
  H   H4        1.0  0.6923177254596595  0.021068155073059792  0.5722165997607719  1.0000
  H   H5        1.0  0.5967188266608754  0.7372589563639949  0.7662515323056027  1.0000
  H   H6        1.0  0.09988731918850394  0.7626349148478226  0.733896262333765  1.0000
  H   H7        1.0  0.4032822640273038  0.2627390395540203  0.23374760565818062  1.0000
  H   H8        1.0  0.9001147825634846  0.2373640539255248  0.26610590287474173  1.0000
  H   H9        1.0  0.9803011571874972  0.3778365810454716  0.845812352355992  1.0000
  H   H10       1.0  0.2041706048837284  0.12185985890523197  0.654097850871544  1.0000
  H   H11       1.0  0.01969609362977549  0.6221623877278759  0.15418893062770417  1.0000
  H   H12       1.0  0.7958309656436382  0.8781400827234478  0.3459020040786882  1.0000
  H   H13       1.0  0.47288079191346805  0.5675248865636106  0.9039182854387918  1.0000
  H   H14       1.0  0.944090356755929  0.932296020498292  0.5960466443734732  1.0000
  H   H15       1.0  0.5271178680530609  0.43247505506506906  0.09608104017655714  1.0000
  H   H16       1.0  0.05591004645042834  0.0677068396963847  0.4039550265043061  1.0000
  H   H17       1.0  0.19259739286744101  0.7127079792018307  0.9624205467496623  1.0000
  H   H18       1.0  0.867565215797555  0.7871148735707365  0.5374936051312531  1.0000
  H   H19       1.0  0.8074016260241451  0.2872919624268491  0.03757956657253913  1.0000
  H   H20       1.0  0.13243300902398406  0.21288993233460468  0.46250685442935696  1.0000
  H   H21       1.0  0.07105509277148767  0.5667971907751621  0.8404839030347588  1.0000
  H   H22       1.0  0.47850049091685787  0.9326861354864846  0.6594660065477171  1.0000
  H   H23       1.0  0.9289445373819877  0.4332027508535176  0.15951559902555357  1.0000
  H   H24       1.0  0.5214975577877823  0.0673138061421952  0.3405339303295207  1.0000
  H   H25       1.0  0.6707156432411879  0.8025297663086659  0.9777402307157177  1.0000
  H   H26       1.0  0.45081365487107655  0.6973115707152076  0.5223078841209627  1.0000
  H   H27       1.0  0.3292833756503981  0.1974701753200137  0.022259882606476804  1.0000
  H   H28       1.0  0.5491843938335633  0.30268837091347217  0.4776920527562752  1.0000
  H   H29       1.0  0.38199724174071986  0.9476340576649847  0.020831207131472174  1.0000
  H   H30       1.0  0.350384812876932  0.5521323694983167  0.4792193852844094  1.0000
  H   H31       1.0  0.6180031719742162  0.05236491110836279  0.9791692062183729  1.0000
  H   H32       1.0  0.6496108851433179  0.44787049069636  0.5207778177242305  1.0000
  H   H33       1.0  0.050838769081543875  0.3445766029498926  0.693477658633249  1.0000
  H   H34       1.0  0.08945018880110918  0.1552073939807102  0.8064131835684023  1.0000
  H   H35       1.0  0.9491651007447572  0.655423338678787  0.30652333691375594  1.0000
  H   H36       1.0  0.9105486577908978  0.844793520503309  0.19358540720237732  1.0000
  H   H37       1.0  0.6775580211020942  0.6809238226451269  0.6194547026795477  1.0000
  H   H38       1.0  0.9781960344162568  0.8189982613713198  0.8807040722917208  1.0000
  H   H39       1.0  0.3224456212218598  0.3190741732728881  0.38054417691227377  1.0000
  H   H40       1.0  0.021803039678104576  0.1810045988233568  0.11929663443424943  1.0000
  C   C1        1.0  0.5937918585128584  0.67620741999486  0.9332672045789466  1.0000
  C   C2        1.0  0.2030998626667399  0.8236767226636346  0.566646423931978  1.0000
  C   C3        1.0  0.40620777164060945  0.3237925216338198  0.06673229748136579  1.0000
  C   C4        1.0  0.7969006576364208  0.17632224610971287  0.4333561760934543  1.0000
  C   C5        1.0  0.8772698640022439  0.5491505679052722  0.9500513365194935  1.0000
  C   C6        1.0  0.37648029268399325  0.9506897962632762  0.5498868095760798  1.0000
  C   C7        1.0  0.12273092296365459  0.4508503465787399  0.049947607141206184  1.0000
  C   C8        1.0  0.6235187919189471  0.049309172510071185  0.450112639621949  1.0000
  C   C9        1.0  0.8397899319856847  0.5115370621983217  0.040212957987783716  1.0000
  C   C10       1.0  0.39151111622766166  0.9886214256638439  0.45974057957143805  1.0000
  C   C11       1.0  0.160209884793268  0.48846385228569017  0.9597858092279594  1.0000
  C   C12       1.0  0.6084898430378088  0.0113785159648359  0.5402598866406835  1.0000
  C   C13       1.0  0.6967625543014933  0.6477873971767278  0.7537062004891412  1.0000
  C   C14       1.0  0.09822661775883286  0.8520665869664654  0.7463577189028072  1.0000
  C   C15       1.0  0.3032396931991102  0.3522115715966194  0.24629237907503662  1.0000
  C   C16       1.0  0.9017759229554728  0.14793335466221438  0.25364231249238867  1.0000
  C   C17       1.0  0.9110794436595029  0.44946694629641826  0.7975788862435281  1.0000
  C   C18       1.0  0.15845638189819064  0.05022754794362069  0.7023976190197915  1.0000
  C   C19       1.0  0.0889162914202899  0.5505310496215969  0.20242216743292826  1.0000
  C   C20       1.0  0.841544218442223  0.9497723936850591  0.29760205948548457  1.0000
  C   C21       1.0  0.7853416366889261  0.5641150286244212  0.8186107071215931  1.0000
  C   C22       1.0  0.16810091738975771  0.9356533442495517  0.6813681272395655  1.0000
  C   C23       1.0  0.2146584181009601  0.43588394014892623  0.1813889185213995  1.0000
  C   C24       1.0  0.8319006531376019  0.06434659737913509  0.3186317277106668  1.0000
  C   C25       1.0  0.45685909920189965  0.6506689946705606  0.9299862968867671  1.0000
  C   C26       1.0  0.03732958507693254  0.8492063922899433  0.5699187463088293  1.0000
  C   C27       1.0  0.5431407175770531  0.3493319198134515  0.07001247032896883  1.0000
  C   C28       1.0  0.9626704592043683  0.15079646790473328  0.4300821368620973  1.0000
  C   C29       1.0  0.3019644301053149  0.7317749708566622  0.9610897092807206  1.0000
  C   C30       1.0  0.994670956435293  0.7680799861418705  0.5388080578750447  1.0000
  C   C31       1.0  0.6980351343368056  0.2682259436273497  0.0389104569037642  1.0000
  C   C32       1.0  0.005325697445997064  0.2319209283421415  0.4611915789745495  1.0000
  C   C33       1.0  0.03909710298167099  0.5377944276130718  0.9104452770281669  1.0000
  C   C34       1.0  0.4874916337432681  0.961837745514394  0.5895100022201945  1.0000
  C   C35       1.0  0.9609037496955749  0.4622055140156078  0.08955300250836729  1.0000
  C   C36       1.0  0.5125068395977764  0.0381612232589532  0.4104900582397306  1.0000
  C   C37       1.0  0.5682923128672144  0.7815540324921597  0.9700485828035214  1.0000
  C   C38       1.0  0.3197461360098044  0.7182931416637074  0.5299112930303168  1.0000
  C   C39       1.0  0.431706958361211  0.21844590913651976  0.029950131549938402  1.0000
  C   C40       1.0  0.6802545852447395  0.2817087456756369  0.47008831475455554  1.0000
  C   C41       1.0  0.4078276561459617  0.8601140462740204  0.9966192619483608  1.0000
  C   C42       1.0  0.2644643643537917  0.6397078336432144  0.5033579164284632  1.0000
  C   C43       1.0  0.5921722120184398  0.13988394964399478  0.003381098539200908  1.0000
  C   C44       1.0  0.7355330217035106  0.36029502655146217  0.4966410384388383  1.0000
  C   C45       1.0  0.9487616221410415  0.4290116900826106  0.7133604159216632  1.0000
  C   C46       1.0  0.09164447584961981  0.0707470126093526  0.7866092633213313  1.0000
  C   C47       1.0  0.05123902958482776  0.5709853329800723  0.2866408558554312  1.0000
  C   C48       1.0  0.9083577059396292  0.9292529290193272  0.21338998036701182  1.0000
  C   C49       1.0  0.7415034038000458  0.6171142414093396  0.6718745724600909  1.0000
  C   C50       1.0  0.030776814605757995  0.8827484984318446  0.828224453844598  1.0000
  C   C51       1.0  0.2585007840744424  0.3828847273640079  0.328124359994014  1.0000
  C   C52       1.0  0.9692251148466585  0.11725144319683518  0.171776188812487  1.0000
  N   N1        1.0  0.2762364399840181  0.8371653618439082  0.9920848570480203  1.0000
  N   N2        1.0  0.10539405750540684  0.6626857037332883  0.5078547434258169  1.0000
  N   N3        1.0  0.7237621542711565  0.1628355526401037  0.007915132691500994  1.0000
  N   N4        1.0  0.8946024792790792  0.3373191021720458  0.4921439642761243  1.0000
  N   N5        1.0  0.7525768413794013  0.5960645705875932  0.900152428100192  1.0000
  N   N6        1.0  0.24870111866213296  0.9037913592662716  0.5997711172503983  1.0000
  N   N7        1.0  0.24742278877407406  0.4039353710410865  0.09984707396011322  1.0000
  N   N8        1.0  0.751300265239749  0.09620760950707559  0.4002294725444031  1.0000
  N   N9        1.0  0.8681206121131742  0.5112948212206163  0.6503074874071402  1.0000
  N   N10       1.0  0.030218063678340453  0.9885319229732872  0.8497292265380026  1.0000
  N   N11       1.0  0.13188119642511964  0.488703174697406  0.3496932259703485  1.0000
  N   N12       1.0  0.9697801059404296  0.0114699643660572  0.15027063961883164  1.0000
  Cl  Cl1       1.0  0.12494143991752786  0.18216521523461177  0.9532461535990251  1.0000
  Cl  Cl2       1.0  0.26046179481853227  0.317755954297823  0.5466821318357731  1.0000
  Cl  Cl3       1.0  0.8750580588132383  0.8178366721047323  0.04675467670962526  1.0000
  Cl  Cl4       1.0  0.73953794192316  0.6822439873308567  0.4533195569001265  1.0000
