data_image0
_chemical_formula_structural       Cu2Mo2P4H24C22N4O18
_chemical_formula_sum              "Cu2 Mo2 P4 H24 C22 N4 O18"
_cell_length_a       8.08679148557636
_cell_length_b       8.643821479870242
_cell_length_c       11.8562494814153
_cell_angle_alpha    82.14990692439264
_cell_angle_beta     77.32476655419396
_cell_angle_gamma    75.53188841334233

_space_group_name_H-M_alt    "P 1"
_space_group_IT_number       1

loop_
  _space_group_symop_operation_xyz
  'x, y, z'

loop_
  _atom_site_type_symbol
  _atom_site_label
  _atom_site_symmetry_multiplicity
  _atom_site_fract_x
  _atom_site_fract_y
  _atom_site_fract_z
  _atom_site_occupancy
  Cu  Cu1       1.0  0.2364500977684186  0.910549213904659  0.2988878055391666  1.0000
  Cu  Cu2       1.0  0.763540459579616  0.08946703790535081  0.7010906661323306  1.0000
  Mo  Mo1       1.0  0.32786891577840277  0.2736194591412797  0.8622205986003593  1.0000
  Mo  Mo2       1.0  0.6721244862121409  0.7263788570584354  0.13779635197587237  1.0000
  P   P1        1.0  0.08488791796946771  0.6799700072148055  0.17137530686495245  1.0000
  P   P2        1.0  0.915104217969407  0.3200186885904586  0.8286174824463117  1.0000
  P   P3        1.0  0.31295473123361706  0.9020568232861167  0.03172488992935032  1.0000
  P   P4        1.0  0.6870321385563399  0.09793191847737151  0.9682939693322155  1.0000
  H   H1        1.0  0.38628566262748615  0.1992208893736773  0.18621195852860248  1.0000
  H   H2        1.0  0.6137306837931432  0.8007881244831765  0.8137718912736602  1.0000
  H   H3        1.0  0.4562708801168114  0.4271569938844948  0.2620090767957066  1.0000
  H   H4        1.0  0.5437370702015727  0.5728233092723656  0.738006691534402  1.0000
  H   H5        1.0  0.41043994763547426  0.43434412359589203  0.47885431613404  1.0000
  H   H6        1.0  0.5895780343847363  0.5656421354799336  0.521148426149793  1.0000
  H   H7        1.0  0.29897288402475647  0.21633248604029381  0.609085407376469  1.0000
  H   H8        1.0  0.7010316155910273  0.7836525737342583  0.39089665526898904  1.0000
  H   H9        1.0  0.21423245963572407  0.0142400962107843  0.7072292998333297  1.0000
  H   H10       1.0  0.7857519850536007  0.9857594009990508  0.2927610111008647  1.0000
  H   H11       1.0  0.11651676974180698  0.7670743683804275  0.8010353229976631  1.0000
  H   H12       1.0  0.8834770742211688  0.23293830300669785  0.19895989246094095  1.0000
  H   H13       1.0  0.06336944704927559  0.57902759300854  0.679367687569048  1.0000
  H   H14       1.0  0.9366233137393037  0.42099467095963666  0.3206275759322565  1.0000
  H   H15       1.0  0.11581146859007412  0.645053390794864  0.45953629708844096  1.0000
  H   H16       1.0  0.8841898493873686  0.3549388952102531  0.5404657554990921  1.0000
  H   H17       1.0  0.04587167063193221  0.8631343772744557  0.002814056209650986  1.0000
  H   H18       1.0  0.9541258299051589  0.13689389318840736  0.9971976283045266  1.0000
  H   H19       1.0  0.2172859409907487  0.6923496447714543  0.9691614428868933  1.0000
  H   H20       1.0  0.782711631072125  0.3076582203598477  0.030831174336164203  1.0000
  H   H21       1.0  0.1803721334840276  0.18943546372725711  0.0856748421310982  1.0000
  H   H22       1.0  0.8196070461075281  0.810559267827692  0.9143293654166699  1.0000
  H   H23       1.0  0.14488182892477394  0.3850555640617515  0.08228691087629873  1.0000
  H   H24       1.0  0.8551259324764898  0.6149570819480915  0.9177104864752222  1.0000
  C   C1        1.0  0.36738455808114157  0.20896057118369532  0.278896599870258  1.0000
  C   C2        1.0  0.6326327945881474  0.7910544449649421  0.7210949401209349  1.0000
  C   C3        1.0  0.40686118858432246  0.3348667075106134  0.32217543500097895  1.0000
  C   C4        1.0  0.5931591258984312  0.6651255406358701  0.6778272135683707  1.0000
  C   C5        1.0  0.3812125879462371  0.3379542093828293  0.4418738104903853  1.0000
  C   C6        1.0  0.6188036805737197  0.6620392373061892  0.5581225637334059  1.0000
  C   C7        1.0  0.3183420375018641  0.21636772639028123  0.5153297242078808  1.0000
  C   C8        1.0  0.6816799350110327  0.7836233023265321  0.48466015114804867  1.0000
  C   C9        1.0  0.2822940642540743  0.09372802003714042  0.4663716375955502  1.0000
  C   C10       1.0  0.7177026204900939  0.9062726746882108  0.5336361612766185  1.0000
  C   C11       1.0  0.22050507207616477  0.9563201036171948  0.5337863619955527  1.0000
  C   C12       1.0  0.7794811996434275  0.043666227406546895  0.4662218597772141  1.0000
  C   C13       1.0  0.19319128322641888  0.9294897624721018  0.6547707954188199  1.0000
  C   C14       1.0  0.8067902675342821  0.07051095122726993  0.3452282527511912  1.0000
  C   C15       1.0  0.13792283184348963  0.791967071890994  0.7072242972627907  1.0000
  C   C16       1.0  0.8620626448988985  0.20803842299311984  0.29277032675146597  1.0000
  C   C17       1.0  0.11024483066821482  0.6849860105033017  0.6389897228864286  1.0000
  C   C18       1.0  0.8897447113902712  0.3150182823751564  0.3610086426417497  1.0000
  C   C19       1.0  0.13750147182412317  0.720038203728379  0.5192185580004606  1.0000
  C   C20       1.0  0.8624838313022494  0.2799469296904249  0.480789081256809  1.0000
  C   C21       1.0  0.15989068503837692  0.7832039713189973  0.031744862864535234  1.0000
  C   C22       1.0  0.8401212556964737  0.21681707513263154  0.9682654256844929  1.0000
  N   N1        1.0  0.3053056644905752  0.09311189681930898  0.3494097318395292  1.0000
  N   N2        1.0  0.694714688622568  0.9069163180547052  0.6505952382133557  1.0000
  N   N3        1.0  0.19142334182814827  0.85208547229135  0.4687626692938097  1.0000
  N   N4        1.0  0.8085577863134218  0.147900882757483  0.5312555811621779  1.0000
  O   O1        1.0  0.2470398851175943  0.002797401401871  0.13830693643879502  1.0000
  O   O2        1.0  0.7529667167472309  0.9972200394284271  0.8616884669452748  1.0000
  O   O3        1.0  0.47418754035317773  0.22209133194056824  0.7353461669780048  1.0000
  O   O4        1.0  0.5258600739081627  0.7778876737606167  0.26465633154790424  1.0000
  O   O5        1.0  0.32562079010116207  0.012551867679071902  0.9199304148152765  1.0000
  O   O6        1.0  0.6744245696745209  0.9874007424655176  0.0800522658567715  1.0000
  O   O7        1.0  0.4873134099906692  0.7772960606565745  0.04032428383982993  1.0000
  O   O8        1.0  0.512676718774607  0.22272141467762196  0.9596718412999082  1.0000
  O   O9        1.0  0.2960124350115975  0.47720226874815813  0.855696944033781  1.0000
  O   O10       1.0  0.7039602580245371  0.5227984613102806  0.14430086916386398  1.0000
  O   O11       1.0  0.878286092652061  0.7406717363614562  0.194369993861443  1.0000
  O   O12       1.0  0.12171533450661089  0.2593049489989454  0.8056200991083955  1.0000
  O   O13       1.0  0.15262861034682368  0.29092981225040404  0.03509325513663702  1.0000
  O   O14       1.0  0.8473664238694594  0.7090672891371385  0.9649142993350283  1.0000
  O   O15       1.0  0.14637255429381915  0.7336636258356322  0.27005942092015534  1.0000
  O   O16       1.0  0.8535874750171786  0.26632635966984713  0.7299522799622125  1.0000
  O   O17       1.0  0.13765683008767127  0.5009552674083153  0.16599762283485833  1.0000
  O   O18       1.0  0.8623520283651303  0.49907894575239453  0.8339932517296378  1.0000
