data_image0
_chemical_formula_structural       Na2H20C24S2N2O22
_chemical_formula_sum              "Na2 H20 C24 S2 N2 O22"
_cell_length_a       6.903692163643467
_cell_length_b       10.102992519034157
_cell_length_c       12.526876264204475
_cell_angle_alpha    71.87768593704924
_cell_angle_beta     87.20529607834189
_cell_angle_gamma    73.65611717622501

_space_group_name_H-M_alt    "P 1"
_space_group_IT_number       1

loop_
  _space_group_symop_operation_xyz
  'x, y, z'

loop_
  _atom_site_type_symbol
  _atom_site_label
  _atom_site_symmetry_multiplicity
  _atom_site_fract_x
  _atom_site_fract_y
  _atom_site_fract_z
  _atom_site_occupancy
  Na  Na1       1.0  0.3065686560767489  0.8112991305164172  0.6258331733015654  1.0000
  Na  Na2       1.0  0.6934359776298394  0.18869351533532347  0.37416683413724894  1.0000
  H   H1        1.0  0.637182120119462  0.4102204233620625  0.5015109559684775  1.0000
  H   H2        1.0  0.3628238304649401  0.5897864220275152  0.49848637828260695  1.0000
  H   H3        1.0  0.8949241531583637  0.007614609509552396  0.23140582324666079  1.0000
  H   H4        1.0  0.10507698493844933  0.9923758893271001  0.7685900168675986  1.0000
  H   H5        1.0  0.7319551750611738  0.19100801236033502  0.7514461952974473  1.0000
  H   H6        1.0  0.2680415428082554  0.8089965646522116  0.2485487682572157  1.0000
  H   H7        1.0  0.7987571501800232  0.06924193013679061  0.9555119251843468  1.0000
  H   H8        1.0  0.20124745521476953  0.930754113420242  0.04448087480431447  1.0000
  H   H9        1.0  0.747742665954526  0.45558599143585343  0.10968263837662565  1.0000
  H   H10       1.0  0.25226000712235225  0.5444044243915442  0.8903187647752377  1.0000
  H   H11       1.0  0.7906649981164336  0.8164259627843931  0.8280332129525836  1.0000
  H   H12       1.0  0.20932558385248262  0.1835761496060258  0.17197210923277598  1.0000
  H   H13       1.0  0.4131867103638953  0.8490440860929381  0.4052613008693984  1.0000
  H   H14       1.0  0.5868144498622455  0.1509637907301169  0.5947351280884166  1.0000
  H   H15       1.0  0.3234267166835352  0.007738470169599097  0.41425857730554594  1.0000
  H   H16       1.0  0.6765716421258504  0.9922692704059981  0.5857427580961033  1.0000
  H   H17       1.0  0.943683623658764  0.0721878343443478  0.6144297227957624  1.0000
  H   H18       1.0  0.05631598961760182  0.9278167731225722  0.38556594569674013  1.0000
  H   H19       1.0  0.0984819211430264  0.16225895525212045  0.6071698155384697  1.0000
  H   H20       1.0  0.9015242072621205  0.8377336529302679  0.3928333500601014  1.0000
  C   C1        1.0  0.7763859367658769  0.6278200017164863  0.7866335264040459  1.0000
  C   C2        1.0  0.22361126337679593  0.3721800929190806  0.21336889330026318  1.0000
  C   C3        1.0  0.7500910457147185  0.4854153563175385  0.8265246977423576  1.0000
  C   C4        1.0  0.24990902298055329  0.5145847989989958  0.17347682364788145  1.0000
  C   C5        1.0  0.7242922561570213  0.4014031215794203  0.7574067915093823  1.0000
  C   C6        1.0  0.2757136153218341  0.5986004470112575  0.24259133718424417  1.0000
  C   C7        1.0  0.6382453687206182  0.4618906149058972  0.6394248690620261  1.0000
  C   C8        1.0  0.3617552852928583  0.5381150395633512  0.36057370889074053  1.0000
  C   C9        1.0  0.74741206051619  0.25407782167301457  0.805169035695478  1.0000
  C   C10       1.0  0.2525965869825484  0.7459225459130251  0.1948281875006545  1.0000
  C   C11       1.0  0.7805267533352663  0.18507897362091089  0.921312263248183  1.0000
  C   C12       1.0  0.2194813610964701  0.8149192018379167  0.07868550569099858  1.0000
  C   C13       1.0  0.7735150124104354  0.26657721395614686  0.9923190113895262  1.0000
  C   C14       1.0  0.2264877785960452  0.7334198008089529  0.007678397999420403  1.0000
  C   C15       1.0  0.777524102951482  0.19197785967628525  0.11575110767790162  1.0000
  C   C16       1.0  0.22247914347389744  0.8080147029384291  0.8842521546087813  1.0000
  C   C17       1.0  0.756607264131233  0.41858700800742804  0.9471948651834841  1.0000
  C   C18       1.0  0.24339037654571175  0.581412017069745  0.05280700159436692  1.0000
  C   C19       1.0  0.7519555320594123  0.5027376106898772  0.019263678878026286  1.0000
  C   C20       1.0  0.24804779347152114  0.4972582287237371  0.9807387889661218  1.0000
  C   C21       1.0  0.7503354163761171  0.6456398724446331  0.9739256240782129  1.0000
  C   C22       1.0  0.24966369214504178  0.35435914518978956  0.026077797607477724  1.0000
  C   C23       1.0  0.7725345678848113  0.7075602452101322  0.8588742394655359  1.0000
  C   C24       1.0  0.22746119126797038  0.29243982664159757  0.14112822858282933  1.0000
  S   S1        1.0  0.8311430855383293  0.716525049384856  0.6442323021701245  1.0000
  S   S2        1.0  0.16884892399330204  0.28347710090269357  0.3557721700452206  1.0000
  N   N1        1.0  0.7306435321725149  0.7348882495298311  0.0489783826426234  1.0000
  N   N2        1.0  0.269348410223273  0.2651139763242085  0.9510220814429647  1.0000
  O   O1        1.0  0.8872555494115134  0.6102278911161321  0.5841195281143572  1.0000
  O   O2        1.0  0.11274230172775652  0.38978099458434906  0.41587835208398644  1.0000
  O   O3        1.0  0.6404408759157435  0.8330759907933681  0.5983538967107904  1.0000
  O   O4        1.0  0.35954550247057443  0.16692928470455118  0.4016531809420628  1.0000
  O   O5        1.0  0.9912817847234905  0.7802408401584984  0.6566132291699632  1.0000
  O   O6        1.0  0.00871357417652523  0.21976025591172993  0.34339219668272153  1.0000
  O   O7        1.0  0.48574942881493405  0.5689397936433664  0.6098781926283225  1.0000
  O   O8        1.0  0.5142517060143279  0.43106474592759975  0.3901222372758327  1.0000
  O   O9        1.0  0.716433326076306  0.3783114550517794  0.5765645632123795  1.0000
  O   O10       1.0  0.2835692885668876  0.6216964294418189  0.4234326190273309  1.0000
  O   O11       1.0  0.8975239108826331  0.05700233583703351  0.1462186152479035  1.0000
  O   O12       1.0  0.10248008233961076  0.9429882387938872  0.8537755249263344  1.0000
  O   O13       1.0  0.6754065883591879  0.24987693106039902  0.18133729553129999  1.0000
  O   O14       1.0  0.32461073665820095  0.7501061347890497  0.8186622552607405  1.0000
  O   O15       1.0  0.7475331286820078  0.6733834163247963  0.15198690669033252  1.0000
  O   O16       1.0  0.25246411028471266  0.326620000449573  0.8480123136935876  1.0000
  O   O17       1.0  0.6943182901341205  0.8680475619653975  0.004013480698617436  1.0000
  O   O18       1.0  0.30565642606143234  0.1319576823948267  0.995985967447169  1.0000
  O   O19       1.0  0.2932726638620126  0.9127506804989164  0.4253972009187808  1.0000
  O   O20       1.0  0.7067299253843018  0.08725386674258569  0.5746039822672702  1.0000
  O   O21       1.0  0.08508448137974514  0.0639515274738969  0.6373338080534198  1.0000
  O   O22       1.0  0.9149167358226152  0.9360422481616623  0.36266123761829766  1.0000
