data_image0
_chemical_formula_structural       V4Cu4As4H12C16N8O24
_chemical_formula_sum              "V4 Cu4 As4 H12 C16 N8 O24"
_cell_length_a       7.869613344316522
_cell_length_b       10.33084699951204
_cell_length_c       11.768224718772512
_cell_angle_alpha    99.39170783453149
_cell_angle_beta     90.0167442981452
_cell_angle_gamma    112.3811639419514

_space_group_name_H-M_alt    "P 1"
_space_group_IT_number       1

loop_
  _space_group_symop_operation_xyz
  'x, y, z'

loop_
  _atom_site_type_symbol
  _atom_site_label
  _atom_site_symmetry_multiplicity
  _atom_site_fract_x
  _atom_site_fract_y
  _atom_site_fract_z
  _atom_site_occupancy
  V   V1        1.0  0.6571885515523732  0.6664239258564139  0.23727476701487396  1.0000
  V   V2        1.0  0.9910062073923458  0.33349229244090134  0.2629493172602864  1.0000
  V   V3        1.0  0.3428112014950457  0.3335705077478436  0.7627253517508024  1.0000
  V   V4        1.0  0.00899786903330106  0.6665158741190708  0.7370475129955594  1.0000
  Cu  Cu1       1.0  0.25900822701711224  0.2516674940054386  0.4601689169665448  1.0000
  Cu  Cu2       1.0  0.007024433037699233  0.7482866380783049  0.03986001446717318  1.0000
  Cu  Cu3       1.0  0.7409908026860279  0.7483280336796411  0.5398330456015117  1.0000
  Cu  Cu4       1.0  0.9929710540832135  0.2517119729767714  0.9601364053224231  1.0000
  As  As1       1.0  0.6726687176325046  0.43106210124388866  0.3924980486271892  1.0000
  As  As2       1.0  0.24134464354087728  0.5687693553208817  0.1076186612305605  1.0000
  As  As3       1.0  0.3273286543639172  0.5689301137219402  0.6074966784760534  1.0000
  As  As4       1.0  0.7586565985128785  0.4312356821748152  0.8923811556580715  1.0000
  H   H1        1.0  0.5411555462267189  0.9536745959943078  0.6317751218136678  1.0000
  H   H2        1.0  0.5875655722903377  0.0469649436842516  0.8686299292846585  1.0000
  H   H3        1.0  0.4588541373333614  0.0463295307829128  0.3682330741985496  1.0000
  H   H4        1.0  0.41242537941749874  0.9530347615770646  0.13136833395230946  1.0000
  H   H5        1.0  0.6336254075391352  0.22164210058335237  0.6406312749127423  1.0000
  H   H6        1.0  0.41162147125991316  0.7789670040899779  0.8596316042860863  1.0000
  H   H7        1.0  0.36639059812746666  0.7783619647804512  0.3593735142858563  1.0000
  H   H8        1.0  0.5883687727743878  0.2210338258543629  0.1403702064559127  1.0000
  H   H9        1.0  0.950994033847927  0.3594682663895412  0.5794556013599532  1.0000
  H   H10       1.0  0.5909596824690269  0.6407953997720808  0.9206648374389133  1.0000
  H   H11       1.0  0.04901268997434014  0.6405324865058333  0.4205419516638074  1.0000
  H   H12       1.0  0.40902907569987695  0.35920754182841813  0.0793364016512044  1.0000
  C   C1        1.0  0.9433438651584682  0.0370104045908803  0.525811140681796  1.0000
  C   C2        1.0  0.9062836100618483  0.9630762457355856  0.9742607148752284  1.0000
  C   C3        1.0  0.056662350495329965  0.9629893307709738  0.4741888276778781  1.0000
  C   C4        1.0  0.09370608662712242  0.0369234901697411  0.0257392519460566  1.0000
  C   C5        1.0  0.6721514792603713  0.0228083576741938  0.604592630667085  1.0000
  C   C6        1.0  0.6492587002690583  0.9776503366360171  0.8957427772463759  1.0000
  C   C7        1.0  0.3278583411218037  0.9771935044776967  0.3954076183653967  1.0000
  C   C8        1.0  0.35073532449256123  0.0223504319785093  0.1042556264453296  1.0000
  C   C9        1.0  0.7258589699534639  0.1687358902245464  0.6109543055564117  1.0000
  C   C10       1.0  0.5568215973534835  0.831731208790721  0.8893019503026522  1.0000
  C   C11       1.0  0.27415581203575806  0.8312682669876494  0.3890555946318131  1.0000
  C   C12       1.0  0.44317024170457864  0.1682728114640923  0.1107002810935356  1.0000
  C   C13       1.0  0.8990936016570076  0.2448954852664329  0.5749781539607284  1.0000
  C   C14       1.0  0.6537991065298598  0.7553772161188163  0.9251938322582802  1.0000
  C   C15       1.0  0.10092110981388905  0.7551085342358802  0.42502407956554566  1.0000
  C   C16       1.0  0.3461941870521273  0.2446246312754425  0.0748055633844729  1.0000
  N   N1        1.0  0.007274506122989493  0.17791288773815234  0.5314828567856082  1.0000
  N   N2        1.0  0.8290680658989162  0.8221889288047848  0.968605265518157  1.0000
  N   N3        1.0  0.9927352985884426  0.8220889438115363  0.4685156885442083  1.0000
  N   N4        1.0  0.17092216246464176  0.17781187053736147  0.031394841521184  1.0000
  N   N5        1.0  0.7832249300811469  0.9577011753616201  0.5623864165775103  1.0000
  N   N6        1.0  0.8255775465267025  0.0425456785599323  0.9377536187287134  1.0000
  N   N7        1.0  0.21678236459256087  0.04230071747607409  0.4376155359209477  1.0000
  N   N8        1.0  0.17441298266491853  0.9574582652311888  0.06224435329249901  1.0000
  O   O1        1.0  0.48406738431192764  0.2774068529863953  0.38056911203322846  1.0000
  O   O2        1.0  0.2062912607477827  0.7223900279922333  0.1194957469996041  1.0000
  O   O3        1.0  0.5159380072113962  0.7225836020395064  0.6194457798941286  1.0000
  O   O4        1.0  0.7937196616236121  0.2776191252900375  0.8804969648093534  1.0000
  O   O5        1.0  0.7146225123431693  0.54971867772921  0.517579010504015  1.0000
  O   O6        1.0  0.16480207807109795  0.45024814698205523  0.9824598251901264  1.0000
  O   O7        1.0  0.28539051007952315  0.4502819678494562  0.4824125801521292  1.0000
  O   O8        1.0  0.8351914620281561  0.5497516500022427  0.017543549391483275  1.0000
  O   O9        1.0  0.6833172979553979  0.5046552988875774  0.2677315315145563  1.0000
  O   O10       1.0  0.17870210638236017  0.49527975329851154  0.23244135584508996  1.0000
  O   O11       1.0  0.31664881182851456  0.49532521910931127  0.73226165082324  1.0000
  O   O12       1.0  0.8213008868657499  0.5047338682808729  0.7675638418080055  1.0000
  O   O13       1.0  0.8610675671446161  0.37915437514371314  0.3833912120327554  1.0000
  O   O14       1.0  0.48166399997496967  0.6207321089123994  0.11671589734329052  1.0000
  O   O15       1.0  0.13893064518981643  0.6208420630090075  0.6166023721217472  1.0000
  O   O16       1.0  0.518339419946976  0.37926966164192777  0.8832792399895268  1.0000
  O   O17       1.0  0.07316136719530417  0.21796930290638264  0.2938600665124085  1.0000
  O   O18       1.0  0.8546957217865198  0.7820311087683648  0.20629810825921166  1.0000
  O   O19       1.0  0.926841962379953  0.7820399118311129  0.7061360519918338  1.0000
  O   O20       1.0  0.14531099889480714  0.21795692857941873  0.7937003182934604  1.0000
  O   O21       1.0  0.4043116311180058  0.2611525280023841  0.6436206243431428  1.0000
  O   O22       1.0  0.14279472667424628  0.7389145371192284  0.856220568933999  1.0000
  O   O23       1.0  0.5956828600311113  0.7388313783413308  0.356384055201204  1.0000
  O   O24       1.0  0.8572092562637722  0.2610883580763144  0.1437781160221974  1.0000
