data_image0
_chemical_formula_structural       Cd2H14C16S4N6O2
_chemical_formula_sum              "Cd2 H14 C16 S4 N6 O2"
_cell_length_a       8.17635777117238
_cell_length_b       8.505676694981895
_cell_length_c       9.755544324391261
_cell_angle_alpha    69.25067338891094
_cell_angle_beta     72.45360263680776
_cell_angle_gamma    72.3666214216301

_space_group_name_H-M_alt    "P 1"
_space_group_IT_number       1

loop_
  _space_group_symop_operation_xyz
  'x, y, z'

loop_
  _atom_site_type_symbol
  _atom_site_label
  _atom_site_symmetry_multiplicity
  _atom_site_fract_x
  _atom_site_fract_y
  _atom_site_fract_z
  _atom_site_occupancy
  Cd  Cd1       1.0  0.6336864036365314  0.6428400203131729  0.5160299511608314  1.0000
  Cd  Cd2       1.0  0.36631154629984053  0.3571574518233902  0.4839712068373884  1.0000
  H   H1        1.0  0.4723194310935242  0.326567263136468  0.9112448494615109  1.0000
  H   H2        1.0  0.5276782103325318  0.6734366568752392  0.08875750089641343  1.0000
  H   H3        1.0  0.9606796535255315  0.9087852125388096  0.706192666753317  1.0000
  H   H4        1.0  0.03931617523158343  0.09121612525451182  0.2938037267584122  1.0000
  H   H5        1.0  0.7871251719253042  0.16988687798582447  0.5430658551807853  1.0000
  H   H6        1.0  0.21286682084550537  0.830114409108944  0.4569314755246408  1.0000
  H   H7        1.0  0.6287478870349403  0.07230896711922699  0.09001968463359598  1.0000
  H   H8        1.0  0.3712549068968585  0.9276950287563893  0.9099793541537906  1.0000
  H   H9        1.0  0.8766720630245859  0.8221561050663978  0.12776489726156368  1.0000
  H   H10       1.0  0.12333204985969104  0.17784275677429665  0.8722302571471089  1.0000
  H   H11       1.0  0.04301258251325633  0.7812439950012546  0.9681720611008869  1.0000
  H   H12       1.0  0.9569877298090221  0.2187599836069793  0.031823478524394454  1.0000
  H   H13       1.0  0.8538551040353541  0.6960322088578865  0.02662641220658908  1.0000
  H   H14       1.0  0.14614780346846606  0.30397181181521665  0.9733664406439572  1.0000
  C   C1        1.0  0.02555386032500455  0.45642775227527466  0.3303648187745551  1.0000
  C   C2        1.0  0.9744449864815009  0.5435710089040241  0.6696398331414954  1.0000
  C   C3        1.0  0.3412082340603251  0.9462618749558445  0.6617778890683467  1.0000
  C   C4        1.0  0.6587993140896202  0.05373830559371131  0.3382211654518343  1.0000
  C   C5        1.0  0.5808422797780255  0.22829126109114378  0.8751195548233922  1.0000
  C   C6        1.0  0.41915975300287295  0.7717101198706261  0.1248855865935852  1.0000
  C   C7        1.0  0.8529758456723757  0.9972677931158317  0.7571082188381623  1.0000
  C   C8        1.0  0.14702089888353956  0.0027348378531399996  0.24289063760192417  1.0000
  C   C9        1.0  0.8083328935326154  0.9665991964943714  0.9135592835823303  1.0000
  C   C10       1.0  0.19167116256564756  0.0333996529475797  0.08643896379476247  1.0000
  C   C11       1.0  0.7614118578433351  0.1386797179160624  0.6648034524589689  1.0000
  C   C12       1.0  0.2385836080504762  0.861322896153389  0.33519571637901163  1.0000
  C   C13       1.0  0.6699511025462146  0.0877950077704668  0.9699743992274678  1.0000
  C   C14       1.0  0.33005102487804566  0.9122063938558753  0.030025587242143045  1.0000
  C   C15       1.0  0.9009127471743885  0.8095665550298037  0.015048542312761991  1.0000
  C   C16       1.0  0.09908815837378174  0.19043484209576886  0.9849486635863228  1.0000
  S   S1        1.0  0.3213386786612419  0.7486866406454169  0.7049140995142337  1.0000
  S   S2        1.0  0.6786677881979274  0.2513018911317175  0.2950887509791115  1.0000
  S   S3        1.0  0.23172548831744427  0.3926661027570263  0.25290114702669797  1.0000
  S   S4        1.0  0.7682743689312231  0.6073339722624952  0.7471008128703431  1.0000
  N   N1        1.0  0.8764435732172163  0.5004954325247013  0.38668482037117247  1.0000
  N   N2        1.0  0.12356224119700703  0.4995008275366147  0.6133209668186693  1.0000
  N   N3        1.0  0.6252747610081502  0.2502356690318734  0.7249699110775863  1.0000
  N   N4        1.0  0.37471902550293396  0.7497681961483593  0.27503440746350094  1.0000
  N   N5        1.0  0.3553473030703174  0.08915582400836539  0.6351837832329252  1.0000
  N   N6        1.0  0.6446556906658429  0.910831380794079  0.36481722912785836  1.0000
  O   O1        1.0  0.5330399372811528  0.38436830628365476  0.6367900903256539  1.0000
  O   O2        1.0  0.46695266521118145  0.6156355626616301  0.3632093856659607  1.0000
