data_image0
_chemical_formula_structural       Ag4H18C28N6Cl8O8
_chemical_formula_sum              "Ag4 H18 C28 N6 Cl8 O8"
_cell_length_a       7.466846243592066
_cell_length_b       8.821995721434646
_cell_length_c       14.230456188789647
_cell_angle_alpha    91.28842796835944
_cell_angle_beta     101.87700519896525
_cell_angle_gamma    101.98560473665889

_space_group_name_H-M_alt    "P 1"
_space_group_IT_number       1

loop_
  _space_group_symop_operation_xyz
  'x, y, z'

loop_
  _atom_site_type_symbol
  _atom_site_label
  _atom_site_symmetry_multiplicity
  _atom_site_fract_x
  _atom_site_fract_y
  _atom_site_fract_z
  _atom_site_occupancy
  Ag  Ag1       1.0  0.34791078472655107  0.011900785245963203  0.0924714577354564  1.0000
  Ag  Ag2       1.0  0.652085595597569  0.9880946387178541  0.9075262349546164  1.0000
  Ag  Ag3       1.0  0.0698814941366237  0.2894425058285749  0.10290373284536967  1.0000
  Ag  Ag4       1.0  0.9301202389100637  0.7105575787690485  0.8970959696126426  1.0000
  H   H1        1.0  0.15848296803512343  0.72325078891992  0.3843147058630194  1.0000
  H   H2        1.0  0.8415226245768397  0.27674815395902647  0.6156874820941027  1.0000
  H   H3        1.0  0.43712292242253875  0.0544806567945955  0.2870909288853553  1.0000
  H   H4        1.0  0.5628774786737976  0.9455194363536632  0.7129100439643848  1.0000
  H   H5        1.0  0.3405046253891797  0.9886467886355634  0.38817266034681797  1.0000
  H   H6        1.0  0.6594995983756887  0.011352152702258402  0.6118293885638406  1.0000
  H   H7        1.0  0.1999049126086163  0.056189179669864614  0.28696106896620677  1.0000
  H   H8        1.0  0.8000976399880317  0.9438085986471665  0.7130407951003974  1.0000
  H   H9        1.0  0.1174307555471188  0.3312407632099054  0.309236783569709  1.0000
  H   H10       1.0  0.8825649343656748  0.6687570023556334  0.6907636805454515  1.0000
  H   H11       1.0  0.8923251454914691  0.3671827485508104  0.26656825330615413  1.0000
  H   H12       1.0  0.10767223403792771  0.6328161850814029  0.7334331003721672  1.0000
  H   H13       1.0  0.02578084657410778  0.4495102077058847  0.38253718528742553  1.0000
  H   H14       1.0  0.974217883354008  0.5504887224215697  0.6174636027182601  1.0000
  H   H15       1.0  0.31968570286026937  0.729163709978579  0.011035372987663494  1.0000
  H   H16       1.0  0.680315197016519  0.2708329103635307  0.9889670109539848  1.0000
  H   H17       1.0  0.21413247396246493  0.5338835985688419  0.007780765554031201  1.0000
  H   H18       1.0  0.7858673409399872  0.466114176665947  0.9922208204196323  1.0000
  C   C1        1.0  0.20964750327555493  0.6646144187454369  0.1273657865393503  1.0000
  C   C2        1.0  0.7903536804739915  0.33538335803046954  0.8726359384807835  1.0000
  C   C3        1.0  0.11738075767857481  0.5594377592966568  0.262274266368614  1.0000
  C   C4        1.0  0.8826201053014628  0.44055885095369973  0.7377267081348291  1.0000
  C   C5        1.0  0.17223148431549617  0.7064452311502621  0.3103606116089209  1.0000
  C   C6        1.0  0.8277713521539026  0.2935537036005583  0.6896405935361684  1.0000
  C   C7        1.0  0.24694205248200526  0.8320747160763348  0.2621884977017785  1.0000
  C   C8        1.0  0.7530621528344882  0.16792422021561043  0.7378128464897812  1.0000
  C   C9        1.0  0.3112644568784617  0.9919262694801816  0.3096882428596501  1.0000
  C   C10       1.0  0.6887369922954677  0.008072658683644802  0.6903121185198771  1.0000
  C   C11       1.0  0.03359971805863889  0.42008587855929147  0.3084943582789633  1.0000
  C   C12       1.0  0.9663976614707581  0.5799130550729216  0.691506995399358  1.0000
  C   C13       1.0  0.8089419422657258  0.041287957352160704  0.17636007217809174  1.0000
  C   C14       1.0  0.19105701619002244  0.9587121140714673  0.8236379427487889  1.0000
  C   C15       1.0  0.7497815655504353  0.8939958068529139  0.22561265091454893  1.0000
  C   C16       1.0  0.2502152967501345  0.10600659453956503  0.7743865869527723  1.0000
  C   C17       1.0  0.7486522615145789  0.8997639003789574  0.3237716276425857  1.0000
  C   C18       1.0  0.2513448477619987  0.10023964735556494  0.6762255418650297  1.0000
  C   C19       1.0  0.6908199788924704  0.7634089485403736  0.36874673482171966  1.0000
  C   C20       1.0  0.3091754776642547  0.2365934412192345  0.6312509545609328  1.0000
  C   C21       1.0  0.6354603927039052  0.6195273864359407  0.31490058703831636  1.0000
  C   C22       1.0  0.36453510074957757  0.38047501341542045  0.6850985117825344  1.0000
  C   C23       1.0  0.6396714871664814  0.6135929759319155  0.2165288790798456  1.0000
  C   C24       1.0  0.36032916090587  0.38640826355838  0.7834700254101961  1.0000
  C   C25       1.0  0.6979509907751833  0.7499225528553595  0.17236419123926788  1.0000
  C   C26       1.0  0.30204995961830144  0.2500798481146091  0.8276347590483581  1.0000
  C   C27       1.0  0.7096764057203944  0.7491355485298785  0.0676415543765216  1.0000
  C   C28       1.0  0.2903250065567846  0.25086336954220206  0.9323573975648073  1.0000
  N   N1        1.0  0.2608188792961315  0.8115149000733198  0.16994956803759456  1.0000
  N   N2        1.0  0.7391809171579454  0.18848287011559256  0.8300513132169767  1.0000
  N   N3        1.0  0.22791445606754474  0.6448473304921905  0.035657533870590896  1.0000
  N   N4        1.0  0.7720867276820017  0.3551504462837159  0.964344191149543  1.0000
  N   N5        1.0  0.14034846331489348  0.5381407499586787  0.17164692956770009  1.0000
  N   N6        1.0  0.8596513515875587  0.4618570252761104  0.8283546564059634  1.0000
  Cl  Cl1       1.0  0.8199651409402549  0.07571557908821093  0.39052351739135094  1.0000
  Cl  Cl2       1.0  0.18003580945322278  0.9242868218817579  0.609475432896275  1.0000
  Cl  Cl3       1.0  0.6857903332012256  0.7721580197516361  0.4884820685349566  1.0000
  Cl  Cl4       1.0  0.3142029903035777  0.22784668988506954  0.5115154343499384  1.0000
  Cl  Cl5       1.0  0.5643025523527713  0.4531098272069587  0.36954901163618803  1.0000
  Cl  Cl6       1.0  0.4356946122689394  0.5468937356651937  0.6304502720287174  1.0000
  Cl  Cl7       1.0  0.5681451335294342  0.4382008330643857  0.15073124660333548  1.0000
  Cl  Cl8       1.0  0.43185690183837994  0.561800413012911  0.8492685016522685  1.0000
  O   O1        1.0  0.6968937801735822  0.12992750308509937  0.1570490126386233  1.0000
  O   O2        1.0  0.3031051229370405  0.870072553200899  0.8429468881309673  1.0000
  O   O3        1.0  0.9731367425223925  0.06067577505149301  0.15902927298977687  1.0000
  O   O4        1.0  0.026863923998327342  0.9393254694846793  0.8409703362193639  1.0000
  O   O5        1.0  0.6054588720058405  0.8271060170726944  0.0158518078717194  1.0000
  O   O6        1.0  0.39454054833360175  0.17289057145303843  0.9841462087088714  1.0000
  O   O7        1.0  0.8216556370165905  0.6768350499960363  0.04162903685445233  1.0000
  O   O8        1.0  0.17834748332556674  0.323165041188588  0.9583715093691294  1.0000
