data_image0
_chemical_formula_structural       Ca2H22Pt2C38N14
_chemical_formula_sum              "Ca2 H22 Pt2 C38 N14"
_cell_length_a       8.556020288091895
_cell_length_b       8.556021973220453
_cell_length_c       13.308482011800807
_cell_angle_alpha    79.89849787656615
_cell_angle_beta     79.8985611357364
_cell_angle_gamma    74.77381031079871

_space_group_name_H-M_alt    "P 1"
_space_group_IT_number       1

loop_
  _space_group_symop_operation_xyz
  'x, y, z'

loop_
  _atom_site_type_symbol
  _atom_site_label
  _atom_site_symmetry_multiplicity
  _atom_site_fract_x
  _atom_site_fract_y
  _atom_site_fract_z
  _atom_site_occupancy
  Ca  Ca1       1.0  0.3941763496158046  0.6058224759845102  0.7500007666912794  1.0000
  Ca  Ca2       1.0  0.6058211552604432  0.3941791035027435  0.2500003896218105  1.0000
  H   H1        1.0  0.18085229178444  0.44788657991163205  0.17046650026316706  1.0000
  H   H2        1.0  0.5521133776614845  0.8191488678519503  0.329532534794275  1.0000
  H   H3        1.0  0.8191481731033219  0.5521125569820242  0.8295330940638337  1.0000
  H   H4        1.0  0.44788560722051335  0.1808514903385046  0.6704678405257738  1.0000
  H   H5        1.0  0.3640249323728071  0.4418794547761563  0.003247809698102303  1.0000
  H   H6        1.0  0.5581170471571965  0.6359756860252189  0.4967540049928019  1.0000
  H   H7        1.0  0.6359722748455493  0.5581184529120337  0.9967538006109605  1.0000
  H   H8        1.0  0.44188193528347613  0.36402466972479147  0.5032456194811488  1.0000
  H   H9        1.0  0.8440820407379166  0.8536920294072059  0.023669084561291236  1.0000
  H   H10       1.0  0.14630699463736363  0.1559184794056421  0.4763317261384685  1.0000
  H   H11       1.0  0.1559199090382606  0.14630589107053987  0.9763312304648436  1.0000
  H   H12       1.0  0.8536931764944241  0.8440818825923129  0.5236685130723656  1.0000
  H   H13       1.0  0.9089675143227679  0.6551603092961285  0.17864363176256853  1.0000
  H   H14       1.0  0.3448410636174657  0.09103288327190738  0.3213570193955348  1.0000
  H   H15       1.0  0.09103117192060492  0.3448412691177437  0.8213558867491316  1.0000
  H   H16       1.0  0.6551602913227796  0.9089674800931036  0.6786423328599936  1.0000
  H   H17       1.0  0.8159350006512512  0.0237542337072156  0.9073975691448478  1.0000
  H   H18       1.0  0.9762464768897344  0.18406445358298373  0.5926017848913929  1.0000
  H   H19       1.0  0.18406369047477972  0.9762473495875383  0.09260345105903406  1.0000
  H   H20       1.0  0.02375428175399458  0.8159334582063734  0.4073971645517673  1.0000
  H   H21       1.0  0.7755873755864826  0.22441262275222576  0.7499992674333099  1.0000
  H   H22       1.0  0.22441308685994696  0.775586511700986  0.24999957604759257  1.0000
  Pt  Pt1       1.0  0.5000015286677381  1.061877355799341e-06  0.999999348524973  1.0000
  Pt  Pt2       1.0  4.82660453781676e-07  0.5000009582919631  0.4999995890725515  1.0000
  C   C1        1.0  0.48295553792468143  0.1990034525488723  0.8967179972042487  1.0000
  C   C2        1.0  0.8009911816879834  0.517047021927688  0.603284518760553  1.0000
  C   C3        1.0  0.5170452314651115  0.8009895769797737  0.10328526642761199  1.0000
  C   C4        1.0  0.19900217936829268  0.48295699878610776  0.3967190864939383  1.0000
  C   C5        1.0  0.4939504704476151  0.1336701328640686  0.10825198921591546  1.0000
  C   C6        1.0  0.8663301026717464  0.5060481385181674  0.3917467808168168  1.0000
  C   C7        1.0  0.5060493996042225  0.8663314469168596  0.8917466423404787  1.0000
  C   C8        1.0  0.133669768360825  0.4939485492402725  0.6082531615438994  1.0000
  C   C9        1.0  0.1446641666992008  0.5353641034479748  0.10375016483813233  1.0000
  C   C10       1.0  0.464635212674878  0.8553342485554154  0.3962499642288719  1.0000
  C   C11       1.0  0.8553351143800967  0.46463503207862533  0.8962503164441671  1.0000
  C   C12       1.0  0.535362879713304  0.14466488072324069  0.6037499023165439  1.0000
  C   C13       1.0  0.24812865442012108  0.5327208176726685  0.010342261282232779  1.0000
  C   C14       1.0  0.46727806592196686  0.7518709816106862  0.4896578159330716  1.0000
  C   C15       1.0  0.7518688480147946  0.4672807593741479  0.9896581441847657  1.0000
  C   C16       1.0  0.532720322663515  0.24812692500411518  0.5103421565745947  1.0000
  C   C17       1.0  0.9598756284201712  0.7622932248137886  0.020694192439201238  1.0000
  C   C18       1.0  0.23770671159942944  0.04012568017506619  0.4793057471208613  1.0000
  C   C19       1.0  0.04012810390231178  0.23770715104711118  0.9793063892901017  1.0000
  C   C20       1.0  0.7622934570910332  0.9598746793824517  0.5206937412438748  1.0000
  C   C21       1.0  0.9958983094653104  0.651404676657961  0.10815650959569474  1.0000
  C   C22       1.0  0.34859475022389574  0.004100172152767799  0.3918446160041497  1.0000
  C   C23       1.0  0.004102451619751017  0.3485932375718405  0.8918431906935638  1.0000
  C   C24       1.0  0.6514057171051915  0.9958989671813329  0.6081557291689419  1.0000
  C   C25       1.0  0.9034580812400392  0.006746204625976301  0.8379481468926926  1.0000
  C   C26       1.0  0.9932534992635096  0.09654177993373027  0.6620520648775637  1.0000
  C   C27       1.0  0.09654268228634774  0.9932517120442697  0.16205230424265687  1.0000
  C   C28       1.0  0.006746671868277986  0.9034585820642319  0.3379481743332704  1.0000
  C   C29       1.0  0.880405061119326  0.1195965196999396  0.750000627086699  1.0000
  C   C30       1.0  0.11959896984178899  0.8804026359375497  0.25000081145095265  1.0000
  C   C31       1.0  0.03990502305776999  0.8732849697891678  0.8359900819409134  1.0000
  C   C32       1.0  0.12671269570883226  0.9600945772797118  0.6640097682773102  1.0000
  C   C33       1.0  0.9600933606450468  0.12671293194474487  0.1640083888745707  1.0000
  C   C34       1.0  0.8732874778642882  0.03990578715868761  0.3359912217796222  1.0000
  C   C35       1.0  0.07132158164105105  0.7534796734400261  0.929860626482295  1.0000
  C   C36       1.0  0.2465211413797022  0.9286778559343742  0.570138936744506  1.0000
  C   C37       1.0  0.9286800743791588  0.24651947214201891  0.07014033342768042  1.0000
  C   C38       1.0  0.7534805073165102  0.0713212823263447  0.4298597706271892  1.0000
  N   N1        1.0  0.47101286865846953  0.319947211426708  0.8384096015125875  1.0000
  N   N2        1.0  0.680062929655044  0.5289859086519969  0.6615870171265996  1.0000
  N   N3        1.0  0.5289861093793888  0.680062925927828  0.1615866505066208  1.0000
  N   N4        1.0  0.3199431654016962  0.47101446506214006  0.33841028899990994  1.0000
  N   N5        1.0  0.14912394121587613  0.8508759994666233  0.7499990478901424  1.0000
  N   N6        1.0  0.850875337422096  0.1491231336195327  0.25000068254606583  1.0000
  N   N7        1.0  0.2128055769207577  0.6362276660893259  0.9246591664498566  1.0000
  N   N8        1.0  0.36377151167700106  0.7871949629094457  0.5753397999352429  1.0000
  N   N9        1.0  0.7871937041585397  0.36377146943727473  0.07534131483244977  1.0000
  N   N10       1.0  0.6362274707636714  0.21280539284056485  0.4246598245387077  1.0000
  N   N11       1.0  0.493395283762787  0.21576249072587925  0.1701730575135088  1.0000
  N   N12       1.0  0.7842349515508004  0.5066050728739527  0.3298273050797746  1.0000
  N   N13       1.0  0.5066019234555695  0.7842354169623034  0.829828552795554  1.0000
  N   N14       1.0  0.2157661047508128  0.4933965107144757  0.6701711903674122  1.0000
