data_image0
_chemical_formula_structural       Cd6H16C20Br12N4
_chemical_formula_sum              "Cd6 H16 C20 Br12 N4"
_cell_length_a       3.9552825320682943
_cell_length_b       13.173813033172427
_cell_length_c       17.96651417819798
_cell_angle_alpha    90.00031825574337
_cell_angle_beta     89.99959647797267
_cell_angle_gamma    89.99947285585749

_space_group_name_H-M_alt    "P 1"
_space_group_IT_number       1

loop_
  _space_group_symop_operation_xyz
  'x, y, z'

loop_
  _atom_site_type_symbol
  _atom_site_label
  _atom_site_symmetry_multiplicity
  _atom_site_fract_x
  _atom_site_fract_y
  _atom_site_fract_z
  _atom_site_occupancy
  Cd  Cd1       1.0  0.9034420583449787  0.5000018257980727  0.4999976012571494  1.0000
  Cd  Cd2       1.0  0.09657363917403218  2.399285393000013e-07  0.9999985802420783  1.0000
  Cd  Cd3       1.0  0.4230199466964422  0.39014593286081833  0.6821171250263803  1.0000
  Cd  Cd4       1.0  0.423063021333462  0.6098590842495214  0.317877144260649  1.0000
  Cd  Cd5       1.0  0.57696305292626  0.10985196201203003  0.1821269074180591  1.0000
  Cd  Cd6       1.0  0.5769765573451622  0.8901510994457598  0.8178782576846118  1.0000
  H   H1        1.0  0.6047116780859484  0.5784294940259543  0.788245874740966  1.0000
  H   H2        1.0  0.6047182795062015  0.4215598250553256  0.21174922916016214  1.0000
  H   H3        1.0  0.3952707092169804  0.9215553928212756  0.28825763284699957  1.0000
  H   H4        1.0  0.39527893115131  0.0784481851118386  0.7117511503747167  1.0000
  H   H5        1.0  0.6074266373045845  0.6313554929293165  0.9204107275754723  1.0000
  H   H6        1.0  0.6074188626251454  0.36863609569094546  0.07958214581431382  1.0000
  H   H7        1.0  0.3925565311615031  0.8686358104427184  0.42042563574337083  1.0000
  H   H8        1.0  0.3925522842363805  0.1313677752207454  0.5795825950582554  1.0000
  H   H9        1.0  0.22668874071051454  0.3322135658793499  0.9759721682209915  1.0000
  H   H10       1.0  0.2267016731567608  0.6677844185423325  0.024027411407402607  1.0000
  H   H11       1.0  0.7733049796686445  0.16778070857575503  0.4759757390609423  1.0000
  H   H12       1.0  0.7732968456088473  0.8322210357433024  0.5240307948002895  1.0000
  H   H13       1.0  0.23837717134425424  0.2917873305525945  0.8404961673851974  1.0000
  H   H14       1.0  0.2383971599431334  0.7082083433924428  0.1595039509040248  1.0000
  H   H15       1.0  0.761628516358769  0.2081967043189721  0.3404965644925754  1.0000
  H   H16       1.0  0.7616298437831192  0.7918043140902499  0.6595088740802667  1.0000
  C   C1        1.0  0.5211829588265432  0.52606454410585  0.8314768221306468  1.0000
  C   C2        1.0  0.5211919288013861  0.47392653056274975  0.16851840983689934  1.0000
  C   C3        1.0  0.4787929736037029  0.9739207035004757  0.3314836344631901  1.0000
  C   C4        1.0  0.47879909542253773  0.0260818779379903  0.6685233509301939  1.0000
  C   C5        1.0  0.5215580329587085  0.5552849436227945  0.9058279701649357  1.0000
  C   C6        1.0  0.5215652208941606  0.4447091663065593  0.09416670464347023  1.0000
  C   C7        1.0  0.47842560723552197  0.9447085152866705  0.40584024207330327  1.0000
  C   C8        1.0  0.47842568032737637  0.055292549045916004  0.59416785706717  1.0000
  C   C9        1.0  0.4156618297590314  0.4860472045265425  0.9601790353181131  1.0000
  C   C10       1.0  0.41566618736415956  0.5139494836602766  0.03981635844670711  1.0000
  C   C11       1.0  0.5843222885252075  0.013939347334613203  0.4601840027733105  1.0000
  C   C12       1.0  0.5843242356950356  0.9860652113892314  0.5398222642398736  1.0000
  C   C13       1.0  0.31319815529565886  0.38924004733274853  0.9363919074097711  1.0000
  C   C14       1.0  0.3132241456234226  0.6107554139138928  0.06360475661403342  1.0000
  C   C15       1.0  0.6867842039620699  0.1107592104189408  0.4363987417869383  1.0000
  C   C16       1.0  0.6867882626091912  0.8892420207356084  0.5636084813074049  1.0000
  C   C17       1.0  0.3191082750594775  0.3660224521094479  0.8609331494598039  1.0000
  C   C18       1.0  0.3191311336696856  0.6339707150996576  0.13906406209189734  1.0000
  C   C19       1.0  0.6808815818721216  0.133967066910877  0.3609345119186216  1.0000
  C   C20       1.0  0.6808889465612041  0.8660319037649771  0.6390710504458783  1.0000
  Br  Br1       1.0  0.9167932869177166  0.541276745596228  0.6514711228238711  1.0000
  Br  Br2       1.0  0.9167943582919378  0.45872686805498114  0.3485257289926054  1.0000
  Br  Br3       1.0  0.08324914645861982  0.9587274949060075  0.1514701371574105  1.0000
  Br  Br4       1.0  0.08321612579189261  0.041284560758946  0.8485263229054995  1.0000
  Br  Br5       1.0  0.9257267104540361  0.2498624347490335  0.6973336808030128  1.0000
  Br  Br6       1.0  0.9257661034484099  0.7501441897071504  0.30264534638116913  1.0000
  Br  Br7       1.0  0.07425074029170277  0.2501409007007993  0.19734641702604705  1.0000
  Br  Br8       1.0  0.0742689112698969  0.7498651078412237  0.8026561792837299  1.0000
  Br  Br9       1.0  0.4043001687813613  0.6467648095912394  0.47749806143464474  1.0000
  Br  Br10      1.0  0.4043088643831396  0.3532410198552683  0.5224951233991322  1.0000
  Br  Br11      1.0  0.5957140205291295  0.8532391153876304  0.9774984544695616  1.0000
  Br  Br12      1.0  0.5957020530072795  0.1467600973804934  0.022502229168921407  1.0000
  N   N1        1.0  0.421222180228618  0.43345890643080753  0.8091351668039266  1.0000
  N   N2        1.0  0.42124536984661637  0.5665354886814599  0.1908607750082112  1.0000
  N   N3        1.0  0.5787567108903886  0.06652562587846228  0.3091431181615789  1.0000
  N   N4        1.0  0.5787654500478112  0.9334743941679875  0.6908637139621521  1.0000
