data_image0
_chemical_formula_structural       Ga4H44C36Cl8
_chemical_formula_sum              "Ga4 H44 C36 Cl8"
_cell_length_a       6.916843131023531
_cell_length_b       8.26982013808449
_cell_length_c       17.834684574826728
_cell_angle_alpha    99.18099216569041
_cell_angle_beta     89.9997096291261
_cell_angle_gamma    90.00007119702178

_space_group_name_H-M_alt    "P 1"
_space_group_IT_number       1

loop_
  _space_group_symop_operation_xyz
  'x, y, z'

loop_
  _atom_site_type_symbol
  _atom_site_label
  _atom_site_symmetry_multiplicity
  _atom_site_fract_x
  _atom_site_fract_y
  _atom_site_fract_z
  _atom_site_occupancy
  Ga  Ga1       1.0  0.7500056507692248  0.5070133009614608  0.705323512863259  1.0000
  Ga  Ga2       1.0  0.25000125364626763  0.49298089067298173  0.2946813088564112  1.0000
  Ga  Ga3       1.0  0.25000261319263467  0.6187254957677268  0.7763259430199125  1.0000
  Ga  Ga4       1.0  0.7500028454999208  0.38127733524454044  0.22367618868378963  1.0000
  H   H1        1.0  0.750002867075288  0.5408544983140046  0.4651879872123529  1.0000
  H   H2        1.0  0.24999825435787662  0.4591519419162183  0.5348177905773708  1.0000
  H   H3        1.0  0.8781345275110295  0.6090611918157975  0.550123801405931  1.0000
  H   H4        1.0  0.37812656200152617  0.3909440525206804  0.4498827460917239  1.0000
  H   H5        1.0  0.12186514816185925  0.39094642970032123  0.44988431149993585  1.0000
  H   H6        1.0  0.6218644392040741  0.6090611519544709  0.5501234959786812  1.0000
  H   H7        1.0  0.7499942490628796  0.26575510662431884  0.42547239897531586  1.0000
  H   H8        1.0  0.24999530643300003  0.7342538813633868  0.5745285311451125  1.0000
  H   H9        1.0  0.7499936468429452  0.983321736665644  0.37349382830281985  1.0000
  H   H10       1.0  0.2500016916756421  0.016680021992201005  0.6265003695255158  1.0000
  H   H11       1.0  0.6220996012123405  0.8583309850065034  0.4287367574625235  1.0000
  H   H12       1.0  0.12209985375822185  0.14167315092318944  0.571259005311802  1.0000
  H   H13       1.0  0.37789862879622393  0.14167566219730796  0.571258382665732  1.0000
  H   H14       1.0  0.8778911475229519  0.8583347320322615  0.42873567055298867  1.0000
  H   H15       1.0  0.749996629648336  0.9144138133398413  0.578433396189183  1.0000
  H   H16       1.0  0.2500030461257906  0.08558310034698022  0.4215576198237797  1.0000
  H   H17       1.0  0.7500045363595971  0.9897148266709549  0.7074288006024501  1.0000
  H   H18       1.0  0.2500009223800602  0.010274683391969602  0.2925644411515336  1.0000
  H   H19       1.0  0.6219279645319842  0.17234196684092506  0.7418941123028586  1.0000
  H   H20       1.0  0.12192451132424506  0.8276425385848328  0.2581018007443062  1.0000
  H   H21       1.0  0.3780760484353464  0.8276425675293028  0.25810266616633726  1.0000
  H   H22       1.0  0.878078055937216  0.1723470150510309  0.7418892015042713  1.0000
  H   H23       1.0  0.25000400218981156  0.44643348575512937  0.9929200108096904  1.0000
  H   H24       1.0  0.7500043479982778  0.5535669064317047  0.007081369801213101  1.0000
  H   H25       1.0  0.3780629638715566  0.42756599628637565  0.9056895383429758  1.0000
  H   H26       1.0  0.8780607797780672  0.5724319969051378  0.09431139675884026  1.0000
  H   H27       1.0  0.621942494830385  0.5724307431075603  0.09431043569736627  1.0000
  H   H28       1.0  0.12194034166699907  0.4275634631613556  0.9056912810647257  1.0000
  H   H29       1.0  0.24999130304454548  0.7019381879646434  0.06447610210627629  1.0000
  H   H30       1.0  0.7499924694718982  0.2980634726505187  0.9355231346271747  1.0000
  H   H31       1.0  0.24999963937867875  0.961066813367644  0.14662855651468473  1.0000
  H   H32       1.0  0.7499971448430072  0.038933589710275406  0.8533722642306285  1.0000
  H   H33       1.0  0.12261891206208726  0.11677610877348601  0.10889963297712056  1.0000
  H   H34       1.0  0.6226156971671697  0.8832241893814867  0.8911042401061662  1.0000
  H   H35       1.0  0.8773851008770704  0.8832267004517433  0.8911036184821624  1.0000
  H   H36       1.0  0.37738397853906475  0.11677251733117093  0.10889741357112827  1.0000
  H   H37       1.0  0.24999817520392034  0.14227247539569995  0.9657201551476998  1.0000
  H   H38       1.0  0.7499913802691934  0.8577303229332855  0.03428365620300158  1.0000
  H   H39       1.0  0.250002912573663  0.9364220357570048  0.7649450586836293  1.0000
  H   H40       1.0  0.7500097748564725  0.0635771424643679  0.23505566643946435  1.0000
  H   H41       1.0  0.3774719377897354  0.0930610289829303  0.8235647714893443  1.0000
  H   H42       1.0  0.8774793056683874  0.9069406821289548  0.17643421208764914  1.0000
  H   H43       1.0  0.6225335209020242  0.9069381274502606  0.17643707339506415  1.0000
  H   H44       1.0  0.12252904454908277  0.0930634717839709  0.8235629763259807  1.0000
  C   C1        1.0  0.7500031865427272  0.33122767271700587  0.618523529507918  1.0000
  C   C2        1.0  0.2500008264162758  0.6687678527103244  0.38147578905035556  1.0000
  C   C3        1.0  0.7500022420052658  0.36784657627129763  0.5439324740741751  1.0000
  C   C4        1.0  0.2499988794513186  0.6321525910544141  0.4560688109374737  1.0000
  C   C5        1.0  0.749993861677538  0.23741011967000958  0.4831192579582717  1.0000
  C   C6        1.0  0.24999713958827377  0.7625928202731629  0.5168772749890777  1.0000
  C   C7        1.0  0.7499951224894371  0.07361819575422152  0.4937891428662622  1.0000
  C   C8        1.0  0.24999877027430265  0.9263933291007478  0.5062074994461623  1.0000
  C   C9        1.0  0.7499931781701076  0.0412608975583453  0.568444249530863  1.0000
  C   C10       1.0  0.2500007146275109  0.9587421622125447  0.4315461247658447  1.0000
  C   C11       1.0  0.7499986519005474  0.1667183913073771  0.63107080899114  1.0000
  C   C12       1.0  0.24999957808140746  0.8332808304846469  0.36892767663802317  1.0000
  C   C13       1.0  0.750001029475733  0.5402928235887359  0.5266520112046889  1.0000
  C   C14       1.0  0.24999720045699544  0.4597099202750884  0.47335459952275005  1.0000
  C   C15       1.0  0.7499947141154236  0.9364767074299323  0.4276668333638653  1.0000
  C   C16       1.0  0.25000062441494453  0.06352998334681809  0.5723260672589772  1.0000
  C   C17       1.0  0.7500024574078877  0.12271355914000279  0.7096261258262542  1.0000
  C   C18       1.0  0.25000010982417814  0.8772722327697695  0.29036906861959  1.0000
  C   C19       1.0  0.25000205777692486  0.7455930495767191  0.8777617237152027  1.0000
  C   C20       1.0  0.750004846644799  0.25441340154802833  0.12224349419170716  1.0000
  C   C21       1.0  0.25000303571464844  0.6661326455369476  0.9423041686323753  1.0000
  C   C22       1.0  0.7500038687522022  0.3338678229032297  0.05769329284046878  1.0000
  C   C23       1.0  0.24999889406574732  0.7626709068671077  0.014401570979522686  1.0000
  C   C24       1.0  0.7499993358848439  0.23733189146359732  0.9856022403625668  1.0000
  C   C25       1.0  0.24999895406327965  0.9339819921765838  0.02419189309371461  1.0000
  C   C26       1.0  0.7499978301696542  0.06602089330084479  0.9758074392332429  1.0000
  C   C27       1.0  0.24999812003073169  0.0087967670508178  0.9594152038507812  1.0000
  C   C28       1.0  0.7499943269252184  0.9912108980373805  0.0405906695539855  1.0000
  C   C29       1.0  0.24999779012824763  0.918156201431721  0.8861862775040449  1.0000
  C   C30       1.0  0.7500004398746184  0.08184063600117501  0.11380865764984086  1.0000
  C   C31       1.0  0.25000438834335625  0.4824127844488473  0.9363226765004594  1.0000
  C   C32       1.0  0.7500054075912457  0.5175888325979585  0.06367879971543287  1.0000
  C   C33       1.0  0.24999926676449036  0.036652711365739804  0.10147074849781745  1.0000
  C   C34       1.0  0.7499975174401283  0.9633513118243686  0.8985331584521388  1.0000
  C   C35       1.0  0.25000045056971487  0.013164756833077702  0.8209789311258218  1.0000
  C   C36       1.0  0.7500050081307845  0.9868417705450199  0.17902236764302865  1.0000
  Cl  Cl1       1.0  0.7499904121554477  0.5013748793878747  0.8273440168006158  1.0000
  Cl  Cl2       1.0  0.24998902309815202  0.498614467269242  0.17265762313526514  1.0000
  Cl  Cl3       1.0  0.24999547138430955  0.3580342051952314  0.7334437327630139  1.0000
  Cl  Cl4       1.0  0.7499984213311206  0.6419686040279942  0.266559518706316  1.0000
  Cl  Cl5       1.0  0.9981522713244216  0.7032569331068572  0.6990031526234332  1.0000
  Cl  Cl6       1.0  0.4981547421484932  0.2967399045804058  0.3009963286405436  1.0000
  Cl  Cl7       1.0  0.0018502958646493995  0.29674464036501297  0.3010005631079195  1.0000
  Cl  Cl8       1.0  0.5018521623123957  0.7032495292291685  0.6990008322514993  1.0000
