data_image0
_chemical_formula_structural       Cd4H36C52N4O20
_chemical_formula_sum              "Cd4 H36 C52 N4 O20"
_cell_length_a       10.38794520006319
_cell_length_b       10.941556538707795
_cell_length_c       12.059308129823528
_cell_angle_alpha    114.43778139191146
_cell_angle_beta     90.00037354837634
_cell_angle_gamma    89.99998445765759

_space_group_name_H-M_alt    "P 1"
_space_group_IT_number       1

loop_
  _space_group_symop_operation_xyz
  'x, y, z'

loop_
  _atom_site_type_symbol
  _atom_site_label
  _atom_site_symmetry_multiplicity
  _atom_site_fract_x
  _atom_site_fract_y
  _atom_site_fract_z
  _atom_site_occupancy
  Cd  Cd1       1.0  0.029635079897836602  0.14012244343813055  0.9526936440809025  1.0000
  Cd  Cd2       1.0  0.5296351925385708  0.3598791733117324  0.04730788795404814  1.0000
  Cd  Cd3       1.0  0.9703652107316645  0.8598780940902063  0.04730746694432504  1.0000
  Cd  Cd4       1.0  0.4703650980896229  0.6401203603351109  0.9526928445512015  1.0000
  H   H1        1.0  0.6585236952815235  0.8684604383188342  0.9911831536355965  1.0000
  H   H2        1.0  0.1585231154838667  0.631537152465974  0.008818415056836783  1.0000
  H   H3        1.0  0.3414775579977914  0.1315390973917161  0.008816750413743114  1.0000
  H   H4        1.0  0.8414771751393033  0.3684633891871414  0.9911810390502255  1.0000
  H   H5        1.0  0.6250637470403789  0.0031338156588490004  0.7047849144396141  1.0000
  H   H6        1.0  0.12506525270837443  0.4968710621267078  0.29522335327959587  1.0000
  H   H7        1.0  0.37493558093221685  0.9968647141051792  0.2952154395424815  1.0000
  H   H8        1.0  0.8749340752623669  0.5031284735811994  0.7047765507633985  1.0000
  H   H9        1.0  0.3299227720605701  0.7671202496661137  0.7761415151536469  1.0000
  H   H10       1.0  0.829925230982397  0.7328798314128236  0.22385697023486278  1.0000
  H   H11       1.0  0.6700765559164951  0.23287928191702192  0.22386004580751268  1.0000
  H   H12       1.0  0.1700750596394656  0.26711970635879817  0.7761421053522214  1.0000
  H   H13       1.0  0.08915047254581052  0.9510045096803664  0.5445231941588631  1.0000
  H   H14       1.0  0.589150900849262  0.5489999324202657  0.45547476743717413  1.0000
  H   H15       1.0  0.9108488554230691  0.0489960319714271  0.45547625994503  1.0000
  H   H16       1.0  0.4108484271222325  0.45100261699452915  0.5445254437066682  1.0000
  H   H17       1.0  0.5452867092990914  0.8015737527076967  0.49448034565092785  1.0000
  H   H18       1.0  0.0452889414262714  0.6984275368074649  0.5055244756943723  1.0000
  H   H19       1.0  0.45471261867481166  0.19842578093782495  0.5055203868511527  1.0000
  H   H20       1.0  0.9547103865457773  0.301573002781943  0.49447580686859993  1.0000
  H   H21       1.0  0.19295559700934464  0.8655754057691353  0.33831812437808406  1.0000
  H   H22       1.0  0.6929566136196142  0.6344283110041149  0.6616826286863005  1.0000
  H   H23       1.0  0.8070456562718323  0.1344231239975286  0.6616822296103706  1.0000
  H   H24       1.0  0.3070427143492651  0.365572230647679  0.3383168254175857  1.0000
  H   H25       1.0  0.420802313125087  0.7909752326401148  0.31545510668053117  1.0000
  H   H26       1.0  0.9208063715396266  0.7090260912957972  0.6845484988917719  1.0000
  H   H27       1.0  0.5791970148519852  0.2090242989430209  0.6845464542806284  1.0000
  H   H28       1.0  0.07919295643241502  0.2909744482936105  0.31545178367120036  1.0000
  H   H29       1.0  0.8770979987869084  0.3122927903159081  0.16130098113559652  1.0000
  H   H30       1.0  0.37709892766933006  0.1877087818416001  0.8386999785707803  1.0000
  H   H31       1.0  0.12290132918830211  0.687707747211114  0.838700129886462  1.0000
  H   H32       1.0  0.6229013629557019  0.8122907538676288  0.1612999254753903  1.0000
  H   H33       1.0  0.9339803612384049  0.18498524387482715  0.17844218816028962  1.0000
  H   H34       1.0  0.43398208641917085  0.315014482737908  0.8215559042785543  1.0000
  H   H35       1.0  0.06601992938662701  0.8150142918344017  0.8215577158858809  1.0000
  H   H36       1.0  0.5660182042071612  0.6849860568528214  0.17844437828759405  1.0000
  C   C1        1.0  0.7841045593350203  0.013265379347956203  0.887750511657096  1.0000
  C   C2        1.0  0.2841037078959162  0.48673391758608636  0.11225404845337296  1.0000
  C   C3        1.0  0.21589669394430192  0.9867341563625943  0.11224939239225058  1.0000
  C   C4        1.0  0.7158975453820916  0.5132646142429634  0.8877454770759957  1.0000
  C   C5        1.0  0.6049815397303463  0.87516292621374  0.9163548736373458  1.0000
  C   C6        1.0  0.10497864527887661  0.624832507874821  0.08364641334867436  1.0000
  C   C7        1.0  0.39501971355213084  0.1248366074344247  0.08364585887107982  1.0000
  C   C8        1.0  0.8950226079959763  0.3751660260166219  0.916352283721608  1.0000
  C   C9        1.0  0.656319639615326  0.9446958967478595  0.8525409811628607  1.0000
  C   C10       1.0  0.15631917719171892  0.5553107105504864  0.14746895042819833  1.0000
  C   C11       1.0  0.34368065101286766  0.055303636898983696  0.1474597513423959  1.0000
  C   C12       1.0  0.8436820760876033  0.4446888251600641  0.8525309536211482  1.0000
  C   C13       1.0  0.5860320295277789  0.9497204279021645  0.755867265722202  1.0000
  C   C14       1.0  0.08603326940674091  0.5502799715581193  0.2441366173617824  1.0000
  C   C15       1.0  0.4139682610959455  0.05027810392556378  0.2441322598039903  1.0000
  C   C16       1.0  0.9139670212169765  0.44971856026960927  0.7558629081644102  1.0000
  C   C17       1.0  0.4214741532117615  0.8206026751460271  0.7965050205925197  1.0000
  C   C18       1.0  0.9214745462168354  0.6793986547525035  0.20349693248041228  1.0000
  C   C19       1.0  0.5785271000694152  0.1793958546206369  0.20349533339593515  1.0000
  C   C20       1.0  0.07852574440502741  0.3206008830191108  0.7965021431066717  1.0000
  C   C21       1.0  0.46553937696387493  0.8874318098629176  0.7265742910995459  1.0000
  C   C22       1.0  0.9655403226274901  0.6125746582536707  0.2734306736504096  1.0000
  C   C23       1.0  0.5344609136611567  0.11256772584631142  0.27342561294662465  1.0000
  C   C24       1.0  0.0344609306486632  0.38742487951926563  0.7265684019398508  1.0000
  C   C25       1.0  0.19513758365198441  0.9944316635694505  0.7554112044269062  1.0000
  C   C26       1.0  0.6951393015161785  0.5055740731401669  0.24458783469300022  1.0000
  C   C27       1.0  0.8048627069711858  0.0055688780836646995  0.24458824968016304  1.0000
  C   C28       1.0  0.30486002645400845  0.4944274723931271  0.7554119979308638  1.0000
  C   C29       1.0  0.3897029979078823  0.8856535258483903  0.6218882590080954  1.0000
  C   C30       1.0  0.8897028172038123  0.6143457153243191  0.3781102421105872  1.0000
  C   C31       1.0  0.6102963300583896  0.1143450080404094  0.3781104380558418  1.0000
  C   C32       1.0  0.1102965107676752  0.38565683409047585  0.621889969033255  1.0000
  C   C33       1.0  0.26017116702923454  0.9275161032419136  0.6344865254637215  1.0000
  C   C34       1.0  0.760168976467952  0.5724877999635821  0.3655138424269779  1.0000
  C   C35       1.0  0.7398291235894662  0.072483436592087  0.3655117216642837  1.0000
  C   C36       1.0  0.23983035150037318  0.4275147515136053  0.6344855402577849  1.0000
  C   C37       1.0  0.1893030568701661  0.9179847457741915  0.5321660327615236  1.0000
  C   C38       1.0  0.6893026077038302  0.582019966921912  0.4678342462699163  1.0000
  C   C39       1.0  0.8106991590628921  0.08201679976306761  0.467833799871869  1.0000
  C   C40       1.0  0.3106967202663569  0.417981578611382  0.5321655863539547  1.0000
  C   C41       1.0  0.4457781361793352  0.8363979462190515  0.5057209246589595  1.0000
  C   C42       1.0  0.945779791567773  0.6636044562916297  0.4942807387671523  1.0000
  C   C43       1.0  0.5542231170973722  0.16359958172850497  0.49427822235043106  1.0000
  C   C44       1.0  0.05421953640110639  0.33639608536016397  0.5057187153367337  1.0000
  C   C45       1.0  0.24668741076175144  0.8697924213120417  0.41755307752832505  1.0000
  C   C46       1.0  0.7466897487550243  0.630210441031828  0.5824468229300949  1.0000
  C   C47       1.0  0.7533128798601113  0.13020711645957306  0.5824459980587591  1.0000
  C   C48       1.0  0.25330957921200087  0.3697911065638522  0.41755218123469023  1.0000
  C   C49       1.0  0.37520749083412863  0.8286389277893209  0.40467985208017876  1.0000
  C   C50       1.0  0.8752108783403544  0.6713642850279057  0.5953217244484678  1.0000
  C   C51       1.0  0.6247918371353052  0.1713596040370859  0.5953196734428375  1.0000
  C   C52       1.0  0.12478748697684952  0.3286382643855674  0.40467848669220546  1.0000
  N   N1        1.0  0.48987205536987943  0.8136866253653496  0.8885108916025148  1.0000
  N   N2        1.0  0.9898707811760591  0.6863128802605516  0.11149241243673913  1.0000
  N   N3        1.0  0.5101291979157666  0.1863129062204294  0.11149066936499002  1.0000
  N   N4        1.0  0.010129509448965702  0.3136866554486772  0.8885074916094311  1.0000
  O   O1        1.0  0.8607271457400928  0.9795723599926165  0.9539534129354695  1.0000
  O   O2        1.0  0.36072399323312254  0.5204267893200907  0.04604986782815958  1.0000
  O   O3        1.0  0.13927410754239133  0.0204271736555484  0.046047319572956304  1.0000
  O   O4        1.0  0.6392762973887401  0.4795727484515242  0.9539492077589318  1.0000
  O   O5        1.0  0.8118952780478851  0.10352556946457268  0.8522929079384556  1.0000
  O   O6        1.0  0.31189375985055534  0.3964707982419711  0.14770821451626404  1.0000
  O   O7        1.0  0.18810501257844695  0.8964749701261563  0.14770737462769282  1.0000
  O   O8        1.0  0.6881065307731618  0.6035277335857572  0.8522913110099282  1.0000
  O   O9        1.0  0.24365098013713293  0.10165111667438961  0.8364194723816072  1.0000
  O   O10       1.0  0.7436529326735342  0.39835410702387014  0.16358129284743944  1.0000
  O   O11       1.0  0.7563483478380704  0.8983494208526324  0.16358163864044437  1.0000
  O   O12       1.0  0.25634832060839596  0.6016474364496817  0.836419368241856  1.0000
  O   O13       1.0  0.95566499171256  0.2550612387810601  0.14955973937362904  1.0000
  O   O14       1.0  0.4556659943195174  0.24493854524986602  0.850439324535046  1.0000
  O   O15       1.0  0.0443352989124719  0.7449382969281685  0.8504401646725412  1.0000
  O   O16       1.0  0.5443333336525242  0.7550619943395418  0.14956095802792657  1.0000
  O   O17       1.0  0.087079706187744  0.9486015134780956  0.7711480695172528  1.0000
  O   O18       1.0  0.5870793658057069  0.551400911053541  0.22885077829746348  1.0000
  O   O19       1.0  0.912920584438588  0.05139902611263382  0.22885221304888861  1.0000
  O   O20       1.0  0.41292092481877063  0.4486006344810747  0.7711490543295768  1.0000
