data_image0
_chemical_formula_structural       Zr6H28C62N2O36F10
_chemical_formula_sum              "Zr6 H28 C62 N2 O36 F10"
_cell_length_a       14.886196557844004
_cell_length_b       14.88154366837963
_cell_length_c       14.862639293288744
_cell_angle_alpha    59.88852843028547
_cell_angle_beta     59.86738499485178
_cell_angle_gamma    59.81837897082389

_space_group_name_H-M_alt    "P 1"
_space_group_IT_number       1

loop_
  _space_group_symop_operation_xyz
  'x, y, z'

loop_
  _atom_site_type_symbol
  _atom_site_label
  _atom_site_symmetry_multiplicity
  _atom_site_fract_x
  _atom_site_fract_y
  _atom_site_fract_z
  _atom_site_occupancy
  Zr  Zr1       1.0  0.882184540311961  0.37729589684192893  0.6198290946973298  1.0000
  Zr  Zr2       1.0  0.11840868157106146  0.616975078500843  0.3812889160473887  1.0000
  Zr  Zr3       1.0  0.12083335859630041  0.3789317871279679  0.6200230416436696  1.0000
  Zr  Zr4       1.0  0.8825772154959279  0.6142620410291073  0.3819265972039218  1.0000
  Zr  Zr5       1.0  0.8813512168381262  0.6141013675336495  0.6218514403411602  1.0000
  Zr  Zr6       1.0  0.12137226840551568  0.3753755409061199  0.38415200116175185  1.0000
  H   H1        1.0  0.9074722709696558  0.40479762783078116  0.7832234257548477  1.0000
  H   H2        1.0  0.9075490908408453  0.7772382587523197  0.40791903258659074  1.0000
  H   H3        1.0  0.2817699936693857  0.4051208024777892  0.4071635601912007  1.0000
  H   H4        1.0  0.9092563854694333  0.4014933193025456  0.40755229904092244  1.0000
  H   H5        1.0  0.5678307016484679  0.7298394240560881  0.8959000701465314  1.0000
  H   H6        1.0  0.649173946711116  0.6207325016276144  0.9804334550635331  1.0000
  H   H7        1.0  0.47761985326469875  0.6254824137915803  0.14927904246876264  1.0000
  H   H8        1.0  0.39664067057819336  0.7325310679001192  0.06379056903976714  1.0000
  H   H9        1.0  0.23824772708742603  0.05856018351809671  0.3078408438568516  1.0000
  H   H10       1.0  0.13499932415315644  0.1385042460813821  0.24466972504597345  1.0000
  H   H11       1.0  0.1405673302986582  0.9650375329577017  0.24677234949299273  1.0000
  H   H12       1.0  0.23975624370090284  0.8843337218190256  0.31565161619469234  1.0000
  H   H13       1.0  0.5176145401083475  0.8429592664819126  0.3794593147084697  1.0000
  H   H14       1.0  0.5971240212607892  0.9289248583137139  0.2720120070796383  1.0000
  H   H15       1.0  0.42329499579825847  0.09582264060797036  0.2765179552788411  1.0000
  H   H16       1.0  0.345082354257528  0.00976463023277322  0.38871775756670257  1.0000
  H   H17       1.0  0.8643970676693514  0.7582985640952415  0.028334115438553867  1.0000
  H   H18       1.0  0.7714700013483621  0.6823079603080731  0.11202713486898823  1.0000
  H   H19       1.0  0.7694647129486251  0.6876962272836096  0.9404768713621436  1.0000
  H   H20       1.0  0.8635508946287089  0.7617966123895246  0.8570882191673518  1.0000
  H   H21       1.0  0.8041888282272824  0.2576803163234088  0.9269395888533651  1.0000
  H   H22       1.0  0.6430787122959529  0.2600385539450728  0.09622277568112025  1.0000
  H   H23       1.0  0.8075414181923292  0.9252109940375206  0.26507256125997686  1.0000
  H   H24       1.0  0.6454791516549462  0.09369587284739817  0.2669376578040712  1.0000
  H   H25       1.0  0.540810229804343  0.3346695161117383  0.7522196844142002  1.0000
  H   H26       1.0  0.6229048486810669  0.25346144010524796  0.6639960513205736  1.0000
  H   H27       1.0  0.4500104308217558  0.2573058252462274  0.6665675338057326  1.0000
  H   H28       1.0  0.36814243275446046  0.33970108637121393  0.7535314589385393  1.0000
  C   C1        1.0  0.6937342471567902  0.4981832325590147  0.7991654029604122  1.0000
  C   C2        1.0  0.00028796856686600167  0.7958337292037996  0.505580979379708  1.0000
  C   C3        1.0  0.29593705052644015  0.5018244088043815  0.19452786444927722  1.0000
  C   C4        1.0  0.004211942855640438  0.18986385235400857  0.5066733915759727  1.0000
  C   C5        1.0  0.0045292129850766725  0.1913218847862765  0.8009672003993343  1.0000
  C   C6        1.0  0.6953367986974397  0.5029809542465528  0.5020788936207267  1.0000
  C   C7        1.0  0.0014760415462689391  0.7952493064604553  0.19323078956563214  1.0000
  C   C8        1.0  0.29684021449279646  0.5071246159167728  0.5018661384799543  1.0000
  C   C9        1.0  0.007026138606669229  0.5007861835753074  0.7988199524274363  1.0000
  C   C10       1.0  0.3034294751750509  0.1941719372690969  0.5053972501200403  1.0000
  C   C11       1.0  0.010925113389596543  0.4975051401982639  0.19502791847519765  1.0000
  C   C12       1.0  0.6984204892084663  0.7964542720241353  0.5039169762634046  1.0000
  C   C13       1.0  0.5899703581904917  0.5013785110619151  0.8953873774517049  1.0000
  C   C14       1.0  0.39250467454408516  0.5039519696632908  0.09119936926976642  1.0000
  C   C15       1.0  0.54954723243538  0.5682127135462166  0.9570932052151022  1.0000
  C   C16       1.0  0.4305535074906074  0.43809479211805774  0.028092195601366984  1.0000
  C   C17       1.0  0.4554620672325882  0.5693084287823779  0.05068561416553746  1.0000
  C   C18       1.0  0.5257009057121638  0.43659407929328614  0.9343378777479429  1.0000
  C   C19       1.0  0.5718335407625262  0.6519752927846411  0.96543124553974  1.0000
  C   C20       1.0  0.46474539484402994  0.653665704656227  0.07143286700706146  1.0000
  C   C21       1.0  0.002204870741337665  0.0901861861163055  0.5078896263231273  1.0000
  C   C22       1.0  0.9998025308662758  0.8948749095644288  0.5078284104135233  1.0000
  C   C23       1.0  0.07240670261148109  0.045998293492033306  0.4222199617461441  1.0000
  C   C24       1.0  0.9271255469059699  0.9398924758477847  0.5936603498812045  1.0000
  C   C25       1.0  0.07184518078044992  0.9523113652541754  0.42277570856094115  1.0000
  C   C26       1.0  0.9287270400959643  0.033129779490238355  0.5941206920587234  1.0000
  C   C27       1.0  0.16155505527468253  0.06284836948984204  0.3099149152035706  1.0000
  C   C28       1.0  0.16302741064740162  0.954757572994957  0.31218624669520517  1.0000
  C   C29       1.0  0.6024327960384921  0.9002632752033294  0.5017264744190584  1.0000
  C   C30       1.0  0.4069489230103897  0.09772713964963482  0.5024835273687601  1.0000
  C   C31       1.0  0.5398487151260125  0.9416792649290857  0.4354437137118127  1.0000
  C   C32       1.0  0.4724788561987623  0.059872006739332996  0.5656982553775691  1.0000
  C   C33       1.0  0.4462246572504683  0.03564634935882793  0.43637592360722266  1.0000
  C   C34       1.0  0.566088219429048  0.9643960208700689  0.5659775784049684  1.0000
  C   C35       1.0  0.5296388935639411  0.9209609125485512  0.35151795239516287  1.0000
  C   C36       1.0  0.4220178159974353  0.02637478124171374  0.35443231140186526  1.0000
  C   C37       1.0  0.016085313884978712  0.4998209594591998  0.09139807567932927  1.0000
  C   C38       1.0  0.013439698123733065  0.5022746130589297  0.8947888204777142  1.0000
  C   C39       1.0  0.9418331469545863  0.5838382562476524  0.036057668609338046  1.0000
  C   C40       1.0  0.09092190297426576  0.41838429938116645  0.9482684143105901  1.0000
  C   C41       1.0  0.9404484048651867  0.5852681417791743  0.9422467058522486  1.0000
  C   C42       1.0  0.09207745032708191  0.4170677464023243  0.04273858991743397  1.0000
  C   C43       1.0  0.8454588924231744  0.6903684013112894  0.03905912612793831  1.0000
  C   C44       1.0  0.8445267365666355  0.6927866590016193  0.9319702381278744  1.0000
  C   C45       1.0  0.0024198573256485373  0.09109840292050812  0.9038082296777574  1.0000
  C   C46       1.0  0.9045054033259913  0.09154531962669667  0.9985614829461156  1.0000
  C   C47       1.0  0.09518664130621333  0.9977889709036916  0.9066840650426257  1.0000
  C   C48       1.0  0.8075382976389703  0.18599424261275022  0.0013808311297863866  1.0000
  C   C49       1.0  0.71667179294613  0.18660199676256892  0.09615030561862874  1.0000
  C   C50       1.0  0.9993695261255626  0.8975737994910274  0.09212688564957693  1.0000
  C   C51       1.0  0.09153314881118012  0.8993169783209967  0.997661946395077  1.0000
  C   C52       1.0  0.9047966953850163  0.9948355096101051  0.09581578852019833  1.0000
  C   C53       1.0  0.809437248348658  0.99868762332904  0.19207003822252497  1.0000
  C   C54       1.0  0.7178292888246957  0.09267694901737399  0.19239829751435159  1.0000
  C   C55       1.0  0.593476056525873  0.5072135723963241  0.5015952812695375  1.0000
  C   C56       1.0  0.39498907715249476  0.5104942890891166  0.5020777126276741  1.0000
  C   C57       1.0  0.5416593252282739  0.42869935289407834  0.5799654620008852  1.0000
  C   C58       1.0  0.44609641381473614  0.5906974531496515  0.42285725091296894  1.0000
  C   C59       1.0  0.44684743724040726  0.43045493639684207  0.5803378148657217  1.0000
  C   C60       1.0  0.5413944380766578  0.5888594756409588  0.42240488452720354  1.0000
  C   C61       1.0  0.5491750477579062  0.3247967848415598  0.6798073787511355  1.0000
  C   C62       1.0  0.44127532592028745  0.3273314499158956  0.6807041101111864  1.0000
  N   N1        1.0  0.18288771639225834  0.7948138709638285  0.9901962202491744  1.0000
  N   N2        1.0  0.1981067262703108  0.0012906723448154458  0.8097434225128239  1.0000
  O   O1        1.0  0.7368393742030648  0.4199803810458179  0.7609949836879224  1.0000
  O   O2        1.0  0.07564124362033922  0.7611244303726394  0.42554319680149166  1.0000
  O   O3        1.0  0.2584615877294779  0.57880656647216  0.2326559911729688  1.0000
  O   O4        1.0  0.9270784047890074  0.232439488660738  0.5806641467633752  1.0000
  O   O5        1.0  0.0803249439378249  0.229718711757023  0.7639338796955928  1.0000
  O   O6        1.0  0.7377585838752623  0.5772885495586735  0.4256043404732778  1.0000
  O   O7        1.0  0.9257861311480509  0.7560953029168899  0.23232675640279865  1.0000
  O   O8        1.0  0.26120057969312427  0.4285361976201186  0.5784463921092495  1.0000
  O   O9        1.0  0.9261815325860706  0.5751818670495085  0.7651315154908005  1.0000
  O   O10       1.0  0.26403546697381586  0.2294641614318422  0.4300237134112663  1.0000
  O   O11       1.0  0.0835240087822342  0.4194406195380366  0.23872817839393418  1.0000
  O   O12       1.0  0.7359705558874622  0.7523702417130805  0.5824422095538608  1.0000
  O   O13       1.0  0.2619054656474163  0.23452178168293605  0.5814309243586706  1.0000
  O   O14       1.0  0.9314344462118952  0.5735165774162143  0.23368415499501785  1.0000
  O   O15       1.0  0.7359460637543264  0.7598647777903694  0.42572205951944375  1.0000
  O   O16       1.0  0.08120605637584084  0.4243309847953326  0.7585316548135735  1.0000
  O   O17       1.0  0.9288654088601475  0.22851301524919182  0.7620970545496277  1.0000
  O   O18       1.0  0.25726536524918936  0.5807608767135548  0.4246756774208932  1.0000
  O   O19       1.0  0.0753729260589749  0.762397581735911  0.23283903047283872  1.0000
  O   O20       1.0  0.7334911649117899  0.4242877466801573  0.5784354866959873  1.0000
  O   O21       1.0  0.08227850778802548  0.2265134896877824  0.42982899836370336  1.0000
  O   O22       1.0  0.7335648696838251  0.5728224887743069  0.7641992417663274  1.0000
  O   O23       1.0  0.9255593115071292  0.7542275161379733  0.5815223128740568  1.0000
  O   O24       1.0  0.26075375209297386  0.4216596546576028  0.23923209572687648  1.0000
  O   O25       1.0  0.9350827528444794  0.4283596535245879  0.43457664893914943  1.0000
  O   O26       1.0  0.20185969396502665  0.4307850397235028  0.43457301139181237  1.0000
  O   O27       1.0  0.9332673228826636  0.6973759168045605  0.43332826376044414  1.0000
  O   O28       1.0  0.9342042970729806  0.42876805640052146  0.7033028996388567  1.0000
  O   O29       1.0  0.04965992897894719  0.5469793981892579  0.5502553627083415  1.0000
  O   O30       1.0  0.852997575865558  0.5451901819837914  0.5507704257733578  1.0000
  O   O31       1.0  0.050616062695297497  0.545294653604536  0.35324524846603816  1.0000
  O   O32       1.0  0.05069744981269504  0.3482656765021801  0.5520020686617784  1.0000
  O   O33       1.0  0.15723106837663892  0.7109859690902737  0.03466064963210866  1.0000
  O   O34       1.0  0.2779418722727272  0.7977188528356577  0.9387019402179533  1.0000
  O   O35       1.0  0.26522784188571785  0.022227201725137057  0.8144555144064753  1.0000
  O   O36       1.0  0.20580390125126505  0.9852313401615546  0.7316387494460412  1.0000
  F   F1        1.0  0.37633589115812077  0.37335042850690314  0.0541235041445844  1.0000
  F   F2        1.0  0.5525392296448712  0.3691820462960465  0.882260341391394  1.0000
  F   F3        1.0  0.8514819058880932  0.8948937150449436  0.6815361521871068  1.0000
  F   F4        1.0  0.8553128661903245  0.06497989078596332  0.6830989722435702  1.0000
  F   F5        1.0  0.4498653339547829  0.11536756140665726  0.6277798560016166  1.0000
  F   F6        1.0  0.6216579514712279  0.9384463340870683  0.6295588635334821  1.0000
  F   F7        1.0  0.1678815679818513  0.3324674757961502  0.9125633840536267  1.0000
  F   F8        1.0  0.16942546545385528  0.3299462699155599  0.08595073504154271  1.0000
  F   F9        1.0  0.4060390525302893  0.6743729625710628  0.34143133754876226  1.0000
  F   F10       1.0  0.5814184688715685  0.6706097127427667  0.3399264953049153  1.0000
