data_image0
_chemical_formula_structural       Cd2H40C46N8O14
_chemical_formula_sum              "Cd2 H40 C46 N8 O14"
_cell_length_a       10.45372884792725
_cell_length_b       10.78866166114296
_cell_length_c       11.624
_cell_angle_alpha    76.57399956891842
_cell_angle_beta     86.20930166077906
_cell_angle_gamma    69.53802900988953

_space_group_name_H-M_alt    "P 1"
_space_group_IT_number       1

loop_
  _space_group_symop_operation_xyz
  'x, y, z'

loop_
  _atom_site_type_symbol
  _atom_site_label
  _atom_site_symmetry_multiplicity
  _atom_site_fract_x
  _atom_site_fract_y
  _atom_site_fract_z
  _atom_site_occupancy
  Cd  Cd1       1.0  0.35116343674521733  0.8571990462910435  0.37025476883196967  1.0000
  Cd  Cd2       1.0  0.6488361371038208  0.1428037449436559  0.629746547620492  1.0000
  H   H1        1.0  0.2970701423201518  0.05539330560889509  0.5302691996085969  1.0000
  H   H2        1.0  0.70293144522045  0.9446064405317642  0.46973007247898113  1.0000
  H   H3        1.0  0.21473180584106893  0.1224960128175638  0.4073229035800238  1.0000
  H   H4        1.0  0.7852701333654226  0.8775027182917512  0.5926757060526101  1.0000
  H   H5        1.0  0.9630025277473778  0.1920073894087082  0.37708385499620073  1.0000
  H   H6        1.0  0.03700238384455899  0.8079882966065739  0.6229178150058344  1.0000
  H   H7        1.0  0.19114388844943875  0.4835071362556747  0.338464919303533  1.0000
  H   H8        1.0  0.8088559407616815  0.5164976850417133  0.6615350841915698  1.0000
  H   H9        1.0  0.883507993164905  0.8702015978247672  0.3431407471460446  1.0000
  H   H10       1.0  0.11649369067951197  0.1297951032218592  0.6568583151548849  1.0000
  H   H11       1.0  0.7640627621334347  0.529243433645064  0.3347619449314577  1.0000
  H   H12       1.0  0.2359343836036843  0.47075529746425093  0.6652378099905221  1.0000
  H   H13       1.0  0.3752236128801485  0.5673761312265668  0.5798170113837386  1.0000
  H   H14       1.0  0.6247812024079807  0.4326225998827482  0.4201822875377773  1.0000
  H   H15       1.0  0.5423588266116327  0.8665901162980703  0.5958214467291327  1.0000
  H   H16       1.0  0.4576459886764894  0.13340861481124477  0.404175271325215  1.0000
  H   H17       1.0  0.6176807215264618  0.6605022120668949  0.8009218000006371  1.0000
  H   H18       1.0  0.38232313506778587  0.3394965190424202  0.19907497505376884  1.0000
  H   H19       1.0  0.586771130858196  0.4299378419743434  0.8637322461911552  1.0000
  H   H20       1.0  0.41323045668240604  0.570061904166316  0.1362670258964229  1.0000
  H   H21       1.0  0.49388573815496545  0.3856124381549648  0.76791155189796  1.0000
  H   H22       1.0  0.5061161047477186  0.6143893380483831  0.23208468665415444  1.0000
  H   H23       1.0  0.3102996861567107  0.7194359470083143  0.821420444048087  1.0000
  H   H24       1.0  0.6897101152084204  0.2805566939129278  0.1785772900107858  1.0000
  H   H25       1.0  0.10443884433770018  0.7758452989938931  0.9448106382943421  1.0000
  H   H26       1.0  0.8955588121235821  0.22415749224080628  0.05518993186917238  1.0000
  H   H27       1.0  0.042513787953979  0.5893606951351487  0.08039594178273293  1.0000
  H   H28       1.0  0.9574823027854507  0.4106410810682064  0.9196040799259534  1.0000
  H   H29       1.0  0.18577123017217897  0.3509704333700725  0.0906611651110723  1.0000
  H   H30       1.0  0.8142317640320088  0.6490252526452096  0.9093337365786311  1.0000
  H   H31       1.0  0.438677631227428  0.23527107044086648  0.8765516186776878  1.0000
  H   H32       1.0  0.5613219426216105  0.7647317207938329  0.12344453604042376  1.0000
  H   H33       1.0  0.5229623910147154  0.2298579082762018  0.0057738735069392975  1.0000
  H   H34       1.0  0.47703596877835963  0.7701428528958089  0.9942245114576378  1.0000
  H   H35       1.0  0.20166679786942854  0.1764215831011029  0.919694310615661  1.0000
  H   H36       1.0  0.7983367070589226  0.8235781630395564  0.08030484747180111  1.0000
  H   H37       1.0  0.15363983486568603  0.9858014876821315  0.11137667718731585  1.0000
  H   H38       1.0  0.8463624560067089  0.0141962283958392  0.8886178288341496  1.0000
  H   H39       1.0  0.4957743456292363  0.0719281662243816  0.19262659134687252  1.0000
  H   H40       1.0  0.5042307250209676  0.928072594947622  0.8073713946172986  1.0000
  C   C1        1.0  0.6582664520596495  0.7940011646678755  0.3388135820037306  1.0000
  C   C2        1.0  0.34173337715146357  0.2060036566295125  0.6611760980226932  1.0000
  C   C3        1.0  0.155852738816229  0.7451243602960247  0.344350672275155  1.0000
  C   C4        1.0  0.8441475383646023  0.2548764008759861  0.6556441575330751  1.0000
  C   C5        1.0  0.023385876552296708  0.3439941229335943  0.3377906263474343  1.0000
  C   C6        1.0  0.9766109175189257  0.6560056232070649  0.6622072101623219  1.0000
  C   C7        1.0  0.981591902268228  0.4902834855171249  0.3363790533594083  1.0000
  C   C8        1.0  0.018410484907981584  0.5097111854668128  0.6636290075003259  1.0000
  C   C9        1.0  0.0837932156826469  0.5466694917817563  0.33714173528932173  1.0000
  C   C10       1.0  0.9162057511384134  0.4533322844215917  0.6628563948410786  1.0000
  C   C11       1.0  0.0478499375618568  0.6836946632764266  0.3390955614855998  1.0000
  C   C12       1.0  0.952147208175262  0.3163040678328883  0.6609127963269544  1.0000
  C   C13       1.0  0.9097711746480146  0.7641216869552849  0.339752115414548  1.0000
  C   C14       1.0  0.09022491609141531  0.235880089248063  0.6602461857160263  1.0000
  C   C15       1.0  0.8073122457366467  0.7089547333363981  0.33781602507836794  1.0000
  C   C16       1.0  0.19268474094220517  0.2910389226161882  0.6621925756158261  1.0000
  C   C17       1.0  0.8439681030067374  0.571607796905262  0.3363554499295559  1.0000
  C   C18       1.0  0.15603262214380456  0.4283889041413643  0.6636479708167187  1.0000
  C   C19       1.0  0.42867442222492974  0.6230485704554241  0.6116416123912529  1.0000
  C   C20       1.0  0.5713247999582052  0.3769552358106125  0.38835692535991484  1.0000
  C   C21       1.0  0.5181035197890296  0.7745288033389954  0.6232902977553039  1.0000
  C   C22       1.0  0.48189126059062193  0.2254739878957039  0.3767113036974408  1.0000
  C   C23       1.0  0.5538457474498987  0.6756698254602185  0.7257654268401268  1.0000
  C   C24       1.0  0.4461492882918351  0.3243349958371695  0.27423744252244114  1.0000
  C   C25       1.0  0.4921836727618112  0.4669255841983073  0.8103673259886294  1.0000
  C   C26       1.0  0.5078168597811016  0.533077207036392  0.1896304923075434  1.0000
  C   C27       1.0  0.36700720319525715  0.5030028433055023  0.8865740959430609  1.0000
  C   C28       1.0  0.6329915082637143  0.49699690283515713  0.11342362656657912  1.0000
  C   C29       1.0  0.2843692011481452  0.6380456585827332  0.8816247302031711  1.0000
  C   C30       1.0  0.7156292549487447  0.3619520574952375  0.11837344497475752  1.0000
  C   C31       1.0  0.16810079821878796  0.6700140708040152  0.9509161700968108  1.0000
  C   C32       1.0  0.8318969545463091  0.3299856753366441  0.04908419028005541  1.0000
  C   C33       1.0  0.1331134054910876  0.5662159503988491  0.026076690064528018  1.0000
  C   C34       1.0  0.8668830369142384  0.43378481077316167  0.9739243897673333  1.0000
  C   C35       1.0  0.21458165932854456  0.4310462562034516  0.031535025601066025  1.0000
  C   C36       1.0  0.7854228042936882  0.5689534899372148  0.96846579606445  1.0000
  C   C37       1.0  0.33163562378108213  0.3979034527156102  0.9628706461064098  1.0000
  C   C38       1.0  0.6683653567315346  0.6020952783937048  0.037132321971569154  1.0000
  C   C39       1.0  0.42184963746724696  0.2519043890968504  0.9671042195812021  1.0000
  C   C40       1.0  0.5781513430453771  0.7480943420124646  0.03289358676243381  1.0000
  C   C41       1.0  0.2538641147456602  0.1259207285767161  0.0042771431813478054  1.0000
  C   C42       1.0  0.7461331900497257  0.8740830776893205  0.9957249497261601  1.0000
  C   C43       1.0  0.23206580393905799  0.0319034502151823  0.09853381660482088  1.0000
  C   C44       1.0  0.7679278251390966  0.968105431207583  0.9014691217103418  1.0000
  C   C45       1.0  0.40840270473206897  0.0740840928018685  0.14546324972802438  1.0000
  C   C46       1.0  0.5915994898365114  0.9259166683701351  0.8545357675253769  1.0000
  N   N1        1.0  0.44002777697894396  0.7402654052459069  0.5532842429077363  1.0000
  N   N2        1.0  0.5599669070969  0.2597404310828253  0.4467158477535449  1.0000
  N   N3        1.0  0.496371327073419  0.5808313867403072  0.7170148176322471  1.0000
  N   N4        1.0  0.5036285984415088  0.41917038946304064  0.2829849760762144  1.0000
  N   N5        1.0  0.36586255866724576  0.151970493023363  0.03575779621770891  1.0000
  N   N6        1.0  0.6341387735112677  0.8480272230546078  0.9642410682490946  1.0000
  N   N7        1.0  0.32934090871381727  0.0004293582590762  0.1854543772317641  1.0000
  N   N8        1.0  0.6706540307241085  0.9995785081323446  0.8145487019174524  1.0000
  O   O1        1.0  0.6232623309567701  0.9073629104087786  0.36817691431087246  1.0000
  O   O2        1.0  0.37673839419377236  0.0926337906378478  0.6318265064354023  1.0000
  O   O3        1.0  0.2519247698802545  0.0361188753923543  0.4663870048567701  1.0000
  O   O4        1.0  0.7480735899128276  0.9638818857796494  0.5336148212640381  1.0000
  O   O5        1.0  0.5743660083069315  0.7442575235271036  0.30902120047120013  1.0000
  O   O6        1.0  0.4256311374301874  0.2557412075822114  0.690983716185123  1.0000
  O   O7        1.0  0.11725046787012877  0.8722336905781275  0.339377190635318  1.0000
  O   O8        1.0  0.8827472848949685  0.1277660555625317  0.6606266108977721  1.0000
  O   O9        1.0  0.2804696940371302  0.6673039371119742  0.35483211775834894  1.0000
  O   O10       1.0  0.7195315418375757  0.3326968240600294  0.6451703976513343  1.0000
  O   O11       1.0  0.1385906751631722  0.2761676983757013  0.31084345909329153  1.0000
  O   O12       1.0  0.8614083879617026  0.7238310327336137  0.6891587626957473  1.0000
  O   O13       1.0  0.9249675527800534  0.2899629893901334  0.3737705916048455  1.0000
  O   O14       1.0  0.07503544142413433  0.7100326966251416  0.626231192397313  1.0000
