data_image0
_chemical_formula_structural       Cu12H72C96N48O24
_chemical_formula_sum              "Cu12 H72 C96 N48 O24"
_cell_length_a       15.736244138973907
_cell_length_b       15.7364422481541
_cell_length_c       15.736205356057917
_cell_angle_alpha    94.40862475803986
_cell_angle_beta     94.40778726217513
_cell_angle_gamma    94.40885952906531

_space_group_name_H-M_alt    "P 1"
_space_group_IT_number       1

loop_
  _space_group_symop_operation_xyz
  'x, y, z'

loop_
  _atom_site_type_symbol
  _atom_site_label
  _atom_site_symmetry_multiplicity
  _atom_site_fract_x
  _atom_site_fract_y
  _atom_site_fract_z
  _atom_site_occupancy
  Cu  Cu1       1.0  0.26211128338130857  0.7378980673464  0.499999932013246  1.0000
  Cu  Cu2       1.0  0.4999990889922755  0.26210455394364374  0.7378896245756293  1.0000
  Cu  Cu3       1.0  0.7378868250146341  0.5000002610903849  0.2621127582972634  1.0000
  Cu  Cu4       1.0  0.7378898272536888  0.2621036675922284  0.4999988560748747  1.0000
  Cu  Cu5       1.0  0.5000013839926609  0.7378958582023788  0.26211155770302247  1.0000
  Cu  Cu6       1.0  0.26211172817798456  0.49999999362849934  0.7378876319880733  1.0000
  Cu  Cu7       1.0  0.2445079922884617  0.9999989832710554  0.7554883492574903  1.0000
  Cu  Cu8       1.0  0.7554745492201675  0.24448806697947134  0.9999904850755287  1.0000
  Cu  Cu9       1.0  9.714640029300177e-06  0.7555131599594919  0.24452723611217664  1.0000
  Cu  Cu10      1.0  0.75549375451358  8.91451925605096e-07  0.244510346587191  1.0000
  Cu  Cu11      1.0  0.24452656115587956  0.7555117587878045  1.0065563408493004e-05  1.0000
  Cu  Cu12      1.0  0.9999894760300093  0.24448714477109232  0.7554719350165087  1.0000
  H   H1        1.0  0.42549594917493744  0.9466244667149087  0.758674784011184  1.0000
  H   H2        1.0  0.22165508289347707  0.5571672832094025  0.40974102040999577  1.0000
  H   H3        1.0  0.06690617491774728  0.9046223182788823  0.7519031711365897  1.0000
  H   H4        1.0  0.08380306745770841  0.6984572369239855  0.5556535362083252  1.0000
  H   H5        1.0  0.9928388638336045  0.7752057354997814  0.6601564214857306  1.0000
  H   H6        1.0  0.7586766927291607  0.4254521054278371  0.9466035536204489  1.0000
  H   H7        1.0  0.4097269848417254  0.22163691755789472  0.5571664078537566  1.0000
  H   H8        1.0  0.7518832930029903  0.0668722295881423  0.9045996857838929  1.0000
  H   H9        1.0  0.5556487499574843  0.08380445795767599  0.6984310909751131  1.0000
  H   H10       1.0  0.6601499936755175  0.992826515088005  0.7751776145841162  1.0000
  H   H11       1.0  0.9466200411431345  0.7587156882062729  0.4255195521290887  1.0000
  H   H12       1.0  0.5571494049170906  0.4097392479304817  0.22166652572393278  1.0000
  H   H13       1.0  0.9046162274748538  0.7519162978564041  0.06693818789944572  1.0000
  H   H14       1.0  0.6984444192131035  0.5556830393536673  0.08383824628281639  1.0000
  H   H15       1.0  0.7751938847950868  0.6601930040757368  0.992882967562913  1.0000
  H   H16       1.0  0.2413190672448167  0.053375160458315904  0.574496977711945  1.0000
  H   H17       1.0  0.5902577107913913  0.4428345716293407  0.7783434473679094  1.0000
  H   H18       1.0  0.24809178717341498  0.09537503746120281  0.9330883831714587  1.0000
  H   H19       1.0  0.4443424256043116  0.30154108696367393  0.9161969032788307  1.0000
  H   H20       1.0  0.3398382503175554  0.2247904861673931  0.0071591029969085085  1.0000
  H   H21       1.0  0.053396976872846794  0.5745492225943567  0.2413271360866318  1.0000
  H   H22       1.0  0.44283296750875684  0.7783634910473579  0.5902711089217831  1.0000
  H   H23       1.0  0.09540067281465527  0.9331287982975596  0.2481164420321562  1.0000
  H   H24       1.0  0.30156864255748417  0.9161994851861835  0.4443532229562522  1.0000
  H   H25       1.0  0.224820452967748  0.0071769236138337035  0.3398518865860681  1.0000
  H   H26       1.0  0.5744818111332533  0.24128051758897584  0.053379145382443496  1.0000
  H   H27       1.0  0.7783345771887936  0.590263155898839  0.442852598393138  1.0000
  H   H28       1.0  0.9330630281867228  0.24808587480389835  0.0953870033433546  1.0000
  H   H29       1.0  0.9161615531239845  0.4443190562817136  0.30155692586606625  1.0000
  H   H30       1.0  0.007117184916864999  0.33980768862650024  0.2248078498649306  1.0000
  H   H31       1.0  0.574503241581418  0.0533764744061287  0.2413237996005577  1.0000
  H   H32       1.0  0.778345387988594  0.44283312682461684  0.5902588905934393  1.0000
  H   H33       1.0  0.9330936551599578  0.09537676579451929  0.24809722714454807  1.0000
  H   H34       1.0  0.9161967639303724  0.3015437573767699  0.4443457351596011  1.0000
  H   H35       1.0  0.007161604859277299  0.22479403603178136  0.3398428057594245  1.0000
  H   H36       1.0  0.24132505933005177  0.5745477745751659  0.05339832041227771  1.0000
  H   H37       1.0  0.5902728452359797  0.7783621665155066  0.44283399042738136  1.0000
  H   H38       1.0  0.24811526229250083  0.933128027242745  0.09540197577666024  1.0000
  H   H39       1.0  0.4443517229411426  0.9161953177978931  0.3015706788204752  1.0000
  H   H40       1.0  0.33984856153364973  0.0071731053524289054  0.2248246344933804  1.0000
  H   H41       1.0  0.0533778701936853  0.24128323949598496  0.5744806897963459  1.0000
  H   H42       1.0  0.44285106263804147  0.5902598861546197  0.7783326534005541  1.0000
  H   H43       1.0  0.0953829609196859  0.24808273198127756  0.9330608869879031  1.0000
  H   H44       1.0  0.30155540981316165  0.44431604366372573  0.9161615163607094  1.0000
  H   H45       1.0  0.22480594090424688  0.3398048029927451  0.007116063201671393  1.0000
  H   H46       1.0  0.7586807640569545  0.9466251974519866  0.4255028811729246  1.0000
  H   H47       1.0  0.40974340080872196  0.5571665279748429  0.22165656387475957  1.0000
  H   H48       1.0  0.7519086803817103  0.9046240966238984  0.06691079595303512  1.0000
  H   H49       1.0  0.5556580451914428  0.6984586866798923  0.08380359524154102  1.0000
  H   H50       1.0  0.6601628567315599  0.7752080636509786  0.9928407157630872  1.0000
  H   H51       1.0  0.9466028489127963  0.42544922086457854  0.7586713071610163  1.0000
  H   H52       1.0  0.5571668583632033  0.22163558880203027  0.4097267468089214  1.0000
  H   H53       1.0  0.9045959616370708  0.06687130005018099  0.7518837918974839  1.0000
  H   H54       1.0  0.698429909756328  0.08380204125759862  0.5556453566575997  1.0000
  H   H55       1.0  0.775176182535418  0.9928231757899085  0.660148982981177  1.0000
  H   H56       1.0  0.4255186565945123  0.7587198892770319  0.9466188587081632  1.0000
  H   H57       1.0  0.2216658946583934  0.40973661880072837  0.5571485357648456  1.0000
  H   H58       1.0  0.0669374471600364  0.7519164486254794  0.9046136876596904  1.0000
  H   H59       1.0  0.08383956066531789  0.5556826818249264  0.698443769134883  1.0000
  H   H60       1.0  0.9928845662635479  0.6601934631013935  0.775192213496304  1.0000
  H   H61       1.0  0.509164981852848  0.8444140969006709  0.8443807567291373  1.0000
  H   H62       1.0  0.8443721484794724  0.5091131702939151  0.8443698178856778  1.0000
  H   H63       1.0  0.8443854982714781  0.8444123104297104  0.5091709182756787  1.0000
  H   H64       1.0  0.1556143318925436  0.155587410034137  0.4908288924885227  1.0000
  H   H65       1.0  0.15562704219056658  0.4908871344366688  0.15562935324300753  1.0000
  H   H66       1.0  0.49083420776575787  0.1555862067739113  0.15561777876194333  1.0000
  H   H67       1.0  0.2880197535835051  0.4756025866254134  0.2880199893183217  1.0000
  H   H68       1.0  0.2880148745682333  0.2880030177350577  0.4756017757215503  1.0000
  H   H69       1.0  0.4756020834891785  0.2880049434524564  0.2880148370619012  1.0000
  H   H70       1.0  0.711980719487748  0.5243984619110621  0.7119806054433867  1.0000
  H   H71       1.0  0.5243971071808602  0.7119953612781277  0.7119843340667915  1.0000
  H   H72       1.0  0.7119849566472212  0.7119967037847986  0.5243986706802559  1.0000
  C   C1        1.0  0.39741119963912297  0.9100953088818146  0.807374326248059  1.0000
  C   C2        1.0  0.27665019627476545  0.5840289967122204  0.3794311809936631  1.0000
  C   C3        1.0  0.09832665814150231  0.8699099266459669  0.701998550350453  1.0000
  C   C4        1.0  0.107492067811414  0.7569461397879138  0.5949486160119833  1.0000
  C   C5        1.0  0.22390631737751218  0.8614452159004461  0.6291904653889944  1.0000
  C   C6        1.0  0.058224953467330885  0.7987878632700713  0.6523247884585358  1.0000
  C   C7        1.0  0.8073802147426219  0.3973692563346276  0.910076619367949  1.0000
  C   C8        1.0  0.3794249280359381  0.2766368770164362  0.584026860840723  1.0000
  C   C9        1.0  0.7019909227076938  0.09830432404648803  0.8698857564709855  1.0000
  C   C10       1.0  0.5949445388476704  0.10748432063734009  0.7569219526676251  1.0000
  C   C11       1.0  0.6291913163482192  0.22388820181629407  0.8614339285083831  1.0000
  C   C12       1.0  0.6523199441089459  0.058212546886053894  0.798757575290736  1.0000
  C   C13       1.0  0.9100861190189915  0.8074069662165826  0.3974257132949646  1.0000
  C   C14       1.0  0.5840200714793368  0.37942685453298  0.2766535862108269  1.0000
  C   C15       1.0  0.8699121035169951  0.7020083346691379  0.0983626778334568  1.0000
  C   C16       1.0  0.7569413829008909  0.5949650319489878  0.10752695277883362  1.0000
  C   C17       1.0  0.8614561071020288  0.6291959383996186  0.22393791340655156  1.0000
  C   C18       1.0  0.798785973145165  0.6523412857211285  0.058261537139365834  1.0000
  C   C19       1.0  0.1926226667731683  0.08990687447197841  0.6025833001390665  1.0000
  C   C20       1.0  0.6205689751736472  0.41597231243708427  0.7233501365895806  1.0000
  C   C21       1.0  0.29799819290663976  0.1300896929781885  0.9016708062396717  1.0000
  C   C22       1.0  0.40504823489669656  0.24305206149181663  0.892507091206369  1.0000
  C   C23       1.0  0.37080667913257764  0.13855394621019462  0.7760903147498369  1.0000
  C   C24       1.0  0.3476720051304412  0.20120812649021502  0.9417739495774526  1.0000
  C   C25       1.0  0.08992194242802748  0.6026316691459926  0.19262195503653604  1.0000
  C   C26       1.0  0.41597302097721206  0.7233629638358678  0.620574100296068  1.0000
  C   C27       1.0  0.130114276197105  0.9016974923340371  0.29801029292653425  1.0000
  C   C28       1.0  0.24307819944102246  0.8925183984320029  0.4050569871828813  1.0000
  C   C29       1.0  0.13856848308289926  0.776112396631497  0.37080723934634113  1.0000
  C   C30       1.0  0.20124287096564328  0.9417895564579624  0.34768103771629194  1.0000
  C   C31       1.0  0.6025786263445453  0.192591735093778  0.089914636737781  1.0000
  C   C32       1.0  0.7233482673782845  0.6205751403309847  0.41598123920923774  1.0000
  C   C33       1.0  0.9016375539186398  0.2979935456927905  0.13009050628538432  1.0000
  C   C34       1.0  0.8924727281513823  0.40503588596079954  0.2430598637312329  1.0000
  C   C35       1.0  0.7760622846433946  0.37080406922216724  0.138544710330919  1.0000
  C   C36       1.0  0.9417384255494383  0.34766047244843895  0.20121659984203427  1.0000
  C   C37       1.0  0.602589270277825  0.0899057364866493  0.1926243616008279  1.0000
  C   C38       1.0  0.7233509141875984  0.4159714654455088  0.6205687821283377  1.0000
  C   C39       1.0  0.9016744523208615  0.1300905355117621  0.29800141277154774  1.0000
  C   C40       1.0  0.8925084041220898  0.24305427130210686  0.40505193062905676  1.0000
  C   C41       1.0  0.7760941523668093  0.1385545566871187  0.37080939749377245  1.0000
  C   C42       1.0  0.9417767953512594  0.20121137717446658  0.3476757661783055  1.0000
  C   C43       1.0  0.19262089571974167  0.6026312058231015  0.0899233437540516  1.0000
  C   C44       1.0  0.6205755427598163  0.7233628966271299  0.4159736376796488  1.0000
  C   C45       1.0  0.2980095514149994  0.9016967255459817  0.13011547392833478  1.0000
  C   C46       1.0  0.40505593413727325  0.8925160915086822  0.2430792296110269  1.0000
  C   C47       1.0  0.3708085137294858  0.7761108822571074  0.1385664697727549  1.0000
  C   C48       1.0  0.3476798913985703  0.9417878152482615  0.20124482614455994  1.0000
  C   C49       1.0  0.08991435291451208  0.1925934448734381  0.6025748333460753  1.0000
  C   C50       1.0  0.41597975982243435  0.6205735033773225  0.7233462726740426  1.0000
  C   C51       1.0  0.1300870859289773  0.29799069622454516  0.9016370326915037  1.0000
  C   C52       1.0  0.24305844393619214  0.40503341256594894  0.8924721261064192  1.0000
  C   C53       1.0  0.1385443603667866  0.3708025592950364  0.7760618532348786  1.0000
  C   C54       1.0  0.20121385474335088  0.34765715984980966  0.9417381773834989  1.0000
  C   C55       1.0  0.8073784470161344  0.9100948636346615  0.39741739486188277  1.0000
  C   C56       1.0  0.37943277486901644  0.5840282018443617  0.2766498786509857  1.0000
  C   C57       1.0  0.702002914228785  0.8699094932306366  0.09832842500338759  1.0000
  C   C58       1.0  0.5949515951810084  0.7569470225815778  0.10749330707476902  1.0000
  C   C59       1.0  0.6291937906117367  0.8614458263773699  0.223909548132923  1.0000
  C   C60       1.0  0.6523291019186672  0.7987904233281569  0.05822586918255012  1.0000
  C   C61       1.0  0.9100766053347796  0.39736730751196353  0.8073764320946353  1.0000
  C   C62       1.0  0.5840261696928265  0.2766373408947231  0.3794250708326246  1.0000
  C   C63       1.0  0.8698829966971644  0.09830202069095859  0.7019899450010029  1.0000
  C   C64       1.0  0.7569197131198563  0.10748180310715581  0.5949427153462851  1.0000
  C   C65       1.0  0.8614307053116333  0.22388663320618463  0.6291918355410147  1.0000
  C   C66       1.0  0.7987544020149427  0.0582105929574865  0.6523186126943017  1.0000
  C   C67       1.0  0.39742120399210273  0.8074092581509689  0.9100839989925404  1.0000
  C   C68       1.0  0.27665348257805517  0.3794247375600079  0.5840193635482648  1.0000
  C   C69       1.0  0.09836292029036292  0.7020081402901397  0.8699101365969923  1.0000
  C   C70       1.0  0.1075277427306816  0.5949645240732196  0.7569400472722022  1.0000
  C   C71       1.0  0.22393754876124916  0.6291962908001453  0.8614564198291603  1.0000
  C   C72       1.0  0.0582626871884244  0.6523412646021997  0.7987834595213031  1.0000
  C   C73       1.0  0.27406102823613304  0.8810476034584765  0.8810346601902951  1.0000
  C   C74       1.0  0.44272683901476034  0.853722246446175  0.8537008929195907  1.0000
  C   C75       1.0  0.8810449376519641  0.274021381485504  0.8810445524459852  1.0000
  C   C76       1.0  0.8536918890510633  0.44268200013203807  0.8536894938000898  1.0000
  C   C77       1.0  0.8810356533814384  0.8810460573268913  0.27406509663629913  1.0000
  C   C78       1.0  0.8537026742426973  0.8537194796939718  0.44273120595994436  1.0000
  C   C79       1.0  0.11896417564483391  0.1189530256905016  0.7259346660072268  1.0000
  C   C80       1.0  0.14629972089637994  0.14628300116255133  0.5572702770364159  1.0000
  C   C81       1.0  0.1189555309546009  0.7259777536556058  0.1189552623161063  1.0000
  C   C82       1.0  0.14630601816632802  0.55731755973666  0.1463076180579748  1.0000
  C   C83       1.0  0.7259388041170779  0.11895275550783421  0.1189658343321796  1.0000
  C   C84       1.0  0.557272994562517  0.14627938635703694  0.14629906220660874  1.0000
  C   C85       1.0  0.3782507756664018  0.7026563423718174  0.3782507462682787  1.0000
  C   C86       1.0  0.31266618453724954  0.5399475589201829  0.3126659703232022  1.0000
  C   C87       1.0  0.37824981686652137  0.37824304471645587  0.7026524258800891  1.0000
  C   C88       1.0  0.3126628756990256  0.3126507136230856  0.5399460365996519  1.0000
  C   C89       1.0  0.7026521440203196  0.37824352275710277  0.37825117754719173  1.0000
  C   C90       1.0  0.5399467375662111  0.3126517746371178  0.3126636934203971  1.0000
  C   C91       1.0  0.621749696267102  0.29734406871820335  0.6217498003727614  1.0000
  C   C92       1.0  0.6873355665568467  0.4600529564172647  0.6873346805549758  1.0000
  C   C93       1.0  0.29734768500595266  0.6217555602602971  0.6217485850963343  1.0000
  C   C94       1.0  0.46005309373556  0.6873485832731847  0.6873361654644726  1.0000
  C   C95       1.0  0.6217506539292259  0.62175672892711  0.2973480726402827  1.0000
  C   C96       1.0  0.6873382347633381  0.6873497485346435  0.46005392652234894  1.0000
  N   N1        1.0  0.3161459948420102  0.9222598272007758  0.8193423075284372  1.0000
  N   N2        1.0  0.30733284973036484  0.6626839899141006  0.4099544446823415  1.0000
  N   N3        1.0  0.1875658269448905  0.7862421273519828  0.5849132091108799  1.0000
  N   N4        1.0  0.17835809995706597  0.8991412834094205  0.6919576265901738  1.0000
  N   N5        1.0  0.8193515029174206  0.31611201882548556  0.9222523338052684  1.0000
  N   N6        1.0  0.40995077847724554  0.30732586961597264  0.6626822976426895  1.0000
  N   N7        1.0  0.5849100539901996  0.18755537908032238  0.7862296503141266  1.0000
  N   N8        1.0  0.6919517858964922  0.1783334822276998  0.8991289402336591  1.0000
  N   N9        1.0  0.9222554306810907  0.8193643689964676  0.3161599229757854  1.0000
  N   N10       1.0  0.662673929212751  0.4099529455320764  0.3073336314426172  1.0000
  N   N11       1.0  0.7862471796266419  0.584923271131629  0.1875979035878856  1.0000
  N   N12       1.0  0.89915324838973  0.691964436396816  0.1783923739268118  1.0000
  N   N13       1.0  0.1806550596345389  0.07773965035051592  0.6838491127260938  1.0000
  N   N14       1.0  0.5900452716205605  0.33731726504593956  0.6926679014941755  1.0000
  N   N15       1.0  0.4150838195086449  0.21375601221035367  0.8124322911860774  1.0000
  N   N16       1.0  0.3080384282876096  0.10085781340024623  0.8216374144598504  1.0000
  N   N17       1.0  0.07774702046560118  0.6838892171194145  0.18065016088846866  1.0000
  N   N18       1.0  0.3373178682951589  0.6926738589700463  0.5900481689895755  1.0000
  N   N19       1.0  0.2137715900008743  0.8124460044571366  0.41508876046572857  1.0000
  N   N20       1.0  0.10087296459324341  0.8216667452017747  0.3080475826309339  1.0000
  N   N21       1.0  0.6838438402682314  0.18063402466316353  0.07774427097475473  1.0000
  N   N22       1.0  0.6926679502490386  0.5900481941210743  0.3373263747769358  1.0000
  N   N23       1.0  0.8124025066697484  0.4150780713167849  0.21375350900820683  1.0000
  N   N24       1.0  0.8216077223825166  0.30803656643320926  0.1008482637598931  1.0000
  N   N25       1.0  0.6838531958280284  0.0777404775298152  0.18065686360025524  1.0000
  N   N26       1.0  0.6926682608183156  0.33731710863408176  0.5900449309227228  1.0000
  N   N27       1.0  0.8124346428857407  0.21375828162603477  0.41508606625495054  1.0000
  N   N28       1.0  0.8216417291555158  0.10085843599842546  0.3080415485364156  1.0000
  N   N29       1.0  0.18065024817667558  0.6838884965119618  0.07774831707290993  1.0000
  N   N30       1.0  0.5900503318988015  0.6926739561513102  0.33731825299624774  1.0000
  N   N31       1.0  0.4150904189947439  0.8124450330656998  0.2137715319645253  1.0000
  N   N32       1.0  0.3080493278928103  0.82166825587894  0.10087175476729021  1.0000
  N   N33       1.0  0.07774504125241319  0.18063604209354622  0.6838406236652615  1.0000
  N   N34       1.0  0.33732526031953813  0.59004672175206  0.6926654915653999  1.0000
  N   N35       1.0  0.2137526493996305  0.415075811885764  0.8124018590556474  1.0000
  N   N36       1.0  0.10084658063653507  0.30803464662057684  0.821607388716714  1.0000
  N   N37       1.0  0.8193454100234588  0.9222594858465953  0.3161513376736096  1.0000
  N   N38       1.0  0.40995583884180314  0.6626831971117895  0.3073320616278253  1.0000
  N   N39       1.0  0.5849172898159694  0.7862438125009207  0.187567623815255  1.0000
  N   N40       1.0  0.6919626799855648  0.8991420102550265  0.1783618649038701  1.0000
  N   N41       1.0  0.9222521701181278  0.316110451220716  0.8193495977571601  1.0000
  N   N42       1.0  0.6626819641443688  0.3073271363867107  0.4099517380159554  1.0000
  N   N43       1.0  0.7862282391980244  0.18755435134116274  0.5849098271439247  1.0000
  N   N44       1.0  0.8991255864101858  0.1783328710146463  0.6919521238961295  1.0000
  N   N45       1.0  0.3161566284246504  0.8193657468683924  0.9222549562704003  1.0000
  N   N46       1.0  0.30733252054671567  0.4099515795224918  0.6626741237434358  1.0000
  N   N47       1.0  0.1875973266485786  0.5849216523150673  0.7862482086688162  1.0000
  N   N48       1.0  0.17839211215988368  0.691964431035558  0.8991529145208617  1.0000
  O   O1        1.0  0.2951163180885458  0.8940863984713305  0.6132938566172044  1.0000
  O   O2        1.0  0.6133053768980048  0.29510287853160827  0.8940823459492293  1.0000
  O   O3        1.0  0.8940976257922841  0.6132935530215707  0.29514619430948136  1.0000
  O   O4        1.0  0.3867032076444871  0.10591255844823169  0.704879954556027  1.0000
  O   O5        1.0  0.1059191220695226  0.7048957777600436  0.3866929015458993  1.0000
  O   O6        1.0  0.7048546387707971  0.3867064585912914  0.1059031868429656  1.0000
  O   O7        1.0  0.7048841516557686  0.10591337411623408  0.38670600626556256  1.0000
  O   O8        1.0  0.3866944565929557  0.7048981178811503  0.10591819669391361  1.0000
  O   O9        1.0  0.1059015636536884  0.38670547787211257  0.7048535162154793  1.0000
  O   O10       1.0  0.613297262186144  0.8940878505297789  0.2951193208097962  1.0000
  O   O11       1.0  0.89408070590531  0.29510330420134784  0.613306225460022  1.0000
  O   O12       1.0  0.29514519778815895  0.6132939045990325  0.8940998502299422  1.0000
  O   O13       1.0  0.2012080590760519  0.8985732211814722  0.8985682558831416  1.0000
  O   O14       1.0  0.8985763072360412  0.2011761059884378  0.8985765531412397  1.0000
  O   O15       1.0  0.8985684332040689  0.8985707406186311  0.2012118420026781  1.0000
  O   O16       1.0  0.101431391357508  0.10142642900340348  0.7987871406412381  1.0000
  O   O17       1.0  0.10142480314000578  0.798823719778845  0.10142399749770452  1.0000
  O   O18       1.0  0.7987924160980738  0.10142782946700632  0.10143361015378359  1.0000
  O   O19       1.0  0.41178666046675266  0.7730410509591723  0.4117852958401543  1.0000
  O   O20       1.0  0.4117821863353582  0.41177945941547023  0.7730390920049998  1.0000
  O   O21       1.0  0.7730398549657521  0.41177971469509345  0.41178314847085323  1.0000
  O   O22       1.0  0.5882144499092944  0.2269587748081037  0.5882152547987901  1.0000
  O   O23       1.0  0.22696061145163068  0.58821878194356  0.588215982532965  1.0000
  O   O24       1.0  0.588218284460396  0.5882203142280957  0.22696140651537178  1.0000
