data_image0
_chemical_formula_structural       Ag8H32C52O16F24
_chemical_formula_sum              "Ag8 H32 C52 O16 F24"
_cell_length_a       9.43151382237329
_cell_length_b       11.119548361708707
_cell_length_c       18.074727874975558
_cell_angle_alpha    83.61484570554647
_cell_angle_beta     74.79750616688145
_cell_angle_gamma    64.9065550792931

_space_group_name_H-M_alt    "P 1"
_space_group_IT_number       1

loop_
  _space_group_symop_operation_xyz
  'x, y, z'

loop_
  _atom_site_type_symbol
  _atom_site_label
  _atom_site_symmetry_multiplicity
  _atom_site_fract_x
  _atom_site_fract_y
  _atom_site_fract_z
  _atom_site_occupancy
  Ag  Ag1       1.0  0.4382257242034697  0.522659475593521  0.21117566962861636  1.0000
  Ag  Ag2       1.0  0.039221808116046517  0.5226684129820782  0.7889597955024286  1.0000
  Ag  Ag3       1.0  0.3990663482711909  0.0225251982818264  0.28892773051273213  1.0000
  Ag  Ag4       1.0  0.5785470619843806  0.0227247999594979  0.710957609677102  1.0000
  Ag  Ag5       1.0  0.5824207461429012  0.7461269598307823  0.2670883309981065  1.0000
  Ag  Ag6       1.0  0.6715020932668949  0.7462590345727236  0.7327561390061205  1.0000
  Ag  Ag7       1.0  0.5998606227877094  0.24615752768571747  0.23299044647605877  1.0000
  Ag  Ag8       1.0  0.1543221295006634  0.2461257503041949  0.767108754281601  1.0000
  H   H1        1.0  0.6709722984174888  0.2707134992553009  0.078366021381278  1.0000
  H   H2        1.0  0.05762473612274747  0.270834650522346  0.921433695812709  1.0000
  H   H3        1.0  0.49984812136626333  0.7707425139907187  0.4215208643950703  1.0000
  H   H4        1.0  0.7294879769918198  0.7707991174515528  0.5784291597495396  1.0000
  H   H5        1.0  0.9297254830622421  0.2633222789223808  0.08810208869714836  1.0000
  H   H6        1.0  0.8060496818137609  0.26378205791125  0.9117489220620951  1.0000
  H   H7        1.0  0.7683340116466012  0.7633800919098022  0.41174344228509335  1.0000
  H   H8        1.0  0.46838056702992503  0.763372147564418  0.5881470347913478  1.0000
  H   H9        1.0  0.7327476488494539  0.6898561684610485  0.09047296050317037  1.0000
  H   H10       1.0  0.5769869319881805  0.6903189265794367  0.9095630824415293  1.0000
  H   H11       1.0  0.5736451744463055  0.1898847502296448  0.40938419979566015  1.0000
  H   H12       1.0  0.23640725207702928  0.1898867363159837  0.5905653915166055  1.0000
  H   H13       1.0  0.47141935422001774  0.6996863028256328  0.08105387329273131  1.0000
  H   H14       1.0  0.8286175425781507  0.6998253288697782  0.9190390387085187  1.0000
  H   H15       1.0  0.30283164646445493  0.1996870793853915  0.4189429667890251  1.0000
  H   H16       1.0  0.49740169177419347  0.1997784393572601  0.5809732112299315  1.0000
  H   H17       1.0  0.3841461939912634  0.4158983971611931  0.05447340109033409  1.0000
  H   H18       1.0  0.19948978484266203  0.41580902327566355  0.9455536588674319  1.0000
  H   H19       1.0  0.18880509285223485  0.9159015927741195  0.4457069413146685  1.0000
  H   H20       1.0  0.8952502705793036  0.9160575005521991  0.5541702196071512  1.0000
  H   H21       1.0  0.32642661043043125  0.5891228620857945  0.04330740984791961  1.0000
  H   H22       1.0  0.08395311093585929  0.588985822127988  0.9569279689005652  1.0000
  H   H23       1.0  0.1199732947368447  0.0890789517027955  0.4570103073904193  1.0000
  H   H24       1.0  0.7908717292818038  0.0892020890561867  0.5428468484408455  1.0000
  H   H25       1.0  0.0307256863613432  0.5478033287212298  0.08660348959156039  1.0000
  H   H26       1.0  0.4206055909908386  0.548264100753272  0.9135307581399915  1.0000
  H   H27       1.0  0.8677538597306268  0.0479898043542519  0.41317419219225116  1.0000
  H   H28       1.0  0.0843291209941699  0.0478914930801722  0.586703052508035  1.0000
  H   H29       1.0  0.10780498901472402  0.37430676996736173  0.07251030364567869  1.0000
  H   H30       1.0  0.5172691170252718  0.3747367576610543  0.927507178084845  1.0000
  H   H31       1.0  0.9308100867459714  0.8744688524878866  0.4272949668162198  1.0000
  H   H32       1.0  0.19488277688013533  0.8743874229477414  0.5725938032977425  1.0000
  C   C1        1.0  0.5504862628412113  0.48619989551517767  0.0765444214483963  1.0000
  C   C2        1.0  0.962766069142433  0.486278345925804  0.9235224633390331  1.0000
  C   C3        1.0  0.37742738119382585  0.9861653554875504  0.4234938555294788  1.0000
  C   C4        1.0  0.6363882576073151  0.986259694588938  0.5764296092688141  1.0000
  C   C5        1.0  0.6798667458694254  0.3632859768389523  0.0857637809681009  1.0000
  C   C6        1.0  0.9561411984147485  0.3634875646029698  0.9141560395210319  1.0000
  C   C7        1.0  0.516120696900522  0.8633348524378164  0.41416103495967593  1.0000
  C   C8        1.0  0.6205892382863567  0.8633795393805813  0.5857750127447973  1.0000
  C   C9        1.0  0.8284347562356587  0.3595283014742137  0.08829332681107617  1.0000
  C   C10       1.0  0.8112000854150383  0.359942400477145  0.9116674838997411  1.0000
  C   C11       1.0  0.6672204634438755  0.859593065763832  0.41159921328259225  1.0000
  C   C12       1.0  0.47325454619162627  0.8596039892387353  0.5882821163347457  1.0000
  C   C13       1.0  0.8540906959225012  0.4762863455241018  0.08230163110617641  1.0000
  C   C14       1.0  0.6688677682584441  0.4767630062469054  0.9177735620397057  1.0000
  C   C15       1.0  0.6868425230650032  0.9763382002524851  0.4176064999318426  1.0000
  C   C16       1.0  0.3368724521072153  0.9763620332886235  0.5822734446380905  1.0000
  C   C17       1.0  0.7185673902853438  0.5976640264124669  0.08954549455359742  1.0000
  C   C18       1.0  0.6832290218998557  0.5980542923792598  0.9105253089299836  1.0000
  C   C19       1.0  0.5585195651853994  0.0976886360083711  0.41038016011369643  1.0000
  C   C20       1.0  0.34376839525000263  0.0977214064330667  0.5895486155989146  1.0000
  C   C21       1.0  0.5686293948090366  0.6032836577256475  0.08690926843406294  1.0000
  C   C22       1.0  0.8276284976986262  0.6034862385328381  0.9132050114037111  1.0000
  C   C23       1.0  0.4059184109834959  0.1032754968968561  0.4131387414763665  1.0000
  C   C24       1.0  0.4907661577637157  0.1033549403506555  0.5867975045172429  1.0000
  C   C25       1.0  0.43006977278256636  0.4922922153784627  0.03346276975558743  1.0000
  C   C26       1.0  0.07715438143542049  0.4921293562981717  0.9666421300656793  1.0000
  C   C27       1.0  0.21380997872156352  0.9921861762424201  0.4667142852305659  1.0000
  C   C28       1.0  0.7939486906983789  0.992295410991396  0.5331566337322399  1.0000
  C   C29       1.0  0.02219314297258281  0.4710718758253023  0.05681448706791769  1.0000
  C   C30       1.0  0.5059695204810813  0.4715207313392753  0.9432608867436866  1.0000
  C   C31       1.0  0.8293988343240314  0.9712210487845924  0.4430081696370536  1.0000
  C   C32       1.0  0.19947637077117253  0.9711565009783812  0.5568805703693513  1.0000
  C   C33       1.0  0.6916899126872307  0.4152926408259674  0.31994565470295555  1.0000
  C   C34       1.0  0.8934420134500771  0.4153452721141093  0.680110409340436  1.0000
  C   C35       1.0  0.7615365315450621  0.9153871964107623  0.18004211051926686  1.0000
  C   C36       1.0  0.32335998525512405  0.9151945460353019  0.8198692259530275  1.0000
  C   C37       1.0  0.7718376720888784  0.4331187588155175  0.38083150933839954  1.0000
  C   C38       1.0  0.79541085183984  0.43288737975632335  0.6192931942399652  1.0000
  C   C39       1.0  0.9030458591491454  0.93296803273671  0.11914513851630198  1.0000
  C   C40       1.0  0.16424096850801145  0.9329789562116062  0.8807481698084202  1.0000
  C   C41       1.0  0.9298497582417294  0.4553430650160736  0.3474594729198372  1.0000
  C   C42       1.0  0.615228961664343  0.45512260943177557  0.6527117789877152  1.0000
  C   C43       1.0  0.027409835353687104  0.9553144832474844  0.1525253882848432  1.0000
  C   C44       1.0  0.0175288600632015  0.955410808435218  0.8473424473971035  1.0000
  C   C45       1.0  0.06296684789219141  0.3487865534772752  0.2893341054076686  1.0000
  C   C46       1.0  0.5885024956956856  0.34866540221023  0.7108491938899419  1.0000
  C   C47       1.0  0.10223319470242129  0.8488533038532466  0.21065901340718085  1.0000
  C   C48       1.0  0.049069247211726216  0.8489168586162847  0.7892589116017203  1.0000
  C   C49       1.0  0.2275363702005677  0.3608023758645302  0.26359451983853427  1.0000
  C   C50       1.0  0.4117511389707933  0.3609284923474334  0.7365411299599316  1.0000
  C   C51       1.0  0.2408051140377553  0.8610607835727889  0.23643668890612446  1.0000
  C   C52       1.0  0.8980919890396637  0.8610756792203773  0.7636659342542345  1.0000
  O   O1        1.0  0.6114994224435153  0.5202781580658709  0.28816453475901227  1.0000
  O   O2        1.0  0.8683600486310536  0.5203814345558087  0.7119215204811056  1.0000
  O   O3        1.0  0.6495527680103309  0.0204447728354324  0.21179151119657288  1.0000
  O   O4        1.0  0.33027535855399043  0.020126999020234803  0.7879250686123243  1.0000
  O   O5        1.0  0.7142264462157331  0.2977292387631749  0.3104079173921903  1.0000
  O   O6        1.0  0.9888017146792619  0.2978583343755972  0.6895635984780596  1.0000
  O   O7        1.0  0.7742836036248307  0.7978803978088038  0.1896146915081616  1.0000
  O   O8        1.0  0.42817991799450555  0.7976748378720941  0.8104800018625509  1.0000
  O   O9        1.0  0.22158606870522143  0.4749318346368128  0.26659434247842734  1.0000
  O   O10       1.0  0.30368299264100784  0.47509568676027675  0.7334982179459004  1.0000
  O   O11       1.0  0.23780170959189215  0.9752150684243901  0.23343035295633285  1.0000
  O   O12       1.0  0.7869383779510529  0.9752110962516981  0.7666735054439257  1.0000
  O   O13       1.0  0.34848541083154316  0.2534375271833156  0.2405560426104216  1.0000
  O   O14       1.0  0.3980797144552214  0.2536023723499525  0.7596144892232246  1.0000
  O   O15       1.0  0.33854649089468575  0.7537416148775122  0.25955023440558017  1.0000
  O   O16       1.0  0.9075928897061089  0.7536959348915744  0.7406650102728136  1.0000
  F   F1        1.0  0.8039462742083289  0.3266387116009994  0.4294130909769293  1.0000
  F   F2        1.0  0.8698073484149306  0.3262325569434523  0.5708331920023042  1.0000
  F   F3        1.0  0.9839732030915372  0.8262893768876937  0.07072104707491894  1.0000
  F   F4        1.0  0.1897456467261521  0.8264264168455  0.9292613648777531  1.0000
  F   F5        1.0  0.6646492150814254  0.5436136795764526  0.4252009745191998  1.0000
  F   F6        1.0  0.7921075932507055  0.5432492327321441  0.5747741015268415  1.0000
  F   F7        1.0  0.8406437895046251  0.0433016475368717  0.07463821196474638  1.0000
  F   F8        1.0  0.11647699639470253  0.0433781118611591  0.9251807919343802  1.0000
  F   F9        1.0  0.9923745201854076  0.4572775131161038  0.4077233369038779  1.0000
  F   F10       1.0  0.5507750970734482  0.4570014471141519  0.5924572000384741  1.0000
  F   F11       1.0  0.1504957650943197  0.9573591591396635  0.0922614983195302  1.0000
  F   F12       1.0  0.8923944637486303  0.9575537956014699  0.9076222941476074  1.0000
  F   F13       1.0  0.8876720304592213  0.577538020435405  0.313020036885618  1.0000
  F   F14       1.0  0.5352369370879302  0.5773304744123564  0.6871272967549658  1.0000
  F   F15       1.0  0.950450883805573  0.0775000683114371  0.18697045950030136  1.0000
  F   F16       1.0  0.9723530177678511  0.0775616369881362  0.8128568236149433  1.0000
  F   F17       1.0  0.006358966299032421  0.357239336961598  0.2251009016887551  1.0000
  F   F18       1.0  0.6366100970399917  0.3569990205138538  0.7751181130383101  1.0000
  F   F19       1.0  0.9810546519708656  0.8572316090996281  0.27488121595687426  1.0000
  F   F20       1.0  0.16164191390959823  0.8572852334309431  0.724930910874896  1.0000
  F   F21       1.0  0.0828111481625983  0.2268031162536843  0.3225574948395574  1.0000
  F   F22       1.0  0.6904627464097222  0.2266412502165664  0.6776471242642684  1.0000
  F   F23       1.0  0.15570443814039683  0.7268291518595831  0.17746318007389308  1.0000
  F   F24       1.0  0.11785975279089214  0.7269195187882787  0.8224320644751301  1.0000
