data_image0
_chemical_formula_structural       Zn4H20C20S4N4O12
_chemical_formula_sum              "Zn4 H20 C20 S4 N4 O12"
_cell_length_a       4.920251446622933
_cell_length_b       8.490679084077913
_cell_length_c       17.131210226380098
_cell_angle_alpha    90.00045152033556
_cell_angle_beta     97.34235267194522
_cell_angle_gamma    89.99975538268696

_space_group_name_H-M_alt    "P 1"
_space_group_IT_number       1

loop_
  _space_group_symop_operation_xyz
  'x, y, z'

loop_
  _atom_site_type_symbol
  _atom_site_label
  _atom_site_symmetry_multiplicity
  _atom_site_fract_x
  _atom_site_fract_y
  _atom_site_fract_z
  _atom_site_occupancy
  Zn  Zn1       1.0  0.20387418419554854  0.4314467462600078  0.4157674704113461  1.0000
  Zn  Zn2       1.0  0.7961268538671861  0.9314457989261415  0.0842349423031692  1.0000
  Zn  Zn3       1.0  0.7961269419383825  0.5685541731029957  0.5842329457572217  1.0000
  Zn  Zn4       1.0  0.20387635414522262  0.06855394268203702  0.9157667130402627  1.0000
  H   H1        1.0  0.5453154386133079  0.2718881363371822  0.3060229004259511  1.0000
  H   H2        1.0  0.4546885686791741  0.77188623546612  0.19397899178927958  1.0000
  H   H3        1.0  0.45468149104621614  0.7281139607641621  0.6939738687670597  1.0000
  H   H4        1.0  0.5453126228896467  0.2281170394395318  0.8060237616309393  1.0000
  H   H5        1.0  0.8965044793861952  0.5857811011863632  0.27774658058106627  1.0000
  H   H6        1.0  0.10349851920872061  0.0857733375759153  0.22225338305236156  1.0000
  H   H7        1.0  0.10349663038731903  0.41421981817203596  0.7222532512756741  1.0000
  H   H8        1.0  0.8965087871393325  0.9142169819315669  0.7777484133804151  1.0000
  H   H9        1.0  0.8820682866720019  0.585030895329176  0.1305844679609223  1.0000
  H   H10       1.0  0.11794291284221707  0.08503131884877752  0.36941577512228446  1.0000
  H   H11       1.0  0.11792872477943922  0.4149747350815217  0.8694152227977481  1.0000
  H   H12       1.0  0.8820602951735809  0.9149672449973066  0.6305858802189661  1.0000
  H   H13       1.0  0.220391010880391  0.4144135496251877  0.07067001390375077  1.0000
  H   H14       1.0  0.7796120927347732  0.9144192934621458  0.4293294847215847  1.0000
  H   H15       1.0  0.7796079351955569  0.5855944362754572  0.929325657229924  1.0000
  H   H16       1.0  0.22038498417194322  0.08558162591862131  0.5706725432756485  1.0000
  H   H17       1.0  0.5587655365496432  0.2580835839059645  0.15921146771386666  1.0000
  H   H18       1.0  0.4412324028583826  0.7580899331675964  0.3407901617204274  1.0000
  H   H19       1.0  0.4412232455877644  0.7419138021686679  0.8407867721922955  1.0000
  H   H20       1.0  0.5587667068489354  0.24190863068240281  0.6592113525140277  1.0000
  C   C1        1.0  0.4019746487892278  0.3379710375087868  0.26459586316823186  1.0000
  C   C2        1.0  0.5980145679094806  0.8379741523030545  0.23540344272524996  1.0000
  C   C3        1.0  0.5980037894110667  0.6620275263100622  0.7353985181021727  1.0000
  C   C4        1.0  0.4019866073192944  0.16202205602540692  0.7645987263700602  1.0000
  C   C5        1.0  0.03874232666454701  0.5148347147803775  0.2487719123452194  1.0000
  C   C6        1.0  0.9612569499744057  0.014837079714126804  0.25122647877073223  1.0000
  C   C7        1.0  0.9612565867143276  0.4851650267763645  0.7512225901495311  1.0000
  C   C8        1.0  0.038752356429647306  0.9851591285880449  0.7487736352908811  1.0000
  C   C9        1.0  0.03323756766636881  0.5145243248742589  0.16739872141995693  1.0000
  C   C10       1.0  0.9667637926236241  0.014531500050949803  0.33260090773217843  1.0000
  C   C11       1.0  0.9667634602982462  0.4854789499852642  0.8325981888820377  1.0000
  C   C12       1.0  0.03324969388761901  0.9854658860324651  0.6674022689975274  1.0000
  C   C13       1.0  0.22056800925450662  0.42011677756011784  0.1342410799006473  1.0000
  C   C14       1.0  0.7794269139240059  0.9201274025035888  0.3657599105819996  1.0000
  C   C15       1.0  0.7794166418535867  0.579880608509207  0.8657558502750716  1.0000
  C   C16       1.0  0.22058040877088564  0.0798676280568955  0.6342424701713226  1.0000
  C   C17       1.0  0.4091769503954623  0.3314326307128681  0.18381486385946738  1.0000
  C   C18       1.0  0.5908164350180628  0.8314417553553569  0.3161857275554566  1.0000
  C   C19       1.0  0.5908117826606871  0.6685647553479229  0.8161816231112268  1.0000
  C   C20       1.0  0.4091909203874878  0.1685568085006466  0.6838178218280644  1.0000
  S   S1        1.0  0.27369956196542944  0.7406618199664692  0.5150972177490087  1.0000
  S   S2        1.0  0.7263006925294208  0.24066140171949976  0.9849030080308763  1.0000
  S   S3        1.0  0.7263015641651054  0.25934027715863545  0.48490319842174046  1.0000
  S   S4        1.0  0.2737004172440862  0.7593395176388925  0.015096823825864195  1.0000
  N   N1        1.0  0.2185948804387507  0.4274885029332297  0.2966426319364287  1.0000
  N   N2        1.0  0.7813999348246413  0.9274871254172582  0.20335604858368578  1.0000
  N   N3        1.0  0.7814020655845937  0.5725124164106319  0.7033547215662279  1.0000
  N   N4        1.0  0.2186094043036491  0.07250790513204212  0.7966452340993939  1.0000
  O   O1        1.0  0.23079449161807022  0.6590234721067247  0.4339935978827184  1.0000
  O   O2        1.0  0.7692101174133017  0.1590210162336518  0.06600612331288859  1.0000
  O   O3        1.0  0.7692066508762779  0.3409774472608903  0.5660074025976697  1.0000
  O   O4        1.0  0.23078895957317516  0.8409775476071247  0.9339942222979187  1.0000
  O   O5        1.0  0.5879321671290969  0.7509764622860263  0.5388196000259525  1.0000
  O   O6        1.0  0.4120680606108849  0.2509752625324637  0.961181832584529  1.0000
  O   O7        1.0  0.4120689917222792  0.24902563484830148  0.4611819847684443  1.0000
  O   O8        1.0  0.587931000008382  0.7490256568278895  0.03881792871881369  1.0000
  O   O9        1.0  0.18784137272862012  0.61560171994347  0.5734472712669996  1.0000
  O   O10       1.0  0.8121595701905164  0.1156001652620091  0.9265513226286115  1.0000
  O   O11       1.0  0.8121577042476746  0.3844003771835959  0.42655307435035167  1.0000
  O   O12       1.0  0.18784153957959404  0.8844019318584843  0.0734485092303103  1.0000
