data_image0
_chemical_formula_structural       Zn2H12C40Br6N2O8
_chemical_formula_sum              "Zn2 H12 C40 Br6 N2 O8"
_cell_length_a       14.837390499064725
_cell_length_b       15.841115121352757
_cell_length_c       16.21488813179804
_cell_angle_alpha    89.81127705172122
_cell_angle_beta     89.58232937367406
_cell_angle_gamma    65.66730339442876

_space_group_name_H-M_alt    "P 1"
_space_group_IT_number       1

loop_
  _space_group_symop_operation_xyz
  'x, y, z'

loop_
  _atom_site_type_symbol
  _atom_site_label
  _atom_site_symmetry_multiplicity
  _atom_site_fract_x
  _atom_site_fract_y
  _atom_site_fract_z
  _atom_site_occupancy
  Zn  Zn1       1.0  0.5983647215063855  0.4905967344280528  0.49902745323414904  1.0000
  Zn  Zn2       1.0  0.4016336581640587  0.5094044626225199  0.5009752551557514  1.0000
  H   H1        1.0  0.7671594649701705  0.8860847478641318  0.5139775296505393  1.0000
  H   H2        1.0  0.2328319262025715  0.11391730449143718  0.4859968319802237  1.0000
  H   H3        1.0  0.5390952980872328  0.7663947798493285  0.48892135569177975  1.0000
  H   H4        1.0  0.4608974117840461  0.23360724087997656  0.5110641024384608  1.0000
  H   H5        1.0  0.23623870277346284  0.8150781909463589  0.5196267781775961  1.0000
  H   H6        1.0  0.7637583097375613  0.18492303980488603  0.48037716829603044  1.0000
  H   H7        1.0  0.1507671452168965  0.3507503089732396  0.5078450690899816  1.0000
  H   H8        1.0  0.8492363603892343  0.6492418500318069  0.4921539387818189  1.0000
  H   H9        1.0  0.8118721924769476  0.013124594892715898  0.48114277373478154  1.0000
  H   H10       1.0  0.18812254390302025  0.9868773763227954  0.5188469945614714  1.0000
  H   H11       1.0  0.6357234627838365  0.5160824098521248  0.9201564127166155  1.0000
  H   H12       1.0  0.36429306494304103  0.48391080047783674  0.07984871550317514  1.0000
  C   C1        1.0  0.5005823764165387  0.4967761061510247  0.33909041740879803  1.0000
  C   C2        1.0  0.4994062854670247  0.5032273863318082  0.6609117032826933  1.0000
  C   C3        1.0  0.6189839384072401  0.896885616838695  0.5197730670828664  1.0000
  C   C4        1.0  0.38101104256542584  0.10311429070041811  0.48020128633145753  1.0000
  C   C5        1.0  0.6889722343873217  0.9308294882757484  0.5060115570515082  1.0000
  C   C6        1.0  0.31101757168679  0.06917466031595862  0.493972673524141  1.0000
  C   C7        1.0  0.5764807414994165  0.5091129694755099  0.9554325698211702  1.0000
  C   C8        1.0  0.42353626832730396  0.49087748674619286  0.044570095173845914  1.0000
  C   C9        1.0  0.49813289085623297  0.5007642613971869  0.912335801616543  1.0000
  C   C10       1.0  0.5018849817206859  0.4992241170982369  0.08766748114200601  1.0000
  C   C11       1.0  0.4217197187355738  0.49151683640423033  0.9591039287871728  1.0000
  C   C12       1.0  0.5783014528271482  0.5084700899884567  0.040899962139306516  1.0000
  C   C13       1.0  0.4980933337375717  0.5018846255478522  0.8252805186556107  1.0000
  C   C14       1.0  0.501921060683067  0.4981072659262439  0.1747209191296123  1.0000
  C   C15       1.0  0.5004411627030905  0.49711183513274904  0.24983283887874572  1.0000
  C   C16       1.0  0.49956432227317316  0.5028933007015938  0.7501747712105744  1.0000
  C   C17       1.0  0.9910383966092554  0.41500298223115806  0.5046936976903996  1.0000
  C   C18       1.0  0.008962486321664137  0.5849906123374498  0.4953059331590881  1.0000
  C   C19       1.0  0.9064053349425694  0.4997728228986773  0.49981912614512697  1.0000
  C   C20       1.0  0.09359681077327042  0.5002193694958808  0.500179269622919  1.0000
  C   C21       1.0  0.9155314234503751  0.5845484647172087  0.4951077313037049  1.0000
  C   C22       1.0  0.08446935995213069  0.4154437611705717  0.504890669089747  1.0000
  C   C23       1.0  0.5770953096397093  0.3198275687812427  0.5008748471641058  1.0000
  C   C24       1.0  0.4228799349344783  0.68017419661701  0.49912177256604223  1.0000
  C   C25       1.0  0.8106442271270708  0.5000177537697611  0.49924298712432624  1.0000
  C   C26       1.0  0.18935899735711106  0.4999750975341187  0.5007541702152098  1.0000
  C   C27       1.0  0.6082299607711689  0.21717224309163904  0.4956849359187887  1.0000
  C   C28       1.0  0.3917655242923175  0.7828262823390942  0.5043079200599154  1.0000
  C   C29       1.0  0.734352231679246  0.06212248032966271  0.48460399776693935  1.0000
  C   C30       1.0  0.2656411448104308  0.9378795242753526  0.5153851584255593  1.0000
  C   C31       1.0  0.7086390502176911  0.156186937439884  0.48529840660199164  1.0000
  C   C32       1.0  0.29135574157390914  0.8438116052560717  0.5146975353352163  1.0000
  C   C33       1.0  0.5358835964329387  0.1830663262223879  0.5003255558856455  1.0000
  C   C34       1.0  0.4641065704052069  0.8169337005137222  0.49966053157162826  1.0000
  C   C35       1.0  0.5585080001440447  0.08767205292225101  0.49349749080123945  1.0000
  C   C36       1.0  0.441489392833759  0.9123284812776122  0.5064830203090838  1.0000
  C   C37       1.0  0.6611499458761472  0.0264391100381474  0.4911408609219381  1.0000
  C   C38       1.0  0.3388446132543946  0.9735601228822335  0.5088408958997946  1.0000
  C   C39       1.0  0.4851323343303307  0.048905566309741716  0.4932859599968541  1.0000
  C   C40       1.0  0.5148654567611216  0.9511004426134165  0.5066994729376264  1.0000
  Br  Br1       1.0  0.6719952980278024  0.7761834908750201  0.5707494142102976  1.0000
  Br  Br2       1.0  0.32800222405692386  0.22382320982836748  0.4292310845461175  1.0000
  Br  Br3       1.0  0.6851115720814889  0.5203529335000497  0.09523033260371255  1.0000
  Br  Br4       1.0  0.31491154342281646  0.47963257397197634  0.9047723209286221  1.0000
  Br  Br5       1.0  0.977599799509179  0.3020599163691031  0.5112461788992706  1.0000
  Br  Br6       1.0  0.022402150074860603  0.6979343376274373  0.48875529716750804  1.0000
  N   N1        1.0  0.26741338163371614  0.500186066595191  0.5014563775230914  1.0000
  N   N2        1.0  0.7325872424846339  0.4998130184061156  0.4985420101716473  1.0000
  O   O1        1.0  0.5812962428455252  0.48721711072292356  0.3730479175967149  1.0000
  O   O2        1.0  0.418720618489914  0.5127671798250121  0.626959693585498  1.0000
  O   O3        1.0  0.4200994215268068  0.5061054303561577  0.37455191711030283  1.0000
  O   O4        1.0  0.5798990462804314  0.49392798360227635  0.6254457949871652  1.0000
  O   O5        1.0  0.6447362033154036  0.3497834780261543  0.5003812218654392  1.0000
  O   O6        1.0  0.3552627197165565  0.6502211343238572  0.49963627936224975  1.0000
  O   O7        1.0  0.48436856577458076  0.36944063566326707  0.5045451166512438  1.0000
  O   O8        1.0  0.5156331005828608  0.6305577368698109  0.49543476720078444  1.0000
