data_image0
_chemical_formula_structural       Sr4H32C24O32
_chemical_formula_sum              "Sr4 H32 C24 O32"
_cell_length_a       10.12660324848724
_cell_length_b       10.279101880226332
_cell_length_c       10.345996553000179
_cell_angle_alpha    90.00001512818325
_cell_angle_beta     90.00000607275496
_cell_angle_gamma    117.76489918962916

_space_group_name_H-M_alt    "P 1"
_space_group_IT_number       1

loop_
  _space_group_symop_operation_xyz
  'x, y, z'

loop_
  _atom_site_type_symbol
  _atom_site_label
  _atom_site_symmetry_multiplicity
  _atom_site_fract_x
  _atom_site_fract_y
  _atom_site_fract_z
  _atom_site_occupancy
  Sr  Sr1       1.0  0.9903701460592698  0.3576994269412879  0.15580045943173101  1.0000
  Sr  Sr2       1.0  0.5096305490703443  0.6423007244940492  0.6558006384408301  1.0000
  Sr  Sr3       1.0  0.00962993819921821  0.6423018208324791  0.8442000567101147  1.0000
  Sr  Sr4       1.0  0.49037047379631815  0.35769832687753217  0.344199877700774  1.0000
  H   H1        1.0  0.1027013709670115  0.4593390718067808  0.580289259484644  1.0000
  H   H2        1.0  0.3972984433549627  0.540659870128067  0.08028815226953871  1.0000
  H   H3        1.0  0.8972981450486087  0.5406588789097098  0.41971029009928884  1.0000
  H   H4        1.0  0.6027025795114085  0.4593391812431236  0.9197104307571706  1.0000
  H   H5        1.0  0.2514715474664371  0.6780597920286623  0.4519526979312616  1.0000
  H   H6        1.0  0.24852988482101787  0.32194040032911186  0.9519537842132094  1.0000
  H   H7        1.0  0.7485290060959926  0.3219403575438235  0.5480468516530196  1.0000
  H   H8        1.0  0.7514706687417032  0.6780597492437578  0.048047698485966406  1.0000
  H   H9        1.0  0.9502687636645035  0.9140067334064453  0.1273673099445531  1.0000
  H   H10       1.0  0.549730934887087  0.08599340534438939  0.6273673471761114  1.0000
  H   H11       1.0  0.04973080182043079  0.08599341493913928  0.8726322396396782  1.0000
  H   H12       1.0  0.45026863059799627  0.9140067430013868  0.3726331689655566  1.0000
  H   H13       1.0  0.7427604557068505  0.9117604437748096  0.9877677402101243  1.0000
  H   H14       1.0  0.7572408574426034  0.08824094085983351  0.4877674663597987  1.0000
  H   H15       1.0  0.25723962855163757  0.08824080399895708  0.0122327759317216  1.0000
  H   H16       1.0  0.24275969611997542  0.9117592087128441  0.5122330497819192  1.0000
  H   H17       1.0  0.14241062459772988  0.13211883029627097  0.1782225855355293  1.0000
  H   H18       1.0  0.3575892190030673  0.867880151102618  0.6782228597733777  1.0000
  H   H19       1.0  0.8575899289648489  0.8678813192764067  0.8217779306061956  1.0000
  H   H20       1.0  0.6424093089352069  0.13211779838716348  0.32177765636794936  1.0000
  H   H21       1.0  0.8411371265480836  0.1325250965176323  0.8899723273169046  1.0000
  H   H22       1.0  0.6588636385904678  0.8674751492806719  0.3899712811275577  1.0000
  H   H23       1.0  0.15886394578789978  0.8674761524830358  0.110028188824991  1.0000
  H   H24       1.0  0.34113691497210397  0.13252500029200578  0.6100292350141672  1.0000
  H   H25       1.0  0.14024040901126963  0.704662744066894  0.2840181722798008  1.0000
  H   H26       1.0  0.35975899691441526  0.2953373781648451  0.7840173299933683  1.0000
  H   H27       1.0  0.8597591564736717  0.2953374042786833  0.7159813773044235  1.0000
  H   H28       1.0  0.6402410378747518  0.7046616719798279  0.2159831861481862  1.0000
  H   H29       1.0  0.016934183869814507  0.2670871212702082  0.4528109348881912  1.0000
  H   H30       1.0  0.48306574182306145  0.7329119707781472  0.9528102201644728  1.0000
  H   H31       1.0  0.9830658509193526  0.732911928874472  0.5471895812533631  1.0000
  H   H32       1.0  0.5169348117392261  0.2670881787941397  0.0471883628623644  1.0000
  C   C1        1.0  0.05605627947014819  0.4712457908702062  0.4877259182986578  1.0000
  C   C2        1.0  0.4439436566610624  0.5287533152476769  0.9877251459656479  1.0000
  C   C3        1.0  0.9439427672415306  0.5287532580475727  0.5122745978428398  1.0000
  C   C4        1.0  0.5560573662053088  0.4712457361235138  0.0122734370610615  1.0000
  C   C5        1.0  0.1838329236324086  0.5753416928603556  0.39909938671647893  1.0000
  C   C6        1.0  0.3161669860025924  0.42465737754407223  0.8990985738370726  1.0000
  C   C7        1.0  0.8161661230792633  0.4246573560574234  0.6009011294250186  1.0000
  C   C8        1.0  0.6838330487864327  0.5753416726004162  0.100900975747038  1.0000
  C   C9        1.0  0.2790344681443386  0.49951525702103783  0.3692337231928562  1.0000
  C   C10       1.0  0.2209644444846787  0.5004838001220405  0.8692348534550548  1.0000
  C   C11       1.0  0.7209655666445444  0.5004837931232514  0.6307648598338035  1.0000
  C   C12       1.0  0.7790341329227674  0.49951634699663583  0.1307646961291198  1.0000
  C   C13       1.0  0.9672376425199545  0.0079684465241883  0.0652678092239185  1.0000
  C   C14       1.0  0.5327625562395183  0.9920327666307213  0.5652680823727323  1.0000
  C   C15       1.0  0.03276244173839156  0.9920328012493866  0.9347317403604762  1.0000
  C   C16       1.0  0.46723700924556505  0.007967381715054999  0.4347324337689429  1.0000
  C   C17       1.0  0.8160191554434133  0.008037789345678401  0.0461376964363254  1.0000
  C   C18       1.0  0.6839815563700993  0.9919645155282591  0.5461370186781593  1.0000
  C   C19       1.0  0.18398092881508177  0.9919634584280955  0.9538628197055204  1.0000
  C   C20       1.0  0.31601800911498407  0.0080356328175171  0.4538634974635087  1.0000
  C   C21       1.0  0.7421071608540188  0.9970196009245598  0.17788153526799283  1.0000
  C   C22       1.0  0.7578945289545302  0.0029805606355636995  0.6778815722920797  1.0000
  C   C23       1.0  0.2578928739351483  0.0029794492201204986  0.8221189808735544  1.0000
  C   C24       1.0  0.24210451775729067  0.9970184882824069  0.3221199104068688  1.0000
  O   O1        1.0  0.9741273626963861  0.3297932775213113  0.42492967662810344  1.0000
  O   O2        1.0  0.525871906042326  0.6702058817087676  0.9249288980829888  1.0000
  O   O3        1.0  0.02587168401514372  0.670205771396276  0.5750698729559574  1.0000
  O   O4        1.0  0.4741281287465569  0.3297931684355219  0.07506968494367071  1.0000
  O   O5        1.0  0.12529396843135035  0.6013068617396655  0.2825721880105689  1.0000
  O   O6        1.0  0.3747049182886357  0.39869216048140294  0.7825713743853272  1.0000
  O   O7        1.0  0.8747050782803283  0.3986921871781135  0.7174283281309357  1.0000
  O   O8        1.0  0.6252926215719937  0.6013057877812853  0.2174281751985063  1.0000
  O   O9        1.0  0.37225438250528964  0.5071686831088941  0.4555589076036953  1.0000
  O   O10       1.0  0.1277465815560674  0.4928326089029653  0.9555590596421908  1.0000
  O   O11       1.0  0.6277457017530566  0.4928325646646812  0.5444406419807066  1.0000
  O   O12       1.0  0.872254490779767  0.507168640097511  0.0444404899422608  1.0000
  O   O13       1.0  0.2554680453742434  0.42588723510585413  0.2659328853209431  1.0000
  O   O14       1.0  0.2445323432222253  0.5741128810652466  0.7659330707821184  1.0000
  O   O15       1.0  0.7445325081881861  0.5741129144666246  0.7340666642633309  1.0000
  O   O16       1.0  0.7554682103402044  0.42588726850723196  0.23406647880215561  1.0000
  O   O17       1.0  0.064795857226116  0.14403654754519826  0.125962755111324  1.0000
  O   O18       1.0  0.4352059963749895  0.8559646128774716  0.6259620677078743  1.0000
  O   O19       1.0  0.9352062031872138  0.8559647026821722  0.8740367944731704  1.0000
  O   O20       1.0  0.564793050336398  0.14403443603991656  0.37403651531873555  1.0000
  O   O21       1.0  0.8381493263180602  0.1419204028429419  0.9863477712908163  1.0000
  O   O22       1.0  0.661850010252067  0.8580809787659402  0.4863486560614092  1.0000
  O   O23       1.0  0.16185075794028586  0.8580808449306332  0.0136517782935783  1.0000
  O   O24       1.0  0.3381495552331657  0.1419191695800279  0.5136528266377098  1.0000
  O   O25       1.0  0.7641003088564418  0.11674746401673987  0.23092222733162523  1.0000
  O   O26       1.0  0.7358999394277108  0.8832538158910027  0.7309215264357505  1.0000
  O   O27       1.0  0.23590076347968394  0.8832537849841202  0.7690792553677143  1.0000
  O   O28       1.0  0.2640986379798774  0.11674633122786555  0.2690789897058679  1.0000
  O   O29       1.0  0.6656818457200303  0.8708854177576696  0.22868860689025897  1.0000
  O   O30       1.0  0.8343223542064352  0.12911586615776116  0.7286886849214085  1.0000
  O   O31       1.0  0.3343221908482832  0.12911583492350331  0.771310942694349  1.0000
  O   O32       1.0  0.1656787181296906  0.8708853828430988  0.2713127977779308  1.0000
