data_image0
_chemical_formula_structural       Co6H6C24N24O18
_chemical_formula_sum              "Co6 H6 C24 N24 O18"
_cell_length_a       6.984265086384245
_cell_length_b       15.024192097766575
_cell_length_c       15.03446878288024
_cell_angle_alpha    117.6671252919259
_cell_angle_beta     98.96918086581316
_cell_angle_gamma    98.81536257141023

_space_group_name_H-M_alt    "P 1"
_space_group_IT_number       1

loop_
  _space_group_symop_operation_xyz
  'x, y, z'

loop_
  _atom_site_type_symbol
  _atom_site_label
  _atom_site_symmetry_multiplicity
  _atom_site_fract_x
  _atom_site_fract_y
  _atom_site_fract_z
  _atom_site_occupancy
  Co  Co1       1.0  0.2936956075389928  0.25881804473907266  0.6806495260892476  1.0000
  Co  Co2       1.0  0.03286764456270672  0.4207846339241001  0.7408107381304774  1.0000
  Co  Co3       1.0  0.6139513091173541  0.3200285294449471  0.5803931365677428  1.0000
  Co  Co4       1.0  0.706826206755572  0.7388036770332177  0.3208043277141569  1.0000
  Co  Co5       1.0  0.9689559906660888  0.5823692794667893  0.261123384965515  1.0000
  Co  Co6       1.0  0.3860746271528727  0.6788040510547548  0.4174507870457021  1.0000
  H   H1        1.0  0.8655866544891281  0.5439896650914804  0.021827670615628722  1.0000
  H   H2        1.0  0.321302469989561  0.47681696503836685  0.4553625422265028  1.0000
  H   H3        1.0  0.8436711379265915  0.9778198645482447  0.5222571285758945  1.0000
  H   H4        1.0  0.1326253120065815  0.4543824420158201  0.9770734538664314  1.0000
  H   H5        1.0  0.6788681428298416  0.5234645667914464  0.5457960874392142  1.0000
  H   H6        1.0  0.15523085767050296  0.022994803000670996  0.4775085082374559  1.0000
  C   C1        1.0  0.36696491415037963  0.43400126343781414  0.8983240436182882  1.0000
  C   C2        1.0  0.9331907806681838  0.4645970987667736  0.5659315277077822  1.0000
  C   C3        1.0  0.4682878837819969  0.10159788087583617  0.5355110108613488  1.0000
  C   C4        1.0  0.6312428026944303  0.5639834241774792  0.10048260365491052  1.0000
  C   C5        1.0  0.06733389258823048  0.5361767976215076  0.4356805551886182  1.0000
  C   C6        1.0  0.5305460897859788  0.8993512868675069  0.46356398775273516  1.0000
  C   C7        1.0  0.578529948256616  0.46042781565586205  0.9113634042085791  1.0000
  C   C8        1.0  0.11788367226839107  0.45057651541587507  0.5391696866392977  1.0000
  C   C9        1.0  0.6671195622451119  0.08846091583481548  0.5493446005506684  1.0000
  C   C10       1.0  0.4196694170852168  0.5376751120434378  0.08739381631610127  1.0000
  C   C11       1.0  0.8822418866760058  0.5498232936324781  0.46209256632762663  1.0000
  C   C12       1.0  0.33181528409974687  0.9125451165961492  0.45047036840791305  1.0000
  C   C13       1.0  0.7042527763665657  0.5235839409217107  0.01173482246709046  1.0000
  C   C14       1.0  0.18054124825275852  0.487497292334069  0.47590154158547165  1.0000
  C   C15       1.0  0.6924448751814437  0.9881135082814295  0.5120652832648103  1.0000
  C   C16       1.0  0.29398194165300845  0.47450808731448996  0.9870524407432909  1.0000
  C   C17       1.0  0.8198225804483669  0.5129701194005349  0.5254369977034159  1.0000
  C   C18       1.0  0.3065161308706265  0.0128069190068061  0.48759537803425695  1.0000
  C   C19       1.0  0.6718549966808495  0.43144852909760095  0.8227828047471347  1.0000
  C   C20       1.0  0.24064736026079456  0.3911673446259698  0.568679789408776  1.0000
  C   C21       1.0  0.849231923111702  0.17700958561880492  0.6086631517208403  1.0000
  C   C22       1.0  0.32582030319338867  0.5676931216860197  0.1759667299257471  1.0000
  C   C23       1.0  0.7584424630344557  0.6084135960057964  0.4319428198280021  1.0000
  C   C24       1.0  0.14937407044310902  0.82398734645799  0.3918851236565074  1.0000
  N   N1        1.0  0.38087122971540305  0.1864416581816997  0.7508217966207339  1.0000
  N   N2        1.0  0.19362535011784834  0.5653337654521521  0.814259080237413  1.0000
  N   N3        1.0  0.629137991268969  0.24966231160711766  0.4360214321632085  1.0000
  N   N4        1.0  0.6227711344466725  0.8127563061409899  0.2491338616471521  1.0000
  N   N5        1.0  0.810522594765885  0.43599412500934415  0.18671069687426464  1.0000
  N   N6        1.0  0.3738241146851492  0.7506179364851702  0.5635286023526901  1.0000
  N   N7        1.0  0.41702977973092453  0.13836581860971353  0.7870509322808132  1.0000
  N   N8        1.0  0.2768518503195805  0.6495907180422119  0.8630055846547077  1.0000
  N   N9        1.0  0.6287630140519694  0.21407346483273665  0.3518381928926288  1.0000
  N   N10       1.0  0.5886444860833109  0.8626668311527439  0.2149584533760276  1.0000
  N   N11       1.0  0.7267499177804381  0.3519550330998555  0.13691510777483265  1.0000
  N   N12       1.0  0.3741978691029999  0.784697588802885  0.6475766838080118  1.0000
  N   N13       1.0  0.11464754133782408  0.753832353842931  0.11933128817109659  1.0000
  N   N14       1.0  0.3611336879286496  0.36525132711102504  0.24561878272898235  1.0000
  N   N15       1.0  0.9957704229570082  0.8805096752218233  0.6345122754653117  1.0000
  N   N16       1.0  0.8883967180578409  0.24710918897608278  0.8807991841798141  1.0000
  N   N17       1.0  0.6402182163295221  0.6346950422183042  0.7541325525734236  1.0000
  N   N18       1.0  0.006196274962597693  0.11916662312643918  0.36587234575681993  1.0000
  N   N19       1.0  0.9964001210712536  0.7956107217372618  0.11851197067229424  1.0000
  N   N20       1.0  0.2010815512280502  0.32285773216109  0.20430155383386508  1.0000
  N   N21       1.0  0.8779920319539228  0.8812265819413839  0.6767379060934715  1.0000
  N   N22       1.0  0.0022661102778016654  0.20291307835229583  0.8814723476624591  1.0000
  N   N23       1.0  0.7994884247105316  0.6780972717433184  0.7964500596766012  1.0000
  N   N24       1.0  0.12094618787604357  0.11891891027898539  0.3220735854318875  1.0000
  O   O1        1.0  0.23253120909695468  0.372121897285389  0.805496733195177  1.0000
  O   O2        1.0  0.8609833944263838  0.43459470388732757  0.6282990391629681  1.0000
  O   O3        1.0  0.4257077079965795  0.19388091894904846  0.5652227203042202  1.0000
  O   O4        1.0  0.7651791990234996  0.6261632178067272  0.19307422518340184  1.0000
  O   O5        1.0  0.13907514482546182  0.5664267667568408  0.3734501123273616  1.0000
  O   O6        1.0  0.5716736360084907  0.8067761212899001  0.4327632111393597  1.0000
  O   O7        1.0  0.5561191518640313  0.3778090163341404  0.7300620348646518  1.0000
  O   O8        1.0  0.17752860446132956  0.3513800384338523  0.6215069590374114  1.0000
  O   O9        1.0  0.825978355907935  0.26973425979742416  0.6481869354277021  1.0000
  O   O10       1.0  0.4417591001119446  0.6193706410909953  0.26874229356308627  1.0000
  O   O11       1.0  0.8225996770715512  0.6493940180091045  0.38018875150353887  1.0000
  O   O12       1.0  0.17293096797023816  0.7311689369375711  0.3505920414554706  1.0000
  O   O13       1.0  0.8607063003410498  0.46460647768385127  0.8417644380388365  1.0000
  O   O14       1.0  0.3981526443677196  0.37853893506002817  0.536944929103015  1.0000
  O   O15       1.0  0.019360197067804612  0.1579448481719297  0.622080302544198  1.0000
  O   O16       1.0  0.13642308944533704  0.5375980114011724  0.1566304552880736  1.0000
  O   O17       1.0  0.5991284109994053  0.6193924435520157  0.462015823156733  1.0000
  O   O18       1.0  0.9792121505379257  0.8432563395786657  0.38124763766701614  1.0000
