data_image0
_chemical_formula_structural       Cu2H10C16N14O4
_chemical_formula_sum              "Cu2 H10 C16 N14 O4"
_cell_length_a       6.782168563060358
_cell_length_b       7.952835686026763
_cell_length_c       11.163913530835595
_cell_angle_alpha    97.21535225904248
_cell_angle_beta     105.69616072219696
_cell_angle_gamma    112.26151430379979

_space_group_name_H-M_alt    "P 1"
_space_group_IT_number       1

loop_
  _space_group_symop_operation_xyz
  'x, y, z'

loop_
  _atom_site_type_symbol
  _atom_site_label
  _atom_site_symmetry_multiplicity
  _atom_site_fract_x
  _atom_site_fract_y
  _atom_site_fract_z
  _atom_site_occupancy
  Cu  Cu1       1.0  0.49999332649004913  0.4999978950204991  0.9999973178714328  1.0000
  Cu  Cu2       1.0  1.3822512557200549e-06  0.5000020302675025  2.2980281145072867e-06  1.0000
  H   H1        1.0  0.7873201129138465  0.6027679715237682  0.377803817366015  1.0000
  H   H2        1.0  0.21268024094489857  0.39722590705036254  0.6221936136712357  1.0000
  H   H3        1.0  0.009910941819981584  0.7904449847741759  0.6076703882805887  1.0000
  H   H4        1.0  0.9900858610912237  0.20953626147218773  0.39232171641884866  1.0000
  H   H5        1.0  0.44130250678733046  0.9011834715132421  0.6237903445030142  1.0000
  H   H6        1.0  0.5587098838471363  0.09881877998141418  0.3762125710949462  1.0000
  H   H7        1.0  0.22092453634328993  0.7093549349453737  0.3973349450582333  1.0000
  H   H8        1.0  0.7790832534868669  0.290647330459869  0.6026680875205414  1.0000
  H   H9        1.0  0.6304377713071361  0.9905001110733025  0.8420404994418362  1.0000
  H   H10       1.0  0.3695648082980014  0.009497983942104297  0.1579576898509174  1.0000
  C   C1        1.0  0.4934057453567248  0.6492286979065796  0.37332996060725065  1.0000
  C   C2        1.0  0.5065897604348137  0.3507707600990742  0.6266761103656222  1.0000
  C   C3        1.0  0.714348604219346  0.6693836195612021  0.4329075289098371  1.0000
  C   C4        1.0  0.28565245610161577  0.3306116487314766  0.5670919390297087  1.0000
  C   C5        1.0  0.8388242789067277  0.7744126120950341  0.559664145860701  1.0000
  C   C6        1.0  0.1611730541102858  0.22557562091456163  0.4403349503949059  1.0000
  C   C7        1.0  0.7402168480157556  0.8604974235455316  0.6262627188985874  1.0000
  C   C8        1.0  0.259783541296244  0.13949647079046906  0.3737329279882076  1.0000
  C   C9        1.0  0.5161673297367031  0.8342469680118043  0.57061527499242  1.0000
  C   C10       1.0  0.4838404432766835  0.16576096536659424  0.42938468356317117  1.0000
  C   C11       1.0  0.39348703591864614  0.7275935757219613  0.4443029841970869  1.0000
  C   C12       1.0  0.6065160383390591  0.2724114902948074  0.5557039808023062  1.0000
  C   C13       1.0  0.3716112115245522  0.5577376077005454  0.2322215225418915  1.0000
  C   C14       1.0  0.6283790047270799  0.4422604823780886  0.7677817364342872  1.0000
  C   C15       1.0  0.8052819419701933  0.04276678653440061  0.8455707066426326  1.0000
  C   C16       1.0  0.19472213919249973  0.957234127322799  0.15442709607855679  1.0000
  N   N1        1.0  0.8721927873063748  0.9835386758514769  0.7511712854886383  1.0000
  N   N2        1.0  0.1278090587916836  0.016455179696933397  0.24882818806387516  1.0000
  N   N3        1.0  0.1026414844330859  0.0784144878692956  0.7891196498804831  1.0000
  N   N4        1.0  0.8973617754992631  0.9215878229702951  0.2108799313782015  1.0000
  N   N5        1.0  0.16715893281178035  0.18813712884969644  0.9021981958496781  1.0000
  N   N6        1.0  0.8328442580337808  0.8118765021743144  0.09779702151308815  1.0000
  N   N7        1.0  0.9871489860322314  0.1706000114090287  0.9404982767846803  1.0000
  N   N8        1.0  0.012854999908668677  0.829415048738234  0.05949451710423403  1.0000
  N   N9        1.0  0.28490521609994357  0.6183263546009173  0.9610425494734615  1.0000
  N   N10       1.0  0.7150911911466835  0.3816745798136125  0.03895574557418513  1.0000
  N   N11       1.0  0.27775641849407856  0.6913982027013644  0.8719304336110342  1.0000
  N   N12       1.0  0.7222353152220223  0.3085913623918157  0.12807947891518984  1.0000
  N   N13       1.0  0.27489979508472834  0.7640601106710533  0.7881770028265862  1.0000
  N   N14       1.0  0.725087499186408  0.23594089096935275  0.21181706580654952  1.0000
  O   O1        1.0  0.47088737873902875  0.48951234725250703  0.17281306103747335  1.0000
  O   O2        1.0  0.5291096556549276  0.5104927793433944  0.8271893022017878  1.0000
  O   O3        1.0  0.1797410576012766  0.5609013661890714  0.18366952598776007  1.0000
  O   O4        1.0  0.8202483374200115  0.43909812087194666  0.8163355115259064  1.0000
