data_image0
_chemical_formula_structural       Zn16H44C96S16Br4N16O52
_chemical_formula_sum              "Zn16 H44 C96 S16 Br4 N16 O52"
_cell_length_a       19.67328567282648
_cell_length_b       19.666206194322275
_cell_length_c       33.379071111861215
_cell_angle_alpha    79.23089004987744
_cell_angle_beta     79.20018157025672
_cell_angle_gamma    63.933224531759066

_space_group_name_H-M_alt    "P 1"
_space_group_IT_number       1

loop_
  _space_group_symop_operation_xyz
  'x, y, z'

loop_
  _atom_site_type_symbol
  _atom_site_label
  _atom_site_symmetry_multiplicity
  _atom_site_fract_x
  _atom_site_fract_y
  _atom_site_fract_z
  _atom_site_occupancy
  Zn  Zn1       1.0  0.05488387452349029  0.4001894969323914  0.47806867043579626  1.0000
  Zn  Zn2       1.0  0.9843463586879225  0.48332539292424304  0.5606278704633356  1.0000
  Zn  Zn3       1.0  0.0592679505920586  0.5595884417118597  0.4818888011624481  1.0000
  Zn  Zn4       1.0  0.9014639370840029  0.556766635341795  0.4797964914043434  1.0000
  Zn  Zn5       1.0  0.6932762145158406  0.3492684466847393  0.2717660735956572  1.0000
  Zn  Zn6       1.0  0.689584172046942  0.18929253961101022  0.2664950438276179  1.0000
  Zn  Zn7       1.0  0.7685070670259435  0.2677731382126325  0.19078787544387418  1.0000
  Zn  Zn8       1.0  0.8482395653629665  0.19465787044882885  0.27195948689942645  1.0000
  Zn  Zn9       1.0  0.2670951411124207  0.7667343221462206  0.690387296452073  1.0000
  Zn  Zn10      1.0  0.34884444245020774  0.6955663776514953  0.7721472067700007  1.0000
  Zn  Zn11      1.0  0.1920060737281375  0.8488351108773173  0.7709236940230043  1.0000
  Zn  Zn12      1.0  0.1901209515443156  0.6890985487008053  0.7673251955348379  1.0000
  Zn  Zn13      1.0  0.5597356626507661  0.05997374932831427  0.9830724200824933  1.0000
  Zn  Zn14      1.0  0.4018652934360817  0.05511160689002275  0.9787271879179618  1.0000
  Zn  Zn15      1.0  0.5560637706401222  0.9003146683638193  0.9785900955813106  1.0000
  Zn  Zn16      1.0  0.482855479910441  0.9829075572060192  0.060362040712554674  1.0000
  H   H1        1.0  0.9551702663520202  0.24952070465140241  0.3518766380229438  1.0000
  H   H2        1.0  0.7466532782286279  0.45319644280293386  0.34961928126671193  1.0000
  H   H3        1.0  0.9983246711909003  0.30198702396009497  0.4001649338489486  1.0000
  H   H4        1.0  0.09672668637386289  0.5965443520962097  0.699720201024384  1.0000
  H   H5        1.0  0.2025098923377513  0.7008651716434215  0.5987803226648938  1.0000
  H   H6        1.0  0.050676033310168095  0.550732412492053  0.6494941088278879  1.0000
  H   H7        1.0  0.550275250765111  0.050500140807301336  0.1537035806048976  1.0000
  H   H8        1.0  0.6501812805910917  0.15215752510543712  0.048500413144950044  1.0000
  H   H9        1.0  0.6010774476270059  0.10027010982676636  0.1995089088610769  1.0000
  H   H10       1.0  0.5010132197889304  0.7950672727379525  0.8980416811781852  1.0000
  H   H11       1.0  0.297373763500083  0.0036774055570135164  0.8999181147627058  1.0000
  H   H12       1.0  0.4485970381158566  0.7515509078760375  0.8499292288658541  1.0000
  H   H13       1.0  0.3153472827445682  0.5545262210396729  0.3957242809468724  1.0000
  H   H14       1.0  0.23371856504643768  0.5519596725968798  0.42631537515060813  1.0000
  H   H15       1.0  0.42541839445731006  0.2027507084664181  0.34489867005026303  1.0000
  H   H16       1.0  0.5140094706718941  0.1994468144975131  0.32170838120524803  1.0000
  H   H17       1.0  0.7651870550014692  0.5233261960367417  0.6856113023889636  1.0000
  H   H18       1.0  0.8348646422841526  0.5169204886368347  0.6437569377854829  1.0000
  H   H19       1.0  0.48444944526942635  0.7032261543195019  0.5646096616905751  1.0000
  H   H20       1.0  0.4152320253513153  0.7272723872627015  0.6069662946140612  1.0000
  H   H21       1.0  0.0468650804125303  0.2657381210052138  0.6856910867089854  1.0000
  H   H22       1.0  0.0227598447707464  0.3347471246819111  0.6433201822633097  1.0000
  H   H23       1.0  0.22543886401442137  0.9848509330676909  0.5645328966471723  1.0000
  H   H24       1.0  0.23300307896758443  0.9148928011202386  0.6064639049601368  1.0000
  H   H25       1.0  0.7440185393814573  0.8037229544006481  0.3845762399031473  1.0000
  H   H26       1.0  0.795907476471612  0.7252561204645289  0.41769940842667114  1.0000
  H   H27       1.0  0.015147234669328196  0.934820067937224  0.3549986769631915  1.0000
  H   H28       1.0  0.955939010853065  0.021910546577217506  0.3302378900853995  1.0000
  H   H29       1.0  0.7235070933384548  0.48458973409186973  0.06475380655265896  1.0000
  H   H30       1.0  0.7326406900630715  0.4145292447496231  0.10693012531962864  1.0000
  H   H31       1.0  0.5440229121256053  0.7661754863168113  0.18591114068951958  1.0000
  H   H32       1.0  0.5211310983307412  0.835417897463067  0.1433090446627575  1.0000
  H   H33       1.0  0.1457238982925091  0.08639700613102258  0.22614277815065986  1.0000
  H   H34       1.0  0.047587167103188194  0.11794845202644672  0.23932835129640753  1.0000
  H   H35       1.0  0.10427185604363132  0.1843016816377983  0.025074468917914313  1.0000
  H   H36       1.0  0.2024099692980528  0.13662817750523715  0.0110841579769598  1.0000
  H   H37       1.0  0.5156596244099133  0.4351986634541803  0.8553054739327808  1.0000
  H   H38       1.0  0.45672336021235077  0.5217593533147209  0.829875097031895  1.0000
  H   H39       1.0  0.2451794623730947  0.3033243150401645  0.883972278189191  1.0000
  H   H40       1.0  0.29668962274393346  0.22529866907176915  0.9172796076883644  1.0000
  H   H41       1.0  0.924403790595349  0.7027646623702849  0.8450866881560875  1.0000
  H   H42       1.0  0.013175587920251499  0.6989909702645605  0.8219938068326513  1.0000
  H   H43       1.0  0.8158681616125918  0.054887776733537015  0.8953453364593003  1.0000
  H   H44       1.0  0.7339999036640988  0.05276452751536468  0.9258101918278288  1.0000
  C   C1        1.0  0.06022167286851499  0.31562514147567805  0.5624656180954091  1.0000
  C   C2        1.0  0.0688686920202528  0.5696943409041423  0.569069909361936  1.0000
  C   C3        1.0  0.1848867464702337  0.4383977849628594  0.4385518358580357  1.0000
  C   C4        1.0  0.9372542997264475  0.6851749094802952  0.4382631095976778  1.0000
  C   C5        1.0  0.9298585672650789  0.432310483353433  0.43086645428679315  1.0000
  C   C6        1.0  0.8160517189476906  0.562375889568024  0.5630709662074338  1.0000
  C   C7        1.0  0.5649911783567347  0.3103675806294603  0.31196900477708317  1.0000
  C   C8        1.0  0.682294427562887  0.18009836240081978  0.18079960323599667  1.0000
  C   C9        1.0  0.6882826860710196  0.4346326017010257  0.18802974044749024  1.0000
  C   C10       1.0  0.9362365848432075  0.18797061452742278  0.18942436512798377  1.0000
  C   C11       1.0  0.8204522884260399  0.31900633098732106  0.31893689888805454  1.0000
  C   C12       1.0  0.8124343009313861  0.06507362862646465  0.31188784843358525  1.0000
  C   C13       1.0  0.4343362579720207  0.6894953591255303  0.6879535331989928  1.0000
  C   C14       1.0  0.3184419013091428  0.8199452153910514  0.8189850367436265  1.0000
  C   C15       1.0  0.1871758108562034  0.934087466221179  0.6873794999711366  1.0000
  C   C16       1.0  0.064316714451131  0.809817354061401  0.8117048123399118  1.0000
  C   C17       1.0  0.18123088392312778  0.6796284448117048  0.6811518580381988  1.0000
  C   C18       1.0  0.3129670339231438  0.5649956595441381  0.8118493654405087  1.0000
  C   C19       1.0  0.43703561812451847  0.18514116064789482  0.9386369826972899  1.0000
  C   C20       1.0  0.4314311577522858  0.9306579638569166  0.9304631556628707  1.0000
  C   C21       1.0  0.6850796410469399  0.9393079655828841  0.9388028656118551  1.0000
  C   C22       1.0  0.5605667758968592  0.8153333884567859  0.062362500463756035  1.0000
  C   C23       1.0  0.5681825998307987  0.06933433319143484  0.06985570212559371  1.0000
  C   C24       1.0  0.31431689013251674  0.0615755344444011  0.06113550353983751  1.0000
  C   C25       1.0  0.8978944111265861  0.4067481840874407  0.4021013746309736  1.0000
  C   C26       1.0  0.8482828522463421  0.3486349521519116  0.3476788202190093  1.0000
  C   C27       1.0  0.8261887122181761  0.44924418426210616  0.38752240664464216  1.0000
  C   C28       1.0  0.919501315785766  0.30544250700867087  0.36191814861383886  1.0000
  C   C29       1.0  0.8020488354430738  0.42022510804540764  0.3606473690319802  1.0000
  C   C30       1.0  0.9432420591694212  0.33459155317586925  0.38864019713096104  1.0000
  C   C31       1.0  0.0997959626045812  0.5997392254444164  0.5960921138980879  1.0000
  C   C32       1.0  0.15252779209851747  0.6515240047259993  0.6520969877502412  1.0000
  C   C33       1.0  0.1431418999427123  0.6426204950433033  0.5819700089097213  1.0000
  C   C34       1.0  0.10948201357329171  0.6091665162624693  0.6667282695365204  1.0000
  C   C35       1.0  0.1690746306639284  0.6679049417618048  0.6098260545589796  1.0000
  C   C36       1.0  0.084060135432054  0.583937913905892  0.6388959669079526  1.0000
  C   C37       1.0  0.3041295311855237  0.45398947801061945  0.4017552023499393  1.0000
  C   C38       1.0  0.4465536529697829  0.29410795397193806  0.34959999609800735  1.0000
  C   C39       1.0  0.25879897565558707  0.41311864873619436  0.41448206428894013  1.0000
  C   C40       1.0  0.49187629585198067  0.3349048592821974  0.336899656710898  1.0000
  C   C41       1.0  0.3776784136961524  0.33857440576595377  0.37310161925697133  1.0000
  C   C42       1.0  0.37249746206808243  0.40992593337328737  0.37773257827093704  1.0000
  C   C43       1.0  0.7265717059948145  0.5767610919508358  0.6302111771446806  1.0000
  C   C44       1.0  0.5236869342782171  0.6751984543984836  0.6207962101171633  1.0000
  C   C45       1.0  0.7421200222488337  0.5873176684861646  0.5872206519993028  1.0000
  C   C46       1.0  0.508223312145148  0.6650764699776487  0.6638210703729045  1.0000
  C   C47       1.0  0.6039093151225856  0.6419470213798917  0.6088365170940124  1.0000
  C   C48       1.0  0.6463259189839262  0.6085722941760919  0.6421037774263498  1.0000
  C   C49       1.0  0.07448102528424978  0.22626448851504224  0.6296128181391722  1.0000
  C   C50       1.0  0.17317437242726197  0.023324427234868484  0.6202188904078909  1.0000
  C   C51       1.0  0.08458017915762639  0.24166792514320426  0.5865993737880049  1.0000
  C   C52       1.0  0.16237976656941563  0.007904942570682692  0.6632275707038815  1.0000
  C   C53       1.0  0.14125353102676289  0.10358974317730939  0.6083183444217826  1.0000
  C   C54       1.0  0.10771780538016167  0.146076205172001  0.6415833730917555  1.0000
  C   C55       1.0  0.8429949449228218  0.8007072497844803  0.3979020400816965  1.0000
  C   C56       1.0  0.9056824550960342  0.9501064089039842  0.3531512018218948  1.0000
  C   C57       1.0  0.912817346000807  0.758983013916527  0.4141860196157127  1.0000
  C   C58       1.0  0.8359498924449865  0.9919973016930682  0.33679993725068874  1.0000
  C   C59       1.0  0.9079111203359888  0.8797363243603301  0.37502984163427316  1.0000
  C   C60       1.0  0.8414832873603474  0.8702856862985869  0.3751667197566633  1.0000
  C   C61       1.0  0.6544514339975933  0.15369043253281947  0.15038343080347263  1.0000
  C   C62       1.0  0.5974851283812866  0.0983024820562903  0.09820916408840225  1.0000
  C   C63       1.0  0.667999729025979  0.1681656066924546  0.10725509587341266  1.0000
  C   C64       1.0  0.5832771786047886  0.08345672948831162  0.14094026052380573  1.0000
  C   C65       1.0  0.6396326974717326  0.14068968119441644  0.0816991003056202  1.0000
  C   C66       1.0  0.6114654565522883  0.11104268137587064  0.16621251279283208  1.0000
  C   C67       1.0  0.6732888913513975  0.5233315374993879  0.12068185199949974  1.0000
  C   C68       1.0  0.5743882083871341  0.7265316552544974  0.1296231271879975  1.0000
  C   C69       1.0  0.6628407867243382  0.5082872070331279  0.163756874859736  1.0000
  C   C70       1.0  0.5846774131399927  0.7415952574601051  0.08655962882625091  1.0000
  C   C71       1.0  0.6076191055597633  0.6463511247991606  0.14174657241780156  1.0000
  C   C72       1.0  0.6411014559626977  0.6035841816877934  0.10859972588649924  1.0000
  C   C73       1.0  0.0815228247744884  0.12247754981088123  0.17829824070849304  1.0000
  C   C74       1.0  0.1688993645366779  0.12447342987140078  0.07218183321575823  1.0000
  C   C75       1.0  0.0093236707228357  0.1622586244193869  0.16452600830128725  1.0000
  C   C76       1.0  0.2411929535979809  0.08491714176711437  0.08596538369804561  1.0000
  C   C77       1.0  0.11088949006662568  0.13855239532573896  0.10635450526356041  1.0000
  C   C78       1.0  0.1395713870968862  0.10963480201932188  0.1441977784277668  1.0000
  C   C79       1.0  0.3439874758335364  0.8520725581744916  0.8476943730684995  1.0000
  C   C80       1.0  0.4021022250806893  0.902404181590356  0.9017884768982115  1.0000
  C   C81       1.0  0.30134433929141846  0.9238903458746038  0.8621810358338853  1.0000
  C   C82       1.0  0.44525718026539357  0.8308440906046075  0.8878443985124067  1.0000
  C   C83       1.0  0.3304932724728218  0.9483108951684259  0.8888637195636877  1.0000
  C   C84       1.0  0.4160919583498739  0.8068674825914145  0.8612410240715394  1.0000
  C   C85       1.0  0.40640965550598906  0.44991718888984183  0.8530311338289354  1.0000
  C   C86       1.0  0.34318395897062  0.3009931201535991  0.898075296255037  1.0000
  C   C87       1.0  0.33671083204378505  0.491782199391139  0.8366604394208467  1.0000
  C   C88       1.0  0.41281032737310847  0.2590690295745262  0.9145117500758106  1.0000
  C   C89       1.0  0.3418475316521494  0.3704265878952457  0.8753118081559281  1.0000
  C   C90       1.0  0.4083743208003909  0.37972479263451225  0.8751519318321146  1.0000
  C   C91       1.0  0.9459378854262893  0.7939253160168607  0.8496842959587029  1.0000
  C   C92       1.0  0.8042878671120092  0.9544846144405387  0.9015994538026463  1.0000
  C   C93       1.0  0.9914107961152183  0.834504650034724  0.8367416446614229  1.0000
  C   C94       1.0  0.7587614013317036  0.9139198830170373  0.9145457255039278  1.0000
  C   C95       1.0  0.8724534551761636  0.9100845954847542  0.8775748850864249  1.0000
  C   C96       1.0  0.8772598938726688  0.8387454588691768  0.8731733724598247  1.0000
  S   S1        1.0  0.299943171965964  0.3226936752392504  0.3977702157450197  1.0000
  S   S2        1.0  0.4510569956001689  0.42506464644503694  0.35388481296784147  1.0000
  S   S3        1.0  0.6601223918222701  0.6358481784406678  0.5622170947542531  1.0000
  S   S4        1.0  0.5902348143320849  0.6167327184250765  0.6888023410320445  1.0000
  S   S5        1.0  0.13306350417143156  0.1596223285059253  0.5616313444006809  1.0000
  S   S6        1.0  0.11357238791924115  0.08999793934230382  0.6882126766298313  1.0000
  S   S7        1.0  0.9742466497926896  0.8045834589541131  0.4023112698682567  1.0000
  S   S8        1.0  0.7744943076432803  0.9463932234407865  0.3486970987532915  1.0000
  S   S9        1.0  0.6138927242780313  0.5906509372718817  0.18850625140283486  1.0000
  S   S10       1.0  0.633142878248556  0.6592434908946672  0.06179349767579374  1.0000
  S   S11       1.0  0.0128247497447376  0.18218299739002927  0.11104400744709864  1.0000
  S   S12       1.0  0.23760629847713935  0.06459292340796452  0.1394597207559443  1.0000
  S   S13       1.0  0.27500855399937757  0.4464448292348991  0.8487061757214108  1.0000
  S   S14       1.0  0.4743638518389375  0.30456101883162023  0.902663136531473  1.0000
  S   S15       1.0  0.9511010887804545  0.9248061214649117  0.8534966359579957  1.0000
  S   S16       1.0  0.7994017180574531  0.8233363288274093  0.8980682455466822  1.0000
  Br  Br1       1.0  0.7544256816609689  0.5472202442560175  0.40204549857342203  1.0000
  Br  Br2       1.0  0.1719185830996679  0.6705596341769323  0.5257176558881371  1.0000
  Br  Br3       1.0  0.7236932604949401  0.22490943915872205  0.07880287676830736  1.0000
  Br  Br4       1.0  0.2027936621122777  0.9946753108855904  0.8483090559402982  1.0000
  N   N1        1.0  0.2867608837724518  0.5241755274435603  0.4117322602982157  1.0000
  N   N2        1.0  0.4663615244733349  0.22188613447660546  0.3417674186430589  1.0000
  N   N3        1.0  0.7802204587539804  0.5434518325196082  0.6568036940678327  1.0000
  N   N4        1.0  0.4701909682620454  0.7134161014486791  0.5943295160348827  1.0000
  N   N5        1.0  0.036045967386563384  0.2799167072824035  0.6560807500923433  1.0000
  N   N6        1.0  0.20678474824531176  0.9697122110853801  0.5936524524538741  1.0000
  N   N7        1.0  0.7845822465531852  0.7791497641726081  0.4038667138192339  1.0000
  N   N8        1.0  0.9620971725040378  0.9738921026336629  0.3498448397986494  1.0000
  N   N9        1.0  0.7070271003240336  0.46955412363762855  0.09430512173491222  1.0000
  N   N10       1.0  0.5362789506514716  0.7802817736732595  0.15587384001596405  1.0000
  N   N11       1.0  0.09425209237405599  0.0976056992542524  0.21832555270540877  1.0000
  N   N12       1.0  0.15584996988097538  0.14443628980035336  0.03214784228941171  1.0000
  N   N13       1.0  0.46281670300029987  0.47369697740922595  0.8494314421896831  1.0000
  N   N14       1.0  0.28439816333920476  0.27972743955994167  0.9040685951941896  1.0000
  N   N15       1.0  0.9655373157462535  0.7216317685890414  0.8420324321257696  1.0000
  N   N16       1.0  0.7871704796642262  0.024708230780618127  0.9114439326997897  1.0000
  O   O1        1.0  0.00039715208887969994  0.4986141580118614  0.5006999692849874  1.0000
  O   O2        1.0  0.0760308703936801  0.31717165097187217  0.5233590913741539  1.0000
  O   O3        1.0  0.0351858386976289  0.5274721119288586  0.5871080927410475  1.0000
  O   O4        1.0  0.15760583727881544  0.5054616378699706  0.4504340857301586  1.0000
  O   O5        1.0  0.024341291803857197  0.37455928170755476  0.5824037315429963  1.0000
  O   O6        1.0  0.151757338435381  0.3930614983868352  0.4462866029686836  1.0000
  O   O7        1.0  0.07801415306730769  0.5885894626720329  0.5306737496310634  1.0000
  O   O8        1.0  0.0050714013379149  0.6550714425985263  0.44852144299048297  1.0000
  O   O9        1.0  0.8904223800191174  0.49851062192469436  0.4417220137549833  1.0000
  O   O10       1.0  0.8889101466756698  0.6549239908388887  0.44762215018602103  1.0000
  O   O11       1.0  0.9946682161834985  0.38525898809417214  0.44205268133698195  1.0000
  O   O12       1.0  0.8753266022838345  0.5272842880584817  0.5827189358966935  1.0000
  O   O13       1.0  0.8171163859955968  0.5769823791356572  0.5239112350173586  1.0000
  O   O14       1.0  0.7497867280105339  0.2495884581557775  0.2507494450574016  1.0000
  O   O15       1.0  0.5966227610530339  0.35702751759588136  0.3033937985871376  1.0000
  O   O16       1.0  0.6608630153847983  0.16565981431012491  0.21879126759825604  1.0000
  O   O17       1.0  0.7240574867726296  0.375417566021838  0.1682948974685275  1.0000
  O   O18       1.0  0.5928195949421563  0.24328274331657698  0.3001028499705996  1.0000
  O   O19       1.0  0.6737618373469232  0.43321482856394783  0.22723543138706503  1.0000
  O   O20       1.0  0.7249791754556014  0.21429454346547783  0.16664342345155356  1.0000
  O   O21       1.0  0.8770600132776849  0.22651282220269303  0.1706175268579955  1.0000
  O   O22       1.0  0.8655158350135252  0.2537885376153071  0.3075636735131654  1.0000
  O   O23       1.0  0.9361032668950813  0.1703666095587835  0.2287916734577849  1.0000
  O   O24       1.0  0.7542950409809919  0.3613660993756014  0.3083647182518093  1.0000
  O   O25       1.0  0.7468408266924341  0.09304044139199873  0.29902284694851733  1.0000
  O   O26       1.0  0.8597759424805529  0.09666581526909124  0.3043501383281183  1.0000
  O   O27       1.0  0.2503414991497194  0.7490198060521321  0.7501741119986252  1.0000
  O   O28       1.0  0.37541498799959794  0.7260692859430482  0.6680968790521933  1.0000
  O   O29       1.0  0.36513497682405927  0.7544413351549794  0.8083417262556909  1.0000
  O   O30       1.0  0.17198752016647487  0.9327006829854768  0.7265312663572346  1.0000
  O   O31       1.0  0.43263707427277603  0.6730825997176954  0.7270820889242345  1.0000
  O   O32       1.0  0.22297292687516554  0.8748051088854396  0.6676549101865704  1.0000
  O   O33       1.0  0.2528740444991442  0.859785879197823  0.8075305105707146  1.0000
  O   O34       1.0  0.09554215630602408  0.8567807184204882  0.8025718547948202  1.0000
  O   O35       1.0  0.16256304199443147  0.6650726554064761  0.7193782985546164  1.0000
  O   O36       1.0  0.09252186681806758  0.7423292455361619  0.8002908467515939  1.0000
  O   O37       1.0  0.2218708125826439  0.7157259654931922  0.665042629839789  1.0000
  O   O38       1.0  0.3600003003628983  0.5968482006830272  0.8040376804857134  1.0000
  O   O39       1.0  0.2469696559899219  0.5927236743546018  0.799417904946772  1.0000
  O   O40       1.0  0.49999467904188316  0.9995519382539657  0.00025488664348929935  1.0000
  O   O41       1.0  0.5041498227394996  0.15560942833232622  0.9497374034448856  1.0000
  O   O42       1.0  0.38869087120771434  0.9971878235781375  0.9408213974346115  1.0000
  O   O43       1.0  0.6524161296119786  0.8935628038013025  0.9467986233063075  1.0000
  O   O44       1.0  0.38910133212603876  0.15428294632329914  0.9471194136910341  1.0000
  O   O45       1.0  0.6575505210092203  0.006478297794238531  0.9505823838832727  1.0000
  O   O46       1.0  0.4963535159459482  0.8860783063006467  0.9420195288485974  1.0000
  O   O47       1.0  0.576467093956694  0.8167096402756968  0.023214778944087296  1.0000
  O   O48       1.0  0.5313695777429501  0.029637738734329774  0.08655079793933851  1.0000
  O   O49       1.0  0.5247959608417005  0.8745036898268526  0.08212002212179927  1.0000
  O   O50       1.0  0.5826856062234711  0.08683857497825195  0.03146367315893172  1.0000
  O   O51       1.0  0.3141367721111408  0.07722959773149538  0.021678241968082497  1.0000
  O   O52       1.0  0.37386777755502726  0.027332766996302386  0.0800030451929885  1.0000
