data_image0
_chemical_formula_structural       K2Co2H44C48N4O6
_chemical_formula_sum              "K2 Co2 H44 C48 N4 O6"
_cell_length_a       7.456580805855501
_cell_length_b       12.116803313116986
_cell_length_c       12.116856459843042
_cell_angle_alpha    79.52617047057376
_cell_angle_beta     87.4244972780355
_cell_angle_gamma    87.42595818424641

_space_group_name_H-M_alt    "P 1"
_space_group_IT_number       1

loop_
  _space_group_symop_operation_xyz
  'x, y, z'

loop_
  _atom_site_type_symbol
  _atom_site_label
  _atom_site_symmetry_multiplicity
  _atom_site_fract_x
  _atom_site_fract_y
  _atom_site_fract_z
  _atom_site_occupancy
  K   K1        1.0  0.8440894977563644  0.4503039886245831  0.4615397584084562  1.0000
  K   K2        1.0  0.3440901237469093  0.46153374535336406  0.45030286464454156  1.0000
  Co  Co1       1.0  0.6173487160627927  0.2779367648250357  0.6559015796108127  1.0000
  Co  Co2       1.0  0.11734497195659802  0.6558918477369602  0.2779433311446128  1.0000
  H   H1        1.0  0.674280358612897  0.3464863332704057  0.9470282938163734  1.0000
  H   H2        1.0  0.1742763963003  0.9470304835891667  0.34648094842684435  1.0000
  H   H3        1.0  0.7017668504973996  0.9687741202949738  0.6386944962662896  1.0000
  H   H4        1.0  0.2017705465774213  0.638691407886249  0.9687750946031457  1.0000
  H   H5        1.0  0.6395328821320875  0.534056602565265  0.9628899494505134  1.0000
  H   H6        1.0  0.13953300353413312  0.9628911029383007  0.5340545879126138  1.0000
  H   H7        1.0  0.757850833260612  0.906701267526735  0.7907677605545231  1.0000
  H   H8        1.0  0.25784580991899736  0.7907685777245346  0.9066996280587745  1.0000
  H   H9        1.0  0.4971216980777413  0.7912435758719383  0.6820422450216838  1.0000
  H   H10       1.0  0.997117239262643  0.6820439094947802  0.7912449452327904  1.0000
  H   H11       1.0  0.6567526051626017  0.9176046473493004  0.46771686641659466  1.0000
  H   H12       1.0  0.1567532170449226  0.4677165859231208  0.9176055727716417  1.0000
  H   H13       1.0  0.726379451113857  0.1988184352512334  0.03271294105058329  1.0000
  H   H14       1.0  0.2263783600858815  0.032714753093188206  0.1988164624502389  1.0000
  H   H15       1.0  0.5091583899133666  0.3122192241601525  0.288968363802752  1.0000
  H   H16       1.0  0.0091453202810712  0.2889616853381796  0.3122191120351303  1.0000
  H   H17       1.0  0.5771412701108857  0.9616531715286671  0.26674015019800373  1.0000
  H   H18       1.0  0.0771440805826344  0.2667362468255662  0.961654061009952  1.0000
  H   H19       1.0  0.4990389353195112  0.6484275262014236  0.5603942651492062  1.0000
  H   H20       1.0  0.9990331248268517  0.5603943230664115  0.6484288029394207  1.0000
  H   H21       1.0  0.5735946416369373  0.7356539146477773  0.8839646269206795  1.0000
  H   H22       1.0  0.07359586205960512  0.883967518296373  0.7356519542081301  1.0000
  H   H23       1.0  0.5013729564348707  0.16006651336603284  0.1786568555032133  1.0000
  H   H24       1.0  0.0013711941992226955  0.17864581836051494  0.1600674199371568  1.0000
  H   H25       1.0  0.06690727155586979  0.17371942412986385  0.8224654356998187  1.0000
  H   H26       1.0  0.5669101459656929  0.8224632833556315  0.1737192625004482  1.0000
  H   H27       1.0  0.29712006700334836  0.20561505168856795  0.7927279778858818  1.0000
  H   H28       1.0  0.7971177421270427  0.7927262905913041  0.20561269974307084  1.0000
  H   H29       1.0  0.9716414861068329  0.34739618273469125  0.7209848947358495  1.0000
  H   H30       1.0  0.4716353355111379  0.7209772930575582  0.3473954400613053  1.0000
  H   H31       1.0  0.20188746489255044  0.3879169596900738  0.7097587208865406  1.0000
  H   H32       1.0  0.7018791433705118  0.7097578714680137  0.387914053621607  1.0000
  H   H33       1.0  0.1698341528678355  0.1990178779829677  0.4815529949206692  1.0000
  H   H34       1.0  0.6698344198313464  0.4815509531999993  0.19901362572299766  1.0000
  H   H35       1.0  0.9537325747171793  0.19389149607471276  0.554226706771388  1.0000
  H   H36       1.0  0.45373311330517646  0.5542197450061225  0.19389258687213126  1.0000
  H   H37       1.0  0.8259402278525628  0.8564630054454697  0.9910708163265909  1.0000
  H   H38       1.0  0.3259354444195068  0.9910738526212339  0.8564581690117237  1.0000
  H   H39       1.0  0.31523685174955307  0.1071558501363796  0.6454949687727591  1.0000
  H   H40       1.0  0.8152348172650647  0.6454970127857464  0.10714962306328597  1.0000
  H   H41       1.0  0.09782535505121359  0.0568941473893148  0.6883257435140138  1.0000
  H   H42       1.0  0.5978219498344828  0.6883234308704118  0.05689366921313875  1.0000
  H   H43       1.0  0.8074987790441953  0.0021777739801223  0.1124101533212851  1.0000
  H   H44       1.0  0.3074955682725289  0.1124140753678375  0.002174330901873092  1.0000
  C   C1        1.0  0.5691207170204606  0.5084652147312809  0.6908357756274768  1.0000
  C   C2        1.0  0.06912167314445838  0.6908388866486775  0.5084628467756004  1.0000
  C   C3        1.0  0.6447750783742734  0.3618131619065748  0.8578939638737212  1.0000
  C   C4        1.0  0.14477313687793006  0.857897371650161  0.36180992507240006  1.0000
  C   C5        1.0  0.6062990826790298  0.4756913271500309  0.8075300112481045  1.0000
  C   C6        1.0  0.1062990468658285  0.8075329479668555  0.4756890692481051  1.0000
  C   C7        1.0  0.5840631926883901  0.20326795697504707  0.4433347093269333  1.0000
  C   C8        1.0  0.0840443265834736  0.44333341560707146  0.2032680659185644  1.0000
  C   C9        1.0  0.624646397693361  0.08892789059882496  0.4942985315828494  1.0000
  C   C10       1.0  0.12464225601827653  0.49429437351579253  0.08893371305873639  1.0000
  C   C11       1.0  0.6660702194760261  0.05737873905078322  0.6096994730632872  1.0000
  C   C12       1.0  0.16606724631267164  0.6096984055612679  0.057377708159108906  1.0000
  C   C13       1.0  0.6961605568651378  0.1659978261969499  0.8644212445153983  1.0000
  C   C14       1.0  0.19615754055722323  0.8644187146377788  0.16599531147967636  1.0000
  C   C15       1.0  0.6075826620067772  0.5599929362325186  0.8746657230518693  1.0000
  C   C16       1.0  0.10758279838384514  0.8746702242896089  0.5599908148200967  1.0000
  C   C17       1.0  0.750461056576576  0.9717984720500611  0.8421554569735719  1.0000
  C   C18       1.0  0.2504532212608908  0.8421537905688867  0.9717980270674927  1.0000
  C   C19       1.0  0.7049522005394381  0.08337583371084628  0.7962685190796109  1.0000
  C   C20       1.0  0.2049476571249684  0.7962666737913581  0.08337727544331125  1.0000
  C   C21       1.0  0.5297300169672852  0.703621290643923  0.7172299373145492  1.0000
  C   C22       1.0  0.029727895282689994  0.7172306759256061  0.7036197026813014  1.0000
  C   C23       1.0  0.6227955301979121  0.003955411948744801  0.4279646844888704  1.0000
  C   C24       1.0  0.12278748054229992  0.4279618452891897  0.003953291656983958  1.0000
  C   C25       1.0  0.7319191054292207  0.1362792290726773  0.978508226498555  1.0000
  C   C26       1.0  0.23191422012047977  0.9785039801142404  0.13627881439419548  1.0000
  C   C27       1.0  0.5403173348056926  0.22553776655339425  0.3286052554150487  1.0000
  C   C28       1.0  0.0403052892647366  0.3286033149107793  0.22554028947917712  1.0000
  C   C29       1.0  0.5793779390974905  0.028162732380081906  0.3159721161172087  1.0000
  C   C30       1.0  0.07937686781168199  0.31596749761671117  0.028162362783987788  1.0000
  C   C31       1.0  0.5293086937801161  0.6233824596916976  0.6488903905730155  1.0000
  C   C32       1.0  0.029304997514906003  0.6488899547289861  0.6233809460301886  1.0000
  C   C33       1.0  0.5709303715370665  0.6721997862208153  0.8309951616809245  1.0000
  C   C34       1.0  0.07092907454020289  0.8309963196641876  0.6722009290230773  1.0000
  C   C35       1.0  0.5371530349585926  0.1399981922395739  0.2665248520721306  1.0000
  C   C36       1.0  0.0371473006935901  0.2665191630388151  0.1399981876931022  1.0000
  C   C37       1.0  0.1655925984470983  0.20538987888601673  0.7557187722203764  1.0000
  C   C38       1.0  0.6655908748998627  0.7557164439414026  0.20538644606652665  1.0000
  C   C39       1.0  0.11001138501725188  0.32377683232626003  0.6958939509001568  1.0000
  C   C40       1.0  0.6100082823610649  0.695890291440989  0.3237755099528528  1.0000
  C   C41       1.0  0.0976395784323856  0.2082043091672929  0.5607041087641562  1.0000
  C   C42       1.0  0.5976380988287245  0.5606999465872491  0.2082037452829084  1.0000
  C   C43       1.0  0.7885848767857907  0.9431213352838484  0.9557829954935785  1.0000
  C   C44       1.0  0.2885785457736034  0.9557872709287453  0.9431182309315389  1.0000
  C   C45       1.0  0.1755796869119735  0.1325519140181868  0.6633661052012841  1.0000
  C   C46       1.0  0.6755765103825624  0.6633647437472378  0.13254960175293454  1.0000
  C   C47       1.0  0.7786232774097073  0.0248250433884039  0.023673625425587392  1.0000
  C   C48       1.0  0.278618506911549  0.0236757390038491  0.024820805453082097  1.0000
  N   N1        1.0  0.6642617471832465  0.12720672901190974  0.6824945320335019  1.0000
  N   N2        1.0  0.16426079900196563  0.6824994548451219  0.12720415117856723  1.0000
  N   N3        1.0  0.6511043095971302  0.27539980718386664  0.8041315355225152  1.0000
  N   N4        1.0  0.15110239227983874  0.8041314148281273  0.2753911952208981  1.0000
  O   O1        1.0  0.5866434354684814  0.2877899944182189  0.498862870226894  1.0000
  O   O2        1.0  0.08663594041166081  0.49886182819792413  0.2877900671930931  1.0000
  O   O3        1.0  0.5714747386099505  0.4358526138718659  0.6209933486227613  1.0000
  O   O4        1.0  0.0714810945787008  0.6209928536444593  0.4358544303354392  1.0000
  O   O5        1.0  0.11941642978887759  0.32237637592394464  0.576238991099089  1.0000
  O   O6        1.0  0.6194171368798109  0.5762347991350011  0.32237561555315614  1.0000
