data_image0
_chemical_formula_structural       U2H44Pb2C72N8O20
_chemical_formula_sum              "U2 H44 Pb2 C72 N8 O20"
_cell_length_a       11.894587103383346
_cell_length_b       12.694925668643851
_cell_length_c       13.075670224099127
_cell_angle_alpha    60.880350205306385
_cell_angle_beta     79.60320775222382
_cell_angle_gamma    68.19233036467213

_space_group_name_H-M_alt    "P 1"
_space_group_IT_number       1

loop_
  _space_group_symop_operation_xyz
  'x, y, z'

loop_
  _atom_site_type_symbol
  _atom_site_label
  _atom_site_symmetry_multiplicity
  _atom_site_fract_x
  _atom_site_fract_y
  _atom_site_fract_z
  _atom_site_occupancy
  U   U1        1.0  0.5000085256902196  0.9999992429286451  0.9999928520170585  1.0000
  U   U2        1.0  0.9999876945647797  9.98067115871662e-06  0.999991314574615  1.0000
  H   H1        1.0  0.8235912136168577  0.3092313745137433  0.14294822678370164  1.0000
  H   H2        1.0  0.6763964453333527  0.5476803662057108  0.14291319190447646  1.0000
  H   H3        1.0  0.17640753527914646  0.6907673090725267  0.8570528176999731  1.0000
  H   H4        1.0  0.3236026025264138  0.4523177637440554  0.8570874520751701  1.0000
  H   H5        1.0  0.5515930346541605  0.4252793394452111  0.8318237090464251  1.0000
  H   H6        1.0  0.9484885157814275  0.7431045431195998  0.8318914142466056  1.0000
  H   H7        1.0  0.4484045605328717  0.5747200382241003  0.16817759549474687  1.0000
  H   H8        1.0  0.05150967733312232  0.25689296160923897  0.1681098549539755  1.0000
  H   H9        1.0  0.6285184878102754  0.5891718517090396  0.8221288937988831  1.0000
  H   H10       1.0  0.8714410101429095  0.5889405649685173  0.822363997101526  1.0000
  H   H11       1.0  0.3714811158309387  0.41082669143069245  0.1778722911313295  1.0000
  H   H12       1.0  0.12855919142583616  0.4110561052307419  0.1776371524880958  1.0000
  H   H13       1.0  0.512177153247897  0.7556096395700324  0.29089360271756703  1.0000
  H   H14       1.0  0.9879019499175499  0.9537466316506382  0.2906854305940954  1.0000
  H   H15       1.0  0.4878238609199883  0.24439070764805837  0.7091067322748189  1.0000
  H   H16       1.0  0.012100516923069921  0.04625399918285921  0.709312712501827  1.0000
  H   H17       1.0  0.381444611423916  0.6227401747019528  0.41140599357331814  1.0000
  H   H18       1.0  0.1185433671049764  0.9660371191855716  0.41122180047015894  1.0000
  H   H19       1.0  0.6185561037802002  0.3772607261526417  0.5885947419230959  1.0000
  H   H20       1.0  0.88145995448086  0.033963371201380745  0.5887764830723086  1.0000
  H   H21       1.0  0.34398582972086433  0.5773119565279714  0.6225808257464607  1.0000
  H   H22       1.0  0.15587951961868637  0.8000347067874716  0.6224638319880497  1.0000
  H   H23       1.0  0.6560151844470211  0.4226876250226468  0.37742027491339775  1.0000
  H   H24       1.0  0.84412380196715  0.1999650179320156  0.3775352172218831  1.0000
  H   H25       1.0  0.4325646803451304  0.6740280448799822  0.7004132977887637  1.0000
  H   H26       1.0  0.06733240341544898  0.6252831726596851  0.7005838297346828  1.0000
  H   H27       1.0  0.567436632786517  0.3259702173666667  0.299588168034532  1.0000
  H   H28       1.0  0.932668054970989  0.37471829270338475  0.2994144329721919  1.0000
  H   H29       1.0  0.4641403813899386  0.8019826792475298  0.7322170914500746  1.0000
  H   H30       1.0  0.035718117109446695  0.46574597291893133  0.7322604735264236  1.0000
  H   H31       1.0  0.5358592222512826  0.19801586389220197  0.2677840934801452  1.0000
  H   H32       1.0  0.9642828970584388  0.5342574369690426  0.2677367987960864  1.0000
  H   H33       1.0  0.566245614747373  0.8966066069672678  0.7988839414514076  1.0000
  H   H34       1.0  0.9337090870026685  0.3042226357615831  0.7990491056775397  1.0000
  H   H35       1.0  0.43375227940342137  0.1033922170655401  0.2011169625857292  1.0000
  H   H36       1.0  0.06629192716521716  0.6957792427914526  0.20094969797990805  1.0000
  H   H37       1.0  0.7258141548622845  0.983296690398518  0.6751665264475903  1.0000
  H   H38       1.0  0.7742230004028341  0.3413636526268676  0.6752587706626656  1.0000
  H   H39       1.0  0.27418514981517444  0.016703937712655676  0.32483352765171963  1.0000
  H   H40       1.0  0.22577856954649897  0.6586378734486543  0.32474133961282103  1.0000
  H   H41       1.0  0.7806220694915635  0.9690393782758308  0.48408039254953644  1.0000
  H   H42       1.0  0.7194094520763342  0.547007848166281  0.48400301432531007  1.0000
  H   H43       1.0  0.2193786457125596  0.03096075691129129  0.51592110861435  1.0000
  H   H44       1.0  0.28059100631009665  0.45299361719679604  0.5159952483815644  1.0000
  Pb  Pb1       1.0  0.7499273251801664  0.8380287686517179  0.32400085494530373  1.0000
  Pb  Pb2       1.0  0.2500716805335301  0.16197088176100743  0.6760011309929794  1.0000
  C   C1        1.0  0.728745192797724  0.4605001573173623  0.9835323790941858  1.0000
  C   C2        1.0  0.7711928354254025  0.5561051123132403  0.983586691278731  1.0000
  C   C3        1.0  0.2712524023893079  0.5394992203519494  0.016468925446979206  1.0000
  C   C4        1.0  0.22880732399726608  0.44389231268150553  0.016416565936992828  1.0000
  C   C5        1.0  0.7627217346031897  0.33565426373784385  0.07495629706118484  1.0000
  C   C6        1.0  0.7372896483736396  0.589348178839174  0.07496644077610883  1.0000
  C   C7        1.0  0.23727440791110144  0.6643463616510062  0.9250456680415057  1.0000
  C   C8        1.0  0.2627108100127912  0.4106479268516026  0.9250371816030594  1.0000
  C   C9        1.0  0.725397151779205  0.24245832657862113  0.0773304595303301  1.0000
  C   C10       1.0  0.7746526276677841  0.680137791135394  0.07736391754543356  1.0000
  C   C11       1.0  0.2745972390985896  0.7575433344987914  0.9226733323053866  1.0000
  C   C12       1.0  0.22534898442762594  0.319857620472348  0.9226394447762446  1.0000
  C   C13       1.0  0.6462710223111683  0.2762743687193137  0.9901267792434111  1.0000
  C   C14       1.0  0.853788086681952  0.733619329752898  0.9901481274318372  1.0000
  C   C15       1.0  0.353724265457913  0.7237263971160673  0.00987504541274117  1.0000
  C   C16       1.0  0.14621296963200336  0.26637566866487816  0.009854693939267625  1.0000
  C   C17       1.0  0.6120969070508551  0.40145226621788754  0.8989267801814834  1.0000
  C   C18       1.0  0.8879315317859161  0.6998194977953106  0.8989965779183394  1.0000
  C   C19       1.0  0.3879003891724153  0.5985476650879206  0.10107492486371686  1.0000
  C   C20       1.0  0.11206952452803873  0.3001762662899452  0.10100547778530002  1.0000
  C   C21       1.0  0.6545129555697856  0.4922112187331961  0.8938401059123892  1.0000
  C   C22       1.0  0.8454554271481881  0.6141675111189855  0.8939603695788706  1.0000
  C   C23       1.0  0.34548549436245657  0.5077872528221051  0.10616210474279343  1.0000
  C   C24       1.0  0.15454592812952941  0.385826933662301  0.10604205128819899  1.0000
  C   C25       1.0  0.7748864250994171  0.1086685161480859  0.1734383979842774  1.0000
  C   C26       1.0  0.7251746235813953  0.7177401990310486  0.1733917533875768  1.0000
  C   C27       1.0  0.22510856370590202  0.8913351003262094  0.8265615301734996  1.0000
  C   C28       1.0  0.27482553584128055  0.2822579916311695  0.8266107381606816  1.0000
  C   C29       1.0  0.5949981251833165  0.1839974038641756  0.9937306938834778  1.0000
  C   C30       1.0  0.9050782981541867  0.8222730229694265  0.9937130706422509  1.0000
  C   C31       1.0  0.40500635011149205  0.8159993297698591  0.006270392271382259  1.0000
  C   C32       1.0  0.0949164759795096  0.1777311688853374  0.006281511432405306  1.0000
  C   C33       1.0  0.49304344530869315  0.7346987804722502  0.3822562903167822  1.0000
  C   C34       1.0  0.007004633193339844  0.8832230681620316  0.38210562584426094  1.0000
  C   C35       1.0  0.50695726989543  0.26530212038234424  0.6177444451796319  1.0000
  C   C36       1.0  0.99299783364728  0.11677603133652772  0.6178940485865995  1.0000
  C   C37       1.0  0.4195778193237628  0.6611288501094847  0.4499429901676209  1.0000
  C   C38       1.0  0.0804444293736637  0.8889982963242389  0.44979826440084036  1.0000
  C   C39       1.0  0.5804240495893396  0.33887135666206797  0.5500574852713102  1.0000
  C   C40       1.0  0.9195591911759278  0.11100164042621684  0.5501996186375919  1.0000
  C   C41       1.0  0.39891180406391397  0.636894694931769  0.5665360404302788  1.0000
  C   C42       1.0  0.10102471541980393  0.7964811629245218  0.5664637404905408  1.0000
  C   C43       1.0  0.6010903638129435  0.36310419253581483  0.43346480017208927  1.0000
  C   C44       1.0  0.898976597711844  0.20351939632454463  0.4335354283303444  1.0000
  C   C45       1.0  0.4492856591240296  0.6900801637177024  0.6101986979259523  1.0000
  C   C46       1.0  0.05063455034894561  0.6995490328449633  0.6102845920725245  1.0000
  C   C47       1.0  0.5507165087528276  0.3099179580824085  0.3898029083438815  1.0000
  C   C48       1.0  0.9493667627827023  0.3004522920715758  0.3897138110808882  1.0000
  C   C49       1.0  0.5221333256772523  0.7637280577982395  0.5367435402326065  1.0000
  C   C50       1.0  0.9778221808545168  0.6995352842897374  0.5367531885259781  1.0000
  C   C51       1.0  0.4778688421996052  0.23627006400187872  0.4632580660372341  1.0000
  C   C52       1.0  0.022178833313361634  0.30046735993076373  0.4632448494639974  1.0000
  C   C53       1.0  0.5775424601272973  0.823610631671997  0.5781420295458092  1.0000
  C   C54       1.0  0.922341808683278  0.5983128052903979  0.5781052575086819  1.0000
  C   C55       1.0  0.42245799825913366  0.1763877710211901  0.4218592958309486  1.0000
  C   C56       1.0  0.07765864970315312  0.40168789440520664  0.42189377086566543  1.0000
  C   C57       1.0  0.5396085935279302  0.8324780190556994  0.6823775065237001  1.0000
  C   C58       1.0  0.9602581370746888  0.485085844052513  0.6824424914225914  1.0000
  C   C59       1.0  0.46039186485850786  0.16752114930496018  0.317623053185585  1.0000
  C   C60       1.0  0.039741723384217616  0.5149174942510301  0.3175558066248741  1.0000
  C   C61       1.0  0.5942591180146832  0.8883648249193145  0.7185528580399989  1.0000
  C   C62       1.0  0.9056957487407754  0.39291449761911684  0.7186143759721658  1.0000
  C   C63       1.0  0.40574078459029284  0.11163316458391387  0.28144792638618543  1.0000
  C   C64       1.0  0.09430612017231961  0.607087240487374  0.28138456813182705  1.0000
  C   C65       1.0  0.6836951425770078  0.9372710171982492  0.6488225486798382  1.0000
  C   C66       1.0  0.8163188348217644  0.4138231798034154  0.6488203037004966  1.0000
  C   C67       1.0  0.3163044610642132  0.06272829160895543  0.3511778705829088  1.0000
  C   C68       1.0  0.18368132460090433  0.5861780735286857  0.3511791251778789  1.0000
  C   C69       1.0  0.7146612077535224  0.9284197949630765  0.5447588722379494  1.0000
  C   C70       1.0  0.7853513360820867  0.5268953267376516  0.5446741414303986  1.0000
  C   C71       1.0  0.2853398064143633  0.07157978658754868  0.4552422284219091  1.0000
  C   C72       1.0  0.2146491223043441  0.4731061386254182  0.45532412127647603  1.0000
  N   N1        1.0  0.5445325759397475  0.7828491308676675  0.42517960771153435  1.0000
  N   N2        1.0  0.9555063116414  0.7920876563887591  0.42511418925202094  1.0000
  N   N3        1.0  0.45546843822813804  0.2171504506829577  0.574821492948324  1.0000
  N   N4        1.0  0.04449585623545714  0.20791429374870776  0.5748835886804642  1.0000
  N   N5        1.0  0.6640921883502956  0.871807823089675  0.5108114580671952  1.0000
  N   N6        1.0  0.8359098867872632  0.6175382128208113  0.5106642665434151  1.0000
  N   N7        1.0  0.3359091247813523  0.12819120482444643  0.48918924208863507  1.0000
  N   N8        1.0  0.16409027263541276  0.3824638061787624  0.4893343966674948  1.0000
  O   O1        1.0  0.6164940493471817  0.9749372715948895  0.8958909114369503  1.0000
  O   O2        1.0  0.8834305442386566  0.1292669399022585  0.8958196640345831  1.0000
  O   O3        1.0  0.38351640916412316  0.025063072918193485  0.10410656383886162  1.0000
  O   O4        1.0  0.11656252040461375  0.8707329388407601  0.1041792311518179  1.0000
  O   O5        1.0  0.854725562613609  0.02354073833178214  0.14803949087171017  1.0000
  O   O6        1.0  0.6452634739994138  0.8283198794391424  0.14788801339404498  1.0000
  O   O7        1.0  0.14526716091982914  0.9764635115131026  0.8519588497749384  1.0000
  O   O8        1.0  0.35473839491368153  0.17167956166493772  0.8521132277123515  1.0000
  O   O9        1.0  0.7384099623322768  0.0852997532208448  0.27648743662530956  1.0000
  O   O10       1.0  0.761684592436154  0.6380105687680101  0.2764901935270601  1.0000
  O   O11       1.0  0.2615915654709863  0.9147009963152187  0.7235163126112242  1.0000
  O   O12       1.0  0.23831325956857077  0.36198824439281924  0.7235135838036513  1.0000
  O   O13       1.0  0.6099777126129596  0.07490275941400874  0.08416487087066575  1.0000
  O   O14       1.0  0.8900108773510167  0.8408025736662098  0.08409164142913284  1.0000
  O   O15       1.0  0.3900259079366321  0.925092583331626  0.9158376061725876  1.0000
  O   O16       1.0  0.10998013669199483  0.1592057854091139  0.915902589987091  1.0000
  O   O17       1.0  0.532436436836207  0.21443912875881221  0.9079297354010761  1.0000
  O   O18       1.0  0.9677072326040134  0.8777775357480949  0.9079995145229773  1.0000
  O   O19       1.0  0.4675703458765526  0.7855562167091463  0.09207083063878942  1.0000
  O   O20       1.0  0.0322821140946417  0.1222295837573526  0.09199309404153411  1.0000
