data_image0
_chemical_formula_structural       Nd4H28C24O32
_chemical_formula_sum              "Nd4 H28 C24 O32"
_cell_length_a       8.68609857564615
_cell_length_b       9.327385983144744
_cell_length_c       12.811883344239348
_cell_angle_alpha    75.40591826954787
_cell_angle_beta     70.21819202795021
_cell_angle_gamma    62.22232151327929

_space_group_name_H-M_alt    "P 1"
_space_group_IT_number       1

loop_
  _space_group_symop_operation_xyz
  'x, y, z'

loop_
  _atom_site_type_symbol
  _atom_site_label
  _atom_site_symmetry_multiplicity
  _atom_site_fract_x
  _atom_site_fract_y
  _atom_site_fract_z
  _atom_site_occupancy
  Nd  Nd1       1.0  0.001336067180020068  0.0009038586823351002  0.8299122047153986  1.0000
  Nd  Nd2       1.0  0.8323552757834917  0.498955748732378  0.6699525665712968  1.0000
  Nd  Nd3       1.0  0.9986626223967431  0.999095676833349  0.17008861476023887  1.0000
  Nd  Nd4       1.0  0.16764513591586894  0.5010437883871647  0.3300477556587325  1.0000
  H   H1        1.0  0.6736137735651724  0.025353237937679303  0.45799277281462725  1.0000
  H   H2        1.0  0.1575748561696244  0.4746225392221178  0.04203473859335817  1.0000
  H   H3        1.0  0.3263855101282189  0.9746487383516325  0.5420073650093755  1.0000
  H   H4        1.0  0.8424246136315434  0.5253769993583006  0.9579653008322565  1.0000
  H   H5        1.0  0.8369444626727752  0.0306957932775092  0.5066229351983651  1.0000
  H   H6        1.0  0.3747742494620141  0.4693370126182685  0.9936360283737072  1.0000
  H   H7        1.0  0.16305482102061555  0.9693061830118027  0.49337720262563056  1.0000
  H   H8        1.0  0.6252261622373467  0.5306625245012738  0.006364293856321893  1.0000
  H   H9        1.0  0.4193788023983203  0.1256527280907846  0.6152833746779222  1.0000
  H   H10       1.0  0.1605059339461833  0.3743559734891519  0.8849149345087709  1.0000
  H   H11       1.0  0.5806189753938966  0.874350469244291  0.38471638813864917  1.0000
  H   H12       1.0  0.8394939137501964  0.6256447832152789  0.11508529551824129  1.0000
  H   H13       1.0  0.5582644092018044  0.15949000250814288  0.6719877495093768  1.0000
  H   H14       1.0  0.39006080704636786  0.3400987320857779  0.8282668768437772  1.0000
  H   H15       1.0  0.4417346582701638  0.8405107511315534  0.32801326056766544  1.0000
  H   H16       1.0  0.6099378825303959  0.6599008034299059  0.17173394263186018  1.0000
  H   H17       1.0  0.4909380543315366  0.8115567828357797  0.6782942466961471  1.0000
  H   H18       1.0  0.9811528643482033  0.6881468853654766  0.8217223966338877  1.0000
  H   H19       1.0  0.509061013140432  0.18844397080390957  0.32170676338089516  1.0000
  H   H20       1.0  0.018846041449982958  0.3118538727998228  0.17827755058871014  1.0000
  H   H21       1.0  0.6353645212377401  0.048437100106582386  0.00699778133810714  1.0000
  H   H22       1.0  0.6907542125222077  0.451629879502491  0.49280978298745726  1.0000
  H   H23       1.0  0.36463516478485053  0.9515636611234584  0.9930013858344606  1.0000
  H   H24       1.0  0.3092464153985757  0.5483708802666741  0.5071896669895322  1.0000
  H   H25       1.0  0.6272708217695071  0.013637289220767502  0.893507568434728  1.0000
  H   H26       1.0  0.534556852664281  0.48621858216956326  0.6064132155778664  1.0000
  H   H27       1.0  0.37273037015425825  0.9863622509635094  0.10649197374527113  1.0000
  H   H28       1.0  0.4654447171547033  0.513782176138726  0.39358651720353766  1.0000
  C   C1        1.0  0.91157843814441  0.8042239979838115  0.4517268249255435  1.0000
  C   C2        1.0  0.16753270697564906  0.6958709762655388  0.048387576288035875  1.0000
  C   C3        1.0  0.08842086998296839  0.195775545122217  0.5482721516456195  1.0000
  C   C4        1.0  0.8324667628255187  0.30412856231487956  0.9516124631375715  1.0000
  C   C5        1.0  0.7706411479209763  0.953769770628007  0.5088536270150212  1.0000
  C   C6        1.0  0.2337650008250592  0.5462157463391436  0.991266011838526  1.0000
  C   C7        1.0  0.22936020567657786  0.046229765030666684  0.49114697801942947  1.0000
  C   C8        1.0  0.7662354108743016  0.45378379078039893  0.008734310391510246  1.0000
  C   C9        1.0  0.6706789934950664  0.9168262765842741  0.6294503501226741  1.0000
  C   C10       1.0  0.21745163082297855  0.5829513298678464  0.8706093268598208  1.0000
  C   C11       1.0  0.3293216344257174  0.08317448318489082  0.3705490998543083  1.0000
  C   C12       1.0  0.7825487808763824  0.41704820725169617  0.1293909953702083  1.0000
  C   C13       1.0  0.5070340050138498  0.071325519010216  0.6723246299779786  1.0000
  C   C14       1.0  0.2510007936449127  0.428421381377099  0.8278813514964936  1.0000
  C   C15       1.0  0.4929671869099152  0.9286740211740607  0.32767491220202044  1.0000
  C   C16       1.0  0.7489990540514669  0.5715793753273315  0.1721188785305258  1.0000
  C   C17       1.0  0.39993101156395755  0.0384004889141636  0.7912562060902457  1.0000
  C   C18       1.0  0.22978204060571264  0.46134168916478313  0.7089310298965329  1.0000
  C   C19       1.0  0.60006845823721  0.9615990496662549  0.20874383333536162  1.0000
  C   C20       1.0  0.7702168651924666  0.5386590690005235  0.29106891732606477  1.0000
  C   C21       1.0  0.8024570843573715  0.8531494054839256  0.7042472544648102  1.0000
  C   C22       1.0  0.3602712111262037  0.6464793469417386  0.7957485699818747  1.0000
  C   C23       1.0  0.1975427633390083  0.14685135122049792  0.29575297556220187  1.0000
  C   C24       1.0  0.6397274784505528  0.35352018857394546  0.20425224949376278  1.0000
  O   O1        1.0  0.9550747233099275  0.6607945698647697  0.5040684473855561  1.0000
  O   O2        1.0  0.11996663935899228  0.8392236502716557  0.9959428693460662  1.0000
  O   O3        1.0  0.04492340226384789  0.33920618523580254  0.4959322798870644  1.0000
  O   O4        1.0  0.8800332083373875  0.160777106432775  0.004057360680945865  1.0000
  O   O5        1.0  0.988320109918348  0.8226043131104956  0.3485433313794955  1.0000
  O   O6        1.0  0.1590055389034291  0.677667100605632  0.15165284236380924  1.0000
  O   O7        1.0  0.011680518002435794  0.177396446658669  0.651456118597494  1.0000
  O   O8        1.0  0.8409933668947576  0.32233365755967464  0.8483471048587814  1.0000
  O   O9        1.0  0.8454815464522132  0.7068220725889773  0.7523433953347618  1.0000
  O   O10       1.0  0.30493266287813015  0.7928513339246664  0.747725923182905  1.0000
  O   O11       1.0  0.15452058736975266  0.2931774661344235  0.24765642964965198  1.0000
  O   O12       1.0  0.6950671848182421  0.20714942277976434  0.2522743068441071  1.0000
  O   O13       1.0  0.864654123317543  0.9485228024973864  0.709350761309494  1.0000
  O   O14       1.0  0.5230376726192602  0.5509921780234066  0.7905375311742515  1.0000
  O   O15       1.0  0.13534706860622958  0.05147673768689741  0.29064878087051227  1.0000
  O   O16       1.0  0.4769621750771196  0.4490085786810241  0.20946269885276783  1.0000
  O   O17       1.0  0.48755081608940987  0.9649508946609728  0.8652644071765889  1.0000
  O   O18       1.0  0.31776732626885007  0.5348714198023501  0.6350050336254254  1.0000
  O   O19       1.0  0.5124477118135644  0.0350486453803214  0.1347353494445968  1.0000
  O   O20       1.0  0.6822330854305108  0.4651281173171924  0.36499528860460345  1.0000
  O   O21       1.0  0.23211046704543029  0.08432586417209362  0.8108589948652706  1.0000
  O   O22       1.0  0.1275905856808491  0.41540730985019536  0.689224334186811  1.0000
  O   O23       1.0  0.7678899446539305  0.9156736729474487  0.18914132736476566  1.0000
  O   O24       1.0  0.8724086980125492  0.5845946664391237  0.31077580363719176  1.0000
  O   O25       1.0  0.6155285212114308  0.7939649087211436  0.6287736181692904  1.0000
  O   O26       1.0  0.038714000207242916  0.7058495572413009  0.8711574417359883  1.0000
  O   O27       1.0  0.3844715427063719  0.20603707063290247  0.37122573960467514  1.0000
  O   O28       1.0  0.9612854695939247  0.29414998133911757  0.12884259768961923  1.0000
  O   O29       1.0  0.6947459635905202  0.047934225142555  0.9243705086939397  1.0000
  O   O30       1.0  0.667138633022162  0.451988029715146  0.575457075664957  1.0000
  O   O31       1.0  0.3052535062106471  0.9520653134378704  0.07562953073166762  1.0000
  O   O32       1.0  0.3328606506712291  0.5480139465741658  0.4245430621590387  1.0000
