data_image0
_chemical_formula_structural       K4H52C48S4N8O20
_chemical_formula_sum              "K4 H52 C48 S4 N8 O20"
_cell_length_a       7.181020434002076
_cell_length_b       12.903074202708334
_cell_length_c       15.872455821575974
_cell_angle_alpha    109.67452931986143
_cell_angle_beta     89.9999131390435
_cell_angle_gamma    90.0000223419645

_space_group_name_H-M_alt    "P 1"
_space_group_IT_number       1

loop_
  _space_group_symop_operation_xyz
  'x, y, z'

loop_
  _atom_site_type_symbol
  _atom_site_label
  _atom_site_symmetry_multiplicity
  _atom_site_fract_x
  _atom_site_fract_y
  _atom_site_fract_z
  _atom_site_occupancy
  K   K1        1.0  0.3201370036760878  0.41361997431324227  0.05542294492011731  1.0000
  K   K2        1.0  0.820135369836514  0.08638465235416963  0.9445763777847274  1.0000
  K   K3        1.0  0.6798699630277412  0.5863817197749271  0.9445738679385016  1.0000
  K   K4        1.0  0.17986324150355407  0.9136170461503499  0.05542358639480949  1.0000
  H   H1        1.0  0.6597219925695017  0.7645126046219348  0.39874164200276857  1.0000
  H   H2        1.0  0.15972167335222312  0.7354878124350607  0.6012587967823748  1.0000
  H   H3        1.0  0.3402794038871662  0.2354866273564085  0.601259539201088  1.0000
  H   H4        1.0  0.8402783305475909  0.264513886069409  0.3987411673966719  1.0000
  H   H5        1.0  0.9458302078268163  0.7637176144792761  0.4866597348800995  1.0000
  H   H6        1.0  0.44582879124433106  0.7362836054747817  0.5133413567898159  1.0000
  H   H7        1.0  0.05417258119064881  0.23628161661580546  0.5133408160596673  1.0000
  H   H8        1.0  0.554171212654616  0.26371644779576536  0.4866587884758359  1.0000
  H   H9        1.0  0.10378689639114923  0.5850628162707922  0.46837575241036694  1.0000
  H   H10       1.0  0.6037840896838987  0.9149376031341916  0.5316234653338158  1.0000
  H   H11       1.0  0.8962158926264082  0.41493559176571904  0.5316245739409098  1.0000
  H   H12       1.0  0.39621730677364303  0.08506327407807389  0.4683775347834355  1.0000
  H   H13       1.0  0.9706317760236518  0.4111818291512748  0.3663577773631986  1.0000
  H   H14       1.0  0.4706298538005528  0.08882031903718968  0.6336420258671324  1.0000
  H   H15       1.0  0.029368227874329005  0.5888174019439063  0.6336427735775486  1.0000
  H   H16       1.0  0.5293687575363535  0.9111813821169508  0.3663598291031819  1.0000
  H   H17       1.0  0.30444930928803166  0.4588652819519441  0.36846624766470637  1.0000
  H   H18       1.0  0.8044500856777363  0.04113605628465681  0.6315340785502457  1.0000
  H   H19       1.0  0.6955479094934418  0.5411355926108499  0.6315328616632314  1.0000
  H   H20       1.0  0.19554991822217005  0.9588648191612494  0.36846566104030404  1.0000
  H   H21       1.0  0.5033596502113582  0.44666704111809724  0.43053398308832413  1.0000
  H   H22       1.0  0.0033593109654362005  0.053332672264922124  0.5694654762297446  1.0000
  H   H23       1.0  0.49664035368969917  0.5533330103860267  0.5694649016501359  1.0000
  H   H24       1.0  0.9966406929346548  0.94666655706385  0.4305338141838179  1.0000
  H   H25       1.0  0.32417342329083704  0.3442936566527593  0.4057343491347893  1.0000
  H   H26       1.0  0.8241757967536998  0.15570685619119473  0.5942651083040005  1.0000
  H   H27       1.0  0.6758237954896629  0.6557063957346755  0.5942651658682578  1.0000
  H   H28       1.0  0.17582559970710324  0.8442931953128863  0.4057337764339764  1.0000
  H   H29       1.0  0.2736210472073637  0.7004401533320818  0.2839216851776243  1.0000
  H   H30       1.0  0.7736231123966633  0.7995610775223058  0.7160782675286724  1.0000
  H   H31       1.0  0.7263775641307787  0.29955990082171985  0.7160790903521103  1.0000
  H   H32       1.0  0.22637549894244563  0.2004397988068547  0.2839221023259597  1.0000
  H   H33       1.0  0.7575969178118527  0.38319191086736043  0.9979657170403654  1.0000
  H   H34       1.0  0.257592954088814  0.11680696075674042  0.0020333382209401134  1.0000
  H   H35       1.0  0.24240726376738314  0.6168081415198189  0.0020337979602232602  1.0000
  H   H36       1.0  0.7424056572534568  0.8831939129227921  0.9979651408429149  1.0000
  H   H37       1.0  0.7804531764720225  0.48597927882622843  0.08347814260552873  1.0000
  H   H38       1.0  0.280453039367579  0.014018768941177498  0.9165213021949724  1.0000
  H   H39       1.0  0.21954961254756003  0.5140199505024371  0.9165211478070532  1.0000
  H   H40       1.0  0.7195469645334713  0.9859812825629535  0.08347758254348762  1.0000
  H   H41       1.0  0.9769140250448985  0.30740550216344087  0.09896685268314802  1.0000
  H   H42       1.0  0.4769098862545889  0.19259417992014263  0.9010347934021395  1.0000
  H   H43       1.0  0.023092941654105904  0.692592081047934  0.9010319885509759  1.0000
  H   H44       1.0  0.5230873325229268  0.8074042289997863  0.09896616321469762  1.0000
  H   H45       1.0  0.9821680322082786  0.428587069590293  0.1961618486160859  1.0000
  H   H46       1.0  0.48217109774429895  0.0714117872815905  0.8038383086420993  1.0000
  H   H47       1.0  0.017833364249533207  0.571411338446275  0.8038384777356811  1.0000
  H   H48       1.0  0.5178302987166817  0.9285866181053566  0.1961601269188833  1.0000
  H   H49       1.0  0.06324983077968943  0.30066593778941814  0.201353404370245  1.0000
  H   H50       1.0  0.563251549604182  0.19933706783859156  0.7986500623417427  1.0000
  H   H51       1.0  0.9367543507943596  0.6993332959552351  0.7986490373598087  1.0000
  H   H52       1.0  0.43674984685221574  0.800664633315449  0.20135179262759098  1.0000
  C   C1        1.0  0.475657753897842  0.5971712156851795  0.2858481874914034  1.0000
  C   C2        1.0  0.9756654675336665  0.9028283621398928  0.7141568457877909  1.0000
  C   C3        1.0  0.5243394648818764  0.40282636840976965  0.7141512840097518  1.0000
  C   C4        1.0  0.024335928922816698  0.0971725159555845  0.2858447845930527  1.0000
  C   C5        1.0  0.6502011075758817  0.589146657618926  0.33492970011994316  1.0000
  C   C6        1.0  0.1502048740402344  0.9108529388460769  0.6650717813233769  1.0000
  C   C7        1.0  0.3497988963181414  0.4108501078333973  0.6650726981097036  1.0000
  C   C8        1.0  0.8497965224171224  0.089149584483323  0.3349296679708544  1.0000
  C   C9        1.0  0.7281983160369236  0.6872092024184085  0.3928464570518457  1.0000
  C   C10       1.0  0.22819942333874374  0.8127920335435165  0.6071547882465113  1.0000
  C   C11       1.0  0.2718016878598135  0.3127916756771186  0.6071551733294882  1.0000
  C   C12       1.0  0.7718005805590522  0.18720884366879895  0.3928462118712304  1.0000
  C   C13       1.0  0.889520711530885  0.6869674941344642  0.4411214501028341  1.0000
  C   C14       1.0  0.3895205882257784  0.8130329077860383  0.5588800869913726  1.0000
  C   C15       1.0  0.11047789980629123  0.3130317378439785  0.558879731102003  1.0000
  C   C16       1.0  0.6104766305503233  0.18696879425136362  0.4411223982430315  1.0000
  C   C17       1.0  0.977399569338857  0.587118988707239  0.4309196986118308  1.0000
  C   C18       1.0  0.4773994812310037  0.9128814040996931  0.5690798856566985  1.0000
  C   C19       1.0  0.022597649439354904  0.4128827115637463  0.5690815260953812  1.0000
  C   C20       1.0  0.5226019152255718  0.08711865093721374  0.430921520135648  1.0000
  C   C21       1.0  0.9023253429426887  0.48919952625055896  0.3735365513783577  1.0000
  C   C22       1.0  0.40232617568204193  0.010800982611385703  0.6264641114196507  1.0000
  C   C23       1.0  0.09767187583166502  0.5107988853189981  0.6264662960292569  1.0000
  C   C24       1.0  0.5976766133341016  0.9892007185426055  0.37353774354919284  1.0000
  C   C25       1.0  0.7382596048264318  0.4871006044515057  0.3247287139061541  1.0000
  C   C26       1.0  0.23826027545599263  0.0128990907701478  0.6752699493288858  1.0000
  C   C27       1.0  0.2617362213935337  0.512896979643493  0.6752707575954915  1.0000
  C   C28       1.0  0.7617397284440984  0.9871001385586242  0.3247293410846838  1.0000
  C   C29       1.0  0.6635223733709666  0.37842853407662597  0.2678123578319358  1.0000
  C   C30       1.0  0.16352292876646865  0.12157034623339771  0.7321880243634594  1.0000
  C   C31       1.0  0.33647763052700713  0.6215706970185552  0.7321881931088114  1.0000
  C   C32       1.0  0.836478467693368  0.8784288830953173  0.2678112660496126  1.0000
  C   C33       1.0  0.4984942381728034  0.33769514781469934  0.29352607112212337  1.0000
  C   C34       1.0  0.9984948476151275  0.1623037052067744  0.706472183821262  1.0000
  C   C35       1.0  0.5015043731697375  0.6623032566891353  0.7064717341762545  1.0000
  C   C36       1.0  0.0015051562859227  0.8376963462973562  0.2935267009172051  1.0000
  C   C37       1.0  0.4031497266342754  0.3998380673640511  0.38001111335643856  1.0000
  C   C38       1.0  0.90314919017365  0.10016079355376212  0.6199878391559395  1.0000
  C   C39       1.0  0.5968516698276716  0.6001611601982547  0.6199869165294487  1.0000
  C   C40       1.0  0.09684942116774663  0.899838434891855  0.3800108209945279  1.0000
  C   C41       1.0  0.7658630825589513  0.3104489292713453  0.1935567189801546  1.0000
  C   C42       1.0  0.2658662214565837  0.18955158962802438  0.8064440401476104  1.0000
  C   C43       1.0  0.2341355287782179  0.6895503027070975  0.8064444622246826  1.0000
  C   C44       1.0  0.7341351750011427  0.810447641467107  0.19355651079264655  1.0000
  C   C45       1.0  0.9577481145058118  0.33971463003739905  0.1717524145464964  1.0000
  C   C46       1.0  0.4577511599929097  0.1602842295139055  0.8282483902136519  1.0000
  C   C47       1.0  0.04225188939120271  0.6602837788824305  0.8282485420693604  1.0000
  C   C48       1.0  0.5422502364648168  0.8397150015812259  0.17175216072661215  1.0000
  S   S1        1.0  0.49203713219262113  0.1797073107449592  0.1452512048426229  1.0000
  S   S2        1.0  0.9920401396204996  0.3202923649267291  0.8547466489829745  1.0000
  S   S3        1.0  0.5079628717105394  0.8202927389927483  0.8547464193686592  1.0000
  S   S4        1.0  0.0079612568403888  0.6797068635187742  0.14525201116650524  1.0000
  N   N1        1.0  0.7047687599143729  0.21281718829690996  0.13835194298791723  1.0000
  N   N2        1.0  0.20476760396985585  0.28718744685642866  0.8616474611567709  1.0000
  N   N3        1.0  0.2952312439853557  0.787185333266123  0.8616482457796195  1.0000
  N   N4        1.0  0.7952310073691535  0.7128142525313023  0.13835313328635834  1.0000
  N   N5        1.0  0.41739856720702323  0.24168705513321245  0.24622066526399072  1.0000
  N   N6        1.0  0.9173962997078817  0.2583159191462059  0.753778769869413  1.0000
  N   N7        1.0  0.5826042218152807  0.758316286838664  0.7537778573002782  1.0000
  N   N8        1.0  0.08260370419299082  0.7416857784750518  0.246220564046034  1.0000
  O   O1        1.0  0.4805819286098157  0.060929651594968  0.12486173759818799  1.0000
  O   O2        1.0  0.9805849502363274  0.4390716763357005  0.8751403550723325  1.0000
  O   O3        1.0  0.519413897608743  0.9390712256175034  0.8751392625210244  1.0000
  O   O4        1.0  0.019416446223239296  0.5609300221687192  0.12485960910621695  1.0000
  O   O5        1.0  0.37945018584986207  0.21759533086446237  0.0834893551479752  1.0000
  O   O6        1.0  0.8794529599604177  0.28240847191426605  0.9165122221512049  1.0000
  O   O7        1.0  0.6205526031715606  0.7824063658734843  0.916509348502899  1.0000
  O   O8        1.0  0.12054565137859194  0.7175932274734649  0.08348837229192443  1.0000
  O   O9        1.0  0.3944826412699457  0.6962601560967131  0.31823745676862103  1.0000
  O   O10       1.0  0.8944848243691441  0.8037369496916326  0.6817606574137329  1.0000
  O   O11       1.0  0.6055187551870845  0.30373578364736176  0.6817628260812612  1.0000
  O   O12       1.0  0.1055151795320057  0.19626227875392738  0.3182380027362441  1.0000
  O   O13       1.0  0.4108341772444107  0.5214980270240729  0.22266765546817877  1.0000
  O   O14       1.0  0.9108361615001501  0.9785015440876137  0.7773292301461722  1.0000
  O   O15       1.0  0.5891713968933416  0.4785036723633952  0.7773329389724922  1.0000
  O   O16       1.0  0.0891638423985199  0.021500978358631108  0.22267158888496394  1.0000
  O   O17       1.0  0.6860321101814011  0.44266757445269883  0.04179031272776261  1.0000
  O   O18       1.0  0.18603047090505237  0.057330479376716405  0.9582085684628012  1.0000
  O   O19       1.0  0.3139720713968757  0.5573316557591211  0.9582096079479215  1.0000
  O   O20       1.0  0.8139695329969642  0.9426703943027663  0.04178991060056363  1.0000
