data_image0
_chemical_formula_structural       K2Zn3H26C18N2O28
_chemical_formula_sum              "K2 Zn3 H26 C18 N2 O28"
_cell_length_a       8.178136556536003
_cell_length_b       9.840070642042932
_cell_length_c       10.656727706977003
_cell_angle_alpha    104.98914907177877
_cell_angle_beta     94.25745303038369
_cell_angle_gamma    102.28609237319014

_space_group_name_H-M_alt    "P 1"
_space_group_IT_number       1

loop_
  _space_group_symop_operation_xyz
  'x, y, z'

loop_
  _atom_site_type_symbol
  _atom_site_label
  _atom_site_symmetry_multiplicity
  _atom_site_fract_x
  _atom_site_fract_y
  _atom_site_fract_z
  _atom_site_occupancy
  K   K1        1.0  0.09302782991489518  0.19759608343892407  0.9712466967603817  1.0000
  K   K2        1.0  0.9069751036240917  0.802401263649081  0.02875150401349906  1.0000
  Zn  Zn1       1.0  0.8669187327916106  0.7147445346332403  0.6494267260020055  1.0000
  Zn  Zn2       1.0  0.13307867572663673  0.2852549766109219  0.3505716832776784  1.0000
  Zn  Zn3       1.0  0.5000007335456617  0.5000002019699679  6.740977625348165e-07  1.0000
  H   H1        1.0  0.7954776047695233  0.43885991080473735  0.9622597745147345  1.0000
  H   H2        1.0  0.20452378985458353  0.5611406869751647  0.037740993908649  1.0000
  H   H3        1.0  0.796630515773991  0.5077635401744587  0.11625848939807781  1.0000
  H   H4        1.0  0.20337057183883897  0.4922359733189125  0.8837401259862929  1.0000
  H   H5        1.0  0.5138152019054019  0.7798374741835162  0.12395448121827006  1.0000
  H   H6        1.0  0.48618466114731274  0.22016203872717455  0.8760450039806359  1.0000
  H   H7        1.0  0.4922913420830143  0.7640350182828185  0.9713841012241887  1.0000
  H   H8        1.0  0.5077082175679166  0.23596341067545268  0.02861510796790158  1.0000
  H   H9        1.0  0.7227370330685972  0.0623045039238264  0.9937925196499864  1.0000
  H   H10       1.0  0.27726375294719924  0.937693925784174  0.00620675824367107  1.0000
  H   H11       1.0  0.7246752741244863  0.9716929271697196  0.8467523443393647  1.0000
  H   H12       1.0  0.27532642390140444  0.028308754562608795  0.15324870009083474  1.0000
  H   H13       1.0  0.578836830552632  0.10174153650333301  0.37636940478233794  1.0000
  H   H14       1.0  0.42116180793996705  0.898257975824677  0.623630950231096  1.0000
  H   H15       1.0  0.905853933498136  0.9801901305483792  0.6703529567841642  1.0000
  H   H16       1.0  0.094146232956362  0.0198104663147305  0.3296468044215572  1.0000
  H   H17       1.0  0.7354861604115258  0.8930363265351248  0.5703004268343295  1.0000
  H   H18       1.0  0.2645140060429796  0.10696427032798538  0.4296993343713923  1.0000
  H   H19       1.0  0.03819274015680211  0.1808223240482292  0.6434026409478691  1.0000
  H   H20       1.0  0.9618074262976962  0.8191782728148879  0.3565971202578524  1.0000
  H   H21       1.0  0.16814651843309747  0.0894016792806056  0.6543642001949337  1.0000
  H   H22       1.0  0.831854265777949  0.9105967502603388  0.3456341391826285  1.0000
  H   H23       1.0  0.7557750039989131  0.25921512097567495  0.7993334528206475  1.0000
  H   H24       1.0  0.24422608722341715  0.7407843928518075  0.2006670395959134  1.0000
  H   H25       1.0  0.9305371737138941  0.3751118354415865  0.8073661401210616  1.0000
  H   H26       1.0  0.06946299454535422  0.6248887615885863  0.19263455960075504  1.0000
  C   C1        1.0  0.8955369883941274  0.5616890199939775  0.3715766229013013  1.0000
  C   C2        1.0  0.10446501664304719  0.43831374602487466  0.6284265745678966  1.0000
  C   C3        1.0  0.7842682631068599  0.4524096680892029  0.4242830791168758  1.0000
  C   C4        1.0  0.21573190334764542  0.547590928773914  0.5757166820888457  1.0000
  C   C5        1.0  0.725327230028036  0.30431451270480636  0.35937823019481396  1.0000
  C   C6        1.0  0.27466925552713656  0.6956860817420462  0.6406203863901183  1.0000
  C   C7        1.0  0.7718802644041887  0.231470507982344  0.2282699591526978  1.0000
  C   C8        1.0  0.22811837047892425  0.7685290040115548  0.771728518828546  1.0000
  C   C9        1.0  0.6252831548905177  0.21763635533465475  0.42401101855546847  1.0000
  C   C10       1.0  0.3747167063574537  0.7823631574089802  0.5759875281273423  1.0000
  C   C11       1.0  0.5890114798420996  0.27660322913403224  0.5503306539815043  1.0000
  C   C12       1.0  0.4109886866124056  0.7233973677290775  0.4496691072242172  1.0000
  C   C13       1.0  0.4928835643952993  0.17609691188051363  0.6207178893154577  1.0000
  C   C14       1.0  0.5071162986574151  0.8239026010301771  0.3792815958834482  1.0000
  C   C15       1.0  0.6502991009542285  0.42663930733384337  0.60713174002953  1.0000
  C   C16       1.0  0.3497007602937429  0.5733602054097985  0.3928668066532808  1.0000
  C   C17       1.0  0.6201691504220717  0.5137410859361322  0.7394534619534667  1.0000
  C   C18       1.0  0.37983041103360904  0.4862573431891875  0.26054668575472567  1.0000
  N   N1        1.0  0.7451667845265249  0.5076195740027245  0.5435007687855916  1.0000
  N   N2        1.0  0.25483308033093977  0.4923799390750218  0.45649965492940947  1.0000
  O   O1        1.0  0.9519336349026517  0.689204972542484  0.4488757895643404  1.0000
  O   O2        1.0  0.04806714196491411  0.31079779255958334  0.5511264006872026  1.0000
  O   O3        1.0  0.9267119038399726  0.5185660029507062  0.2556360945881835  1.0000
  O   O4        1.0  0.07328856962580939  0.48143567819893457  0.7443658196565437  1.0000
  O   O5        1.0  0.9207624953595756  0.20869540952883628  0.22660764522334634  1.0000
  O   O6        1.0  0.07923583792649679  0.7913030186796918  0.773391495267184  1.0000
  O   O7        1.0  0.6595633199029081  0.1863993323968955  0.1305806328365904  1.0000
  O   O8        1.0  0.34043378882305575  0.8135990952289518  0.869419377468468  1.0000
  O   O9        1.0  0.3437179204643924  0.10669384313862906  0.5676322731417899  1.0000
  O   O10       1.0  0.6562816391865454  0.8933045858196423  0.4323669360503076  1.0000
  O   O11       1.0  0.5672242110080532  0.16008364856531185  0.7221902083791036  1.0000
  O   O12       1.0  0.4327756520446684  0.8399158643453786  0.2778092768198093  1.0000
  O   O13       1.0  0.5036794082930527  0.45350468121600324  0.7928380336106144  1.0000
  O   O14       1.0  0.4963204565644119  0.5464948318617431  0.20716239010438642  1.0000
  O   O15       1.0  0.7137630470993203  0.6412942368733993  0.7841566015852806  1.0000
  O   O16       1.0  0.28623681595339434  0.35870527603729124  0.21584288361362522  1.0000
  O   O17       1.0  0.8001535717378374  0.8981201466584777  0.6572524578164262  1.0000
  O   O18       1.0  0.1998453683518022  0.101880449454903  0.3427472346877281  1.0000
  O   O19       1.0  0.7560640510120108  0.5159676647395982  0.029492545311853687  1.0000
  O   O20       1.0  0.24393581384545365  0.48403184833814084  0.9705078784031472  1.0000
  O   O21       1.0  0.5526175673404409  0.7357115354664783  0.04064289349243208  1.0000
  O   O22       1.0  0.44738229571227356  0.2642879774442121  0.9593565917064738  1.0000
  O   O23       1.0  0.06436021856841728  0.11051157704959987  0.6892075394189378  1.0000
  O   O24       1.0  0.9356408708491628  0.8894879366108268  0.31079201448153526  1.0000
  O   O25       1.0  0.8572659545937286  0.3243307545578986  0.860031472224499  1.0000
  O   O26       1.0  0.1427351348238517  0.6756687591025283  0.13996808167597413  1.0000
  O   O27       1.0  0.7839842933971114  0.001155050163554  0.9359304317929259  1.0000
  O   O28       1.0  0.2160180241900704  0.9988444644136651  0.06407012932520222  1.0000
