data_image0
_chemical_formula_structural       Gd6H24C36N18O48
_chemical_formula_sum              "Gd6 H24 C36 N18 O48"
_cell_length_a       7.793143043026722
_cell_length_b       15.783247472651368
_cell_length_c       15.783355086214938
_cell_angle_alpha    120.00075791488331
_cell_angle_beta     89.99973209647743
_cell_angle_gamma    90.00025948867983

_space_group_name_H-M_alt    "P 1"
_space_group_IT_number       1

loop_
  _space_group_symop_operation_xyz
  'x, y, z'

loop_
  _atom_site_type_symbol
  _atom_site_label
  _atom_site_symmetry_multiplicity
  _atom_site_fract_x
  _atom_site_fract_y
  _atom_site_fract_z
  _atom_site_occupancy
  Gd  Gd1       1.0  0.2433352561680735  0.3719427406181667  0.18626530438523045  1.0000
  Gd  Gd2       1.0  0.7433473417325231  0.6280585362226606  0.8137231885496591  1.0000
  Gd  Gd3       1.0  0.24332576062845132  0.8137318541249245  0.18567514367798318  1.0000
  Gd  Gd4       1.0  0.2433467294704172  0.8143253618024675  0.628055345509857  1.0000
  Gd  Gd5       1.0  0.7433435674142503  0.18566347784014434  0.3719402339230413  1.0000
  Gd  Gd6       1.0  0.7433401558809863  0.18627673883307957  0.814332846835157  1.0000
  H   H1        1.0  0.2389386835801446  0.6207493294018323  0.24266505239938843  1.0000
  H   H2        1.0  0.7389464368404434  0.3792497463732617  0.7573324872337964  1.0000
  H   H3        1.0  0.23894636413616868  0.7573365761903618  0.378086904788411  1.0000
  H   H4        1.0  0.2389572786799405  0.621914773160363  0.37925181537055863  1.0000
  H   H5        1.0  0.738970186616086  0.37807771823592173  0.6207481342083696  1.0000
  H   H6        1.0  0.7389541543949606  0.24266176803553924  0.621918505574854  1.0000
  H   H7        1.0  0.6512238923014806  0.4876480095245412  0.9772941224423519  1.0000
  H   H8        1.0  0.1512069868673578  0.5123663041376005  0.022706800149670383  1.0000
  H   H9        1.0  0.651225267280253  0.0227114129589765  0.5103547938885455  1.0000
  H   H10       1.0  0.6512197254961548  0.4896413271102915  0.5123499319507161  1.0000
  H   H11       1.0  0.15121885273298832  0.5103495751752336  0.4876316819038351  1.0000
  H   H12       1.0  0.15122870901634394  0.9772868054939111  0.4896513861637857  1.0000
  H   H13       1.0  0.31206467050012077  0.17676367842972246  0.0473313555382191  1.0000
  H   H14       1.0  0.8120977599394266  0.8232347704736116  0.9526409951687996  1.0000
  H   H15       1.0  0.31206274306288867  0.952662176330023  0.1294222685168266  1.0000
  H   H16       1.0  0.31210649738452645  0.870580102398691  0.8232328979419209  1.0000
  H   H17       1.0  0.8121085431940286  0.12940078823005052  0.17676678749204913  1.0000
  H   H18       1.0  0.8120637582273389  0.04734578357150101  0.8705858831320654  1.0000
  H   H19       1.0  0.28247151903201473  0.17606695974544104  0.14421457193938642  1.0000
  H   H20       1.0  0.7824786016077142  0.82392559388385  0.8557567990039845  1.0000
  H   H21       1.0  0.28244826798079714  0.8557806397632249  0.03184456967827742  1.0000
  H   H22       1.0  0.2824552390774001  0.9681612204194965  0.8239390498239841  1.0000
  H   H23       1.0  0.7824384214723067  0.03182109090458601  0.1760639475630441  1.0000
  H   H24       1.0  0.782445392648846  0.14422654608386412  0.9681657964395286  1.0000
  C   C1        1.0  0.3386713689495622  0.5928282257700134  0.1869172154916754  1.0000
  C   C2        1.0  0.838683976976  0.40718343028580517  0.8130876552445159  1.0000
  C   C3        1.0  0.338679035226228  0.8130870988088079  0.40590588879197054  1.0000
  C   C4        1.0  0.33868314551322953  0.5940899582543794  0.4071762951925137  1.0000
  C   C5        1.0  0.8386978639458675  0.4058938968417822  0.5928127741863066  1.0000
  C   C6        1.0  0.8386929919846581  0.18691358321649434  0.5940979299178509  1.0000
  C   C7        1.0  0.5028252705910035  0.6137837814474097  0.0782769986105123  1.0000
  C   C8        1.0  0.0028421605813236006  0.3862200770018305  0.9217183993529902  1.0000
  C   C9        1.0  0.5028321960635509  0.921716975784648  0.5354997495330807  1.0000
  C   C10       1.0  0.5028295101843696  0.46448878333362137  0.3862129544208912  1.0000
  C   C11       1.0  0.0028392040947337995  0.5354989798601365  0.6137819987948773  1.0000
  C   C12       1.0  0.0028352350330393995  0.07828029829280331  0.4645050277950773  1.0000
  C   C13       1.0  0.5646242161304682  0.5187535795194266  0.039405361445176396  1.0000
  C   C14       1.0  0.0646159500285393  0.4812562203739859  0.9605966685771749  1.0000
  C   C15       1.0  0.5646241472333526  0.9605940733327786  0.4793416567430597  1.0000
  C   C16       1.0  0.5646336450045624  0.5206471418426164  0.48124320044426844  1.0000
  C   C17       1.0  0.06462191929229992  0.4793399782841093  0.5187398866397928  1.0000
  C   C18       1.0  0.0646250011118283  0.03940255773173361  0.5206620253267431  1.0000
  C   C19       1.0  0.5028232854943441  0.46296174269162554  0.07869018864861488  1.0000
  C   C20       1.0  0.0028261811700574  0.537059674291534  0.9213215916191048  1.0000
  C   C21       1.0  0.5028521704309554  0.9213108568345024  0.3842654287601732  1.0000
  C   C22       1.0  0.5028282022413962  0.6157249887238906  0.5370425440632971  1.0000
  C   C23       1.0  0.0028251139391599995  0.38426204279323883  0.4629406389093447  1.0000
  C   C24       1.0  0.0028306587891648994  0.07868056443563631  0.6157395900175756  1.0000
  C   C25       1.0  0.5438488102593341  0.3547128986365281  0.033466433805678285  1.0000
  C   C26       1.0  0.043839443088692996  0.6453019927470934  0.966547059215749  1.0000
  C   C27       1.0  0.5438438472583869  0.9665316276010288  0.3212541035186475  1.0000
  C   C28       1.0  0.543857632041046  0.6787509554920419  0.645291637208004  1.0000
  C   C29       1.0  0.0438267717880336  0.32124784053046795  0.3547024036531282  1.0000
  C   C30       1.0  0.043839273295255096  0.03345692604028021  0.6787500220045786  1.0000
  C   C31       1.0  0.5443533130875621  0.676666993999227  0.03296263360394388  1.0000
  C   C32       1.0  0.0443820145920384  0.3233435084915471  0.9670454958715098  1.0000
  C   C33       1.0  0.5443940633709232  0.9670418212655536  0.643699887618858  1.0000
  C   C34       1.0  0.544358126572959  0.3562939834913835  0.3233286005130367  1.0000
  C   C35       1.0  0.044384900273712405  0.6437135924784911  0.6766577911581848  1.0000
  C   C36       1.0  0.0443964410219024  0.032964291624679704  0.3563035126606664  1.0000
  N   N1        1.0  0.3900791162552437  0.5006461729300683  0.1532990266999334  1.0000
  N   N2        1.0  0.8900871231867383  0.49936409368250884  0.8467164371168889  1.0000
  N   N3        1.0  0.39009646878363924  0.846712002006271  0.3473453427944833  1.0000
  N   N4        1.0  0.3900884200056254  0.6526552661087949  0.49935830060844205  1.0000
  N   N5        1.0  0.8900957840176248  0.3473484159817419  0.5006361306926337  1.0000
  N   N6        1.0  0.8900992838290805  0.1532916801197288  0.6526541571420381  1.0000
  N   N7        1.0  0.38966791615226987  0.650992668960093  0.1527304291048778  1.0000
  N   N8        1.0  0.8896758053962729  0.34901467058057994  0.8472715340989581  1.0000
  N   N9        1.0  0.3896774278166077  0.8472585866522168  0.49826468149097286  1.0000
  N   N10       1.0  0.38967526020333315  0.5017402364768843  0.3490092579280669  1.0000
  N   N11       1.0  0.8896787267178041  0.49825027619673534  0.6509893603937016  1.0000
  N   N12       1.0  0.8896855413315308  0.15273704730294213  0.5017447340070618  1.0000
  N   N13       1.0  0.9045923996458285  0.45799013511436487  0.2290072888459562  1.0000
  N   N14       1.0  0.4045916570296272  0.5420157625928113  0.7709907516951731  1.0000
  N   N15       1.0  0.9045874364719212  0.7709981978439374  0.22897995490169615  1.0000
  N   N16       1.0  0.9045974771783349  0.7710269462422659  0.5420177626310545  1.0000
  N   N17       1.0  0.40460326075277214  0.22897383031732238  0.45799102245264584  1.0000
  N   N18       1.0  0.40459662015469894  0.22900769991761658  0.7710282229282583  1.0000
  O   O1        1.0  0.4691417248863132  0.3084113786366983  0.06884178512768806  1.0000
  O   O2        1.0  0.9691109238265625  0.6916085121031802  0.931166907065375  1.0000
  O   O3        1.0  0.46913865975923125  0.9311727892513915  0.2395730254593004  1.0000
  O   O4        1.0  0.4691241411305853  0.7604243220120853  0.6916003208433494  1.0000
  O   O5        1.0  0.96912594118416  0.2395655729142518  0.3083876711154829  1.0000
  O   O6        1.0  0.9691332365544412  0.06883320108292422  0.7604407544514089  1.0000
  O   O7        1.0  0.6464407781235054  0.3200085380654869  0.9621150168539714  1.0000
  O   O8        1.0  0.14641630010708437  0.6799969894836551  0.03788215708397039  1.0000
  O   O9        1.0  0.6464410964358791  0.0378628101317062  0.357881571423313  1.0000
  O   O10       1.0  0.6464461983586959  0.6421067113958331  0.6799940990727222  1.0000
  O   O11       1.0  0.1464095966305976  0.35788198927797055  0.31999972999211224  1.0000
  O   O12       1.0  0.1464377957234149  0.9621273538354628  0.6421256608449468  1.0000
  O   O13       1.0  0.47131495237395876  0.7587946331858718  0.06926488785634884  1.0000
  O   O14       1.0  0.9713171873578119  0.24120550733018584  0.9307256876528882  1.0000
  O   O15       1.0  0.4713281603803452  0.9307208791285079  0.6895137107216911  1.0000
  O   O16       1.0  0.47131204345541994  0.3104637180338372  0.24120859037273584  1.0000
  O   O17       1.0  0.9713188129777066  0.6895239853081563  0.7587947738664412  1.0000
  O   O18       1.0  0.9713399083179154  0.06928218789894912  0.31049099959130894  1.0000
  O   O19       1.0  0.6453682459062122  0.6394949329934506  0.9608240313847533  1.0000
  O   O20       1.0  0.14539083417854212  0.36051132460848834  0.03916463985821389  1.0000
  O   O21       1.0  0.6453745183171548  0.03917117199802082  0.6786647790847484  1.0000
  O   O22       1.0  0.6453555464141232  0.3213273159381418  0.36050195832768855  1.0000
  O   O23       1.0  0.1453919849917185  0.6786621147845083  0.6394840016306915  1.0000
  O   O24       1.0  0.14539482705318107  0.9608285013210534  0.3213484774481471  1.0000
  O   O25       1.0  0.9226875863600981  0.3647552127001675  0.1823837297408204  1.0000
  O   O26       1.0  0.4227090739433592  0.6352565638131156  0.817619109890046  1.0000
  O   O27       1.0  0.9226909712536937  0.8176207904661085  0.18236712183248474  1.0000
  O   O28       1.0  0.9227054708961332  0.8176363885623206  0.6352551837767493  1.0000
  O   O29       1.0  0.42270658746404877  0.18236148754942866  0.364754010735858  1.0000
  O   O30       1.0  0.42271082171671276  0.1823807436195893  0.8176362987472247  1.0000
  O   O31       1.0  0.045937668243937003  0.508614354268943  0.2550371537242881  1.0000
  O   O32       1.0  0.5459427319337992  0.49138663961568346  0.7449655842637384  1.0000
  O   O33       1.0  0.0459285066824293  0.7449621776227034  0.25357522250863707  1.0000
  O   O34       1.0  0.0459504650453013  0.7464230001331916  0.49138704465495664  1.0000
  O   O35       1.0  0.5459453332639157  0.25357433575398153  0.508616398617562  1.0000
  O   O36       1.0  0.5459390617077703  0.255035889821457  0.7464235179465248  1.0000
  O   O37       1.0  0.7630103350222867  0.49796196931146147  0.24838655883211663  1.0000
  O   O38       1.0  0.26300555860316166  0.5020546994674788  0.7516184556245733  1.0000
  O   O39       1.0  0.7630050905912212  0.7516129364870852  0.2495623386828428  1.0000
  O   O40       1.0  0.7630000192167614  0.7504400689135625  0.5020602398702821  1.0000
  O   O41       1.0  0.2630210070223383  0.24956708910338676  0.4979571257903359  1.0000
  O   O42       1.0  0.2630056702313226  0.24838178419643245  0.7504393045898752  1.0000
  O   O43       1.0  0.2258155948014178  0.19095185409818072  0.09787010018880692  1.0000
  O   O44       1.0  0.725836207664919  0.8090486659841077  0.9021104511506194  1.0000
  O   O45       1.0  0.22580480330004352  0.9021286747581104  0.0930791867327728  1.0000
  O   O46       1.0  0.22583345588894588  0.9069208532225802  0.8090472790322353  1.0000
  O   O47       1.0  0.72582989501354  0.09306430333494832  0.1909553686759438  1.0000
  O   O48       1.0  0.7258097868930167  0.09788428268475262  0.9069284914813167  1.0000
