data_image0
_chemical_formula_structural       Cu4H20C28N4Cl4
_chemical_formula_sum              "Cu4 H20 C28 N4 Cl4"
_cell_length_a       3.7592495501056042
_cell_length_b       10.843301433296782
_cell_length_c       16.931746197612394
_cell_angle_alpha    89.99645633996347
_cell_angle_beta     89.99909604731451
_cell_angle_gamma    98.59643936099434

_space_group_name_H-M_alt    "P 1"
_space_group_IT_number       1

loop_
  _space_group_symop_operation_xyz
  'x, y, z'

loop_
  _atom_site_type_symbol
  _atom_site_label
  _atom_site_symmetry_multiplicity
  _atom_site_fract_x
  _atom_site_fract_y
  _atom_site_fract_z
  _atom_site_occupancy
  Cu  Cu1       1.0  0.689916961379076  0.9017936427405928  0.9524800267532855  1.0000
  Cu  Cu2       1.0  0.8100369692620362  0.5982186680587702  0.4524700007963602  1.0000
  Cu  Cu3       1.0  0.3100916661543279  0.09823875372717342  0.047526587153456  1.0000
  Cu  Cu4       1.0  0.18986552089848624  0.40173512499992375  0.5475212590687805  1.0000
  H   H1        1.0  0.6910027458704348  0.4279462894369813  0.9749784281320758  1.0000
  H   H2        1.0  0.8090129941737416  0.07204084344177632  0.47497770009043455  1.0000
  H   H3        1.0  0.3091551358698013  0.5720735905194659  0.0250163736252276  1.0000
  H   H4        1.0  0.1908728301751594  0.927897988917536  0.5250306876870213  1.0000
  H   H5        1.0  0.8584237297025793  0.22897147432740897  0.9258323464653273  1.0000
  H   H6        1.0  0.641474366321262  0.27101845218982856  0.4258462633649529  1.0000
  H   H7        1.0  0.14156950141153857  0.7710226842646934  0.0741512345631321  1.0000
  H   H8        1.0  0.3585033591202134  0.7289570229070321  0.5741827947605742  1.0000
  H   H9        1.0  0.13505753800538395  0.21935462729135222  0.79387518625375  1.0000
  H   H10       1.0  0.3648871874700531  0.28068600436864705  0.2938985658253159  1.0000
  H   H11       1.0  0.8649321738177491  0.7806572156037107  0.20608890441856428  1.0000
  H   H12       1.0  0.6351262268110885  0.7193054288772417  0.7061210422196921  1.0000
  H   H13       1.0  0.23542300657229012  0.40931640357607785  0.707799832199413  1.0000
  H   H14       1.0  0.2645995092519513  0.09077621979292871  0.20780325377020153  1.0000
  H   H15       1.0  0.7646004090330789  0.5907262903206743  0.292189063283196  1.0000
  H   H16       1.0  0.7353936152235291  0.9092374955337023  0.7922033605301237  1.0000
  H   H17       1.0  0.06981936187381885  0.6084242704027362  0.7562543077876782  1.0000
  H   H18       1.0  0.4301858900349627  0.8916519097784389  0.2562435769084104  1.0000
  H   H19       1.0  0.9303151891259557  0.3916169484083696  0.24375171511687196  1.0000
  H   H20       1.0  0.569730835930464  0.10834384352376256  0.743750635141808  1.0000
  C   C1        1.0  0.8741808956094484  0.5312740609647973  0.8690555211166711  1.0000
  C   C2        1.0  0.6258016163342147  0.9687544037817872  0.369048159053925  1.0000
  C   C3        1.0  0.12595413615748194  0.46874853248792203  0.1309522739717082  1.0000
  C   C4        1.0  0.3741233121893258  0.03120226157336251  0.6309466443544594  1.0000
  C   C5        1.0  0.8122190675363681  0.42370603585947475  0.9168697007637974  1.0000
  C   C6        1.0  0.6877891780590984  0.07630475897855152  0.4168704160810606  1.0000
  C   C7        1.0  0.1878665458789115  0.5763061405092387  0.08312864491156091  1.0000
  C   C8        1.0  0.3121867064793164  0.9236595350981601  0.5831279307268958  1.0000
  C   C9        1.0  0.9047957304018794  0.3122265586680939  0.8890736441141699  1.0000
  C   C10       1.0  0.5951818304546704  0.18778885787146754  0.3890797665419399  1.0000
  C   C11       1.0  0.09525029905638151  0.6877864109497693  0.11091938615681582  1.0000
  C   C12       1.0  0.40476163982040697  0.8121874298331165  0.6109298016124924  1.0000
  C   C13       1.0  0.05792421246121649  0.30697240879927534  0.8141284565785014  1.0000
  C   C14       1.0  0.44202351229997555  0.19306614490066923  0.3141473200989324  1.0000
  C   C15       1.0  0.9421011869791297  0.6930553911441918  0.1858474458486867  1.0000
  C   C16       1.0  0.5578921211552483  0.8069202902559597  0.6858634291189176  1.0000
  C   C17       1.0  0.11612047840895198  0.4130110395026494  0.7662700180781314  1.0000
  C   C18       1.0  0.3838482534473754  0.08705115077762568  0.26627611615863606  1.0000
  C   C19       1.0  0.8839151306411566  0.5870289031284415  0.2337159244041445  1.0000
  C   C20       1.0  0.6160882812509525  0.912940945527069  0.7337346329112862  1.0000
  C   C21       1.0  0.024812722989963662  0.5253360037020656  0.7932002267266824  1.0000
  C   C22       1.0  0.4751488012668119  0.9747175862990858  0.2931937579294512  1.0000
  C   C23       1.0  0.9753047176903632  0.4747023614985579  0.2068010714117605  1.0000
  C   C24       1.0  0.5247558364663049  0.025261360250198102  0.7068051793238723  1.0000
  C   C25       1.0  0.7847301873059749  0.6456674603763305  0.8971397311139812  1.0000
  C   C26       1.0  0.7152373485685786  0.8543487430693091  0.3971170471458976  1.0000
  C   C27       1.0  0.2153797408876414  0.35435225036690104  0.10288578227144281  1.0000
  C   C28       1.0  0.28464556633079496  0.14563571538484874  0.6028866148901173  1.0000
  N   N1        1.0  0.7139244794516911  0.7407151320075871  0.9206157844968459  1.0000
  N   N2        1.0  0.7860533709019247  0.759284715732811  0.4206030729420007  1.0000
  N   N3        1.0  0.28616950070076536  0.25929800425539185  0.07939614509527358  1.0000
  N   N4        1.0  0.21387719128203025  0.2406859398309891  0.5793858241168194  1.0000
  Cl  Cl1       1.0  0.2665320242597673  0.026601895962798498  0.9135509720966438  1.0000
  Cl  Cl2       1.0  0.23344009796651477  0.4734162462856659  0.4135442274958976  1.0000
  Cl  Cl3       1.0  0.7335056017265982  0.9734166316022623  0.0864568232437222  1.0000
  Cl  Cl4       1.0  0.7664665233978311  0.5265478061268921  0.586445260341229  1.0000
