data_image0
_chemical_formula_structural       AlH12C33O6F3
_chemical_formula_sum              "Al1 H12 C33 O6 F3"
_cell_length_a       3.968535864099347
_cell_length_b       20.47644000901133
_cell_length_c       20.478254915465328
_cell_angle_alpha    60.02023545682052
_cell_angle_beta     87.65369336762444
_cell_angle_gamma    87.82103210026064

_space_group_name_H-M_alt    "P 1"
_space_group_IT_number       1

loop_
  _space_group_symop_operation_xyz
  'x, y, z'

loop_
  _atom_site_type_symbol
  _atom_site_label
  _atom_site_symmetry_multiplicity
  _atom_site_fract_x
  _atom_site_fract_y
  _atom_site_fract_z
  _atom_site_occupancy
  Al  Al1       1.0  0.031390420574055604  0.49982749166595386  0.49944352348796195  1.0000
  H   H1        1.0  0.7997684061481892  0.30560443021394684  0.7062071916964784  1.0000
  H   H2        1.0  0.780635596458353  0.23274815541944338  0.8471212919573863  1.0000
  H   H3        1.0  0.22666896723974617  0.7088506385738639  0.3082471982668481  1.0000
  H   H4        1.0  0.2277397392412226  0.8497582594137253  0.23675808521650066  1.0000
  H   H5        1.0  0.25918084017770576  0.30949688119461155  0.4840435859325682  1.0000
  H   H6        1.0  0.2715586997532072  0.2373174414924364  0.4152295484496663  1.0000
  H   H7        1.0  0.793866820184043  0.7070746357611383  0.48343100639311853  1.0000
  H   H8        1.0  0.7744816848250408  0.8479662680809097  0.4155800434212794  1.0000
  H   H9        1.0  0.22259269875817014  0.4860945021977795  0.7090345176838899  1.0000
  H   H10       1.0  0.22857553303783362  0.4170443628133355  0.849923256680427  1.0000
  H   H11       1.0  0.870848902969648  0.4803222771151355  0.3079131462043776  1.0000
  H   H12       1.0  0.8635805765357604  0.41184723641477905  0.23549385592563976  1.0000
  C   C1        1.0  0.5187762138264773  0.4421222352540467  0.6156203103940143  1.0000
  C   C2        1.0  0.5542813514950282  0.44133405175190876  0.4416415193691635  1.0000
  C   C3        1.0  0.5200276561539141  0.6159720736953033  0.44122557769237863  1.0000
  C   C4        1.0  0.6705696896037097  0.32875196923829003  0.7383643340339675  1.0000
  C   C5        1.0  0.6615650562221731  0.28850964384439226  0.816592665778238  1.0000
  C   C6        1.0  0.3506800070480338  0.7399691433407368  0.3304606163045706  1.0000
  C   C7        1.0  0.3502256358419443  0.8182109119865257  0.29091386824101334  1.0000
  C   C8        1.0  0.395929271166132  0.33047254389543207  0.43030354778215263  1.0000
  C   C9        1.0  0.4020581496299798  0.2905640824009552  0.39194367434430444  1.0000
  C   C10       1.0  0.6654940615215706  0.7390203941730106  0.4300890393827573  1.0000
  C   C11       1.0  0.6555843936113278  0.8172381184747407  0.39226317998863197  1.0000
  C   C12       1.0  0.3485318729342596  0.43116017765555614  0.7399013884995612  1.0000
  C   C13       1.0  0.35014407660604985  0.3926167598395479  0.8181424985393237  1.0000
  C   C14       1.0  0.7355840549590269  0.4277857479454567  0.33011698777929166  1.0000
  C   C15       1.0  0.7327539157269314  0.3895823660100105  0.2900590609022943  1.0000
  C   C16       1.0  0.5118312237739391  0.3999761937271485  0.6994198930303741  1.0000
  C   C17       1.0  0.504476801675601  0.3203520127756859  0.8576481563225332  1.0000
  C   C18       1.0  0.5039475957749673  0.2804094432855351  0.9373731528398185  1.0000
  C   C19       1.0  0.506534253265599  0.24599839872696794  0.006064254289199836  1.0000
  C   C20       1.0  0.5116006422350168  0.20656941914062796  0.08545169463069871  1.0000
  C   C21       1.0  0.5114552594629983  0.6997522827371225  0.39986225558419636  1.0000
  C   C22       1.0  0.5009910729906154  0.8580148086848138  0.32156242140066393  1.0000
  C   C23       1.0  0.49975009889077876  0.937723046912509  0.28172324802216075  1.0000
  C   C24       1.0  0.502524461270113  0.006420251883397999  0.2472151084159863  1.0000
  C   C25       1.0  0.5089582952098225  0.0857948869414855  0.2070870548811286  1.0000
  C   C26       1.0  0.5636917697131949  0.39912080912761627  0.39998828465930103  1.0000
  C   C27       1.0  0.5666967881146475  0.3201842229982006  0.3206153956249197  1.0000
  C   C28       1.0  0.5607025331684383  0.28100577306871327  0.28013086412509136  1.0000
  C   C29       1.0  0.5489243350871718  0.24707533656716396  0.24549005821050696  1.0000
  C   C30       1.0  0.5339287809779306  0.20723977658508366  0.20608241500958974  1.0000
  C   C31       1.0  0.5027229582742622  0.1273901986947408  0.12785060728173653  1.0000
  C   C32       1.0  0.5242083340953912  0.12804364322371237  0.2438816882678553  1.0000
  C   C33       1.0  0.5272944117324344  0.24419176794128816  0.1268899597489437  1.0000
  O   O1        1.0  0.295414044321454  0.5824779428783841  0.4264441328780821  1.0000
  O   O2        1.0  0.2811349351333874  0.49015462557763817  0.5824720815970821  1.0000
  O   O3        1.0  0.3140145730108443  0.42711709047870267  0.49010774223378223  1.0000
  O   O4        1.0  0.7518850218336511  0.5825749607126268  0.4891424864672231  1.0000
  O   O5        1.0  0.7849618696666097  0.4890499850278472  0.4265918217946807  1.0000
  O   O6        1.0  0.7630548132428885  0.4274351206074129  0.5820266117427552  1.0000
  F   F1        1.0  0.5304602433367976  0.09042286845544109  0.31976586558369763  1.0000
  F   F2        1.0  0.5366392371478313  0.3200672479193684  0.08849593271334308  1.0000
  F   F3        1.0  0.4880534404997904  0.08908580061483207  0.09038548352479131  1.0000
