data_image0
_chemical_formula_structural       CdH28C32S2N6O6
_chemical_formula_sum              "Cd1 H28 C32 S2 N6 O6"
_cell_length_a       8.715418659376992
_cell_length_b       8.907230960321684
_cell_length_c       11.158140045398685
_cell_angle_alpha    64.96223037308548
_cell_angle_beta     85.01509523992253
_cell_angle_gamma    74.54210165920205

_space_group_name_H-M_alt    "P 1"
_space_group_IT_number       1

loop_
  _space_group_symop_operation_xyz
  'x, y, z'

loop_
  _atom_site_type_symbol
  _atom_site_label
  _atom_site_symmetry_multiplicity
  _atom_site_fract_x
  _atom_site_fract_y
  _atom_site_fract_z
  _atom_site_occupancy
  Cd  Cd1       1.0  0.49999915837108944  2.4022607690001962e-06  0.9999984823932667  1.0000
  H   H1        1.0  0.4482806184020518  0.2419253531246213  0.6886649807792582  1.0000
  H   H2        1.0  0.5517143678019351  0.7580797001085102  0.3113288640102  1.0000
  H   H3        1.0  0.2535610136954461  0.503324220705764  0.5271769173954511  1.0000
  H   H4        1.0  0.7464320265572937  0.49667950962049184  0.47281931826042023  1.0000
  H   H5        1.0  0.9944759413930697  0.6168299938323611  0.6112583815144036  1.0000
  H   H6        1.0  0.005520934210771575  0.3831725231076746  0.38874335195926346  1.0000
  H   H7        1.0  0.12442334170851409  0.18767068072521906  0.9891580355357522  1.0000
  H   H8        1.0  0.8755785238972392  0.812325491942957  0.010840994061624112  1.0000
  H   H9        1.0  0.8988085534524047  0.40291682837114  0.9771850889241733  1.0000
  H   H10       1.0  0.1011900888631132  0.5970831465706112  0.022815581941593183  1.0000
  H   H11       1.0  0.9057140694928877  0.6119006584023268  0.8616724883270384  1.0000
  H   H12       1.0  0.09428519308890054  0.3880967530934144  0.13832721464392964  1.0000
  H   H13       1.0  0.4584886255099435  0.5480728918248873  0.717427490432584  1.0000
  H   H14       1.0  0.5415108531178632  0.4519283862875767  0.28257356966749114  1.0000
  H   H15       1.0  0.20784515630528944  0.7262402202183579  0.764691280225847  1.0000
  H   H16       1.0  0.7921524819979311  0.27376359646927995  0.23530547170686594  1.0000
  H   H17       1.0  0.2199933594204281  0.8864212796707138  0.9002807258848692  1.0000
  H   H18       1.0  0.7800024999022952  0.1135850784447001  0.09971619352652543  1.0000
  H   H19       1.0  0.7087233540861249  0.686379938958659  0.9571286393457047  1.0000
  H   H20       1.0  0.2912751327982051  0.313625181470222  0.04286939695052182  1.0000
  H   H21       1.0  0.6289054933079256  0.9512498359406791  0.6626099517418567  1.0000
  H   H22       1.0  0.3711024890002008  0.04873615641492529  0.3373992442043986  1.0000
  H   H23       1.0  0.0983583623520019  0.142195756495795  0.6507984236397136  1.0000
  H   H24       1.0  0.9016434214354522  0.8578055650826285  0.34920334216338494  1.0000
  H   H25       1.0  0.33821000472532603  0.15390593979034148  0.515195346850206  1.0000
  H   H26       1.0  0.6617935580426249  0.8460928403603063  0.48480625147420403  1.0000
  H   H27       1.0  0.7482209027755005  0.4291205765788887  0.7634767727702113  1.0000
  H   H28       1.0  0.2517765808257907  0.5708793763446207  0.23652309767944515  1.0000
  C   C1        1.0  0.32995293871383785  0.29216314592908077  0.7178377267265649  1.0000
  C   C2        1.0  0.6700433493667646  0.7078367832646392  0.2821586579193396  1.0000
  C   C3        1.0  0.22319213924961187  0.4371740783670433  0.629866725184698  1.0000
  C   C4        1.0  0.7768045080393906  0.5628245713857468  0.3701327560306496  1.0000
  C   C5        1.0  0.07826881530994706  0.500588010203515  0.676714827732262  1.0000
  C   C6        1.0  0.9217268770420263  0.4994144835772473  0.32328431506686445  1.0000
  C   C7        1.0  0.04203461312995668  0.41512807270671453  0.8089714837369543  1.0000
  C   C8        1.0  0.9579651510933475  0.5848719225417156  0.19102730215730185  1.0000
  C   C9        1.0  0.15195690703130543  0.2650518197331095  0.8877848243311208  1.0000
  C   C10       1.0  0.8480397034512491  0.7349468283081323  0.11221197149659182  1.0000
  C   C11       1.0  0.896440090683022  0.4864592729086326  0.8700854414700391  1.0000
  C   C12       1.0  0.10356151386486086  0.5135381837646165  0.1299176525915797  1.0000
  C   C13       1.0  0.6076798410090943  0.6019262501659954  0.8324188752330387  1.0000
  C   C14       1.0  0.3923196008122574  0.3980750262349204  0.16757949947940892  1.0000
  C   C15       1.0  0.4608950406546626  0.6151519228521636  0.7791244959891729  1.0000
  C   C16       1.0  0.539106551624407  0.3848455332505694  0.2208777029432412  1.0000
  C   C17       1.0  0.3217952871260578  0.7144387851384478  0.8054460847740404  1.0000
  C   C18       1.0  0.6782048240368255  0.28555993009852904  0.19455490256044783  1.0000
  C   C19       1.0  0.32714122636101467  0.8037311543915279  0.8816614260296166  1.0000
  C   C20       1.0  0.6728559218402453  0.1962790883652161  0.11833138502252895  1.0000
  C   C21       1.0  0.6009786455282367  0.6921976089127424  0.9114551066580037  1.0000
  C   C22       1.0  0.3990165451822137  0.30780230111533763  0.08854495321783422  1.0000
  C   C23       1.0  0.734053090589299  0.9573786125625716  0.602306448761212  1.0000
  C   C24       1.0  0.26595158181761763  0.0426201873242391  0.39769236946246894  1.0000
  C   C25       1.0  0.8492243871951433  0.0225980919596438  0.6263389223843207  1.0000
  C   C26       1.0  0.15078551579734523  0.977398231413076  0.3736603393506003  1.0000
  C   C27       1.0  0.9908205701979185  0.030705758910436  0.5511934196623332  1.0000
  C   C28       1.0  0.009187746780973767  0.9692789528631991  0.4488170825949356  1.0000
  C   C29       1.0  0.11224653826357674  0.09663798992369979  0.5731715419671134  1.0000
  C   C30       1.0  0.88776016597631  0.9033621368636275  0.42683115129462856  1.0000
  C   C31       1.0  0.24621202767925612  0.1024900453007191  0.497830849224279  1.0000
  C   C32       1.0  0.7537900785101428  0.8975099951252118  0.5021713277606281  1.0000
  S   S1        1.0  0.813693683220535  0.10233646298938481  0.7518901493530382  1.0000
  S   S2        1.0  0.18631279270451978  0.8976597966106966  0.2481102916503773  1.0000
  N   N1        1.0  0.29473483203688033  0.20676523429450805  0.8446478307967313  1.0000
  N   N2        1.0  0.7052628185351608  0.793238582963653  0.1553498162651863  1.0000
  N   N3        1.0  0.7490203585324055  0.511733807515931  0.8055182820099703  1.0000
  N   N4        1.0  0.25097863072269894  0.48826488741436685  0.19448459029602821  1.0000
  N   N5        1.0  0.4662935241268897  0.7921264665170256  0.9324751221021403  1.0000
  N   N6        1.0  0.5337033024016833  0.2078760481409319  0.06752303085468013  1.0000
  O   O1        1.0  0.6697098759357092  0.0503241389764852  0.8172011901311368  1.0000
  O   O2        1.0  0.330290247495995  0.9496745768310151  0.18280069233255591  1.0000
  O   O3        1.0  0.7834103238783499  0.2896416561593327  0.6790503114050213  1.0000
  O   O4        1.0  0.2165977387895595  0.7103572057885543  0.32094464216253027  1.0000
  O   O5        1.0  0.9537517906018068  0.022408823967609206  0.8408843762106886  1.0000
  O   O6        1.0  0.04624942199464499  0.9775950633388886  0.15912193800405572  1.0000
