data_image0
_chemical_formula_structural       AlH27C45O6
_chemical_formula_sum              "Al1 H27 C45 O6"
_cell_length_a       3.9730763234969593
_cell_length_b       23.562168270820436
_cell_length_c       23.571158039330207
_cell_angle_alpha    60.00854915795699
_cell_angle_beta     87.1826114683365
_cell_angle_gamma    87.36830299883994

_space_group_name_H-M_alt    "P 1"
_space_group_IT_number       1

loop_
  _space_group_symop_operation_xyz
  'x, y, z'

loop_
  _atom_site_type_symbol
  _atom_site_label
  _atom_site_symmetry_multiplicity
  _atom_site_fract_x
  _atom_site_fract_y
  _atom_site_fract_z
  _atom_site_occupancy
  Al  Al1       1.0  0.027845504855953603  0.49969276723030726  0.4998693625657396  1.0000
  H   H1        1.0  0.8379457024640972  0.3350171064769469  0.6791648330504785  1.0000
  H   H2        1.0  0.8328073999636629  0.27323419439444757  0.7993647934441839  1.0000
  H   H3        1.0  0.8185877232033788  0.22410710446370527  0.8940543490985745  1.0000
  H   H4        1.0  0.8261210242565227  0.1655377685380799  0.012996263677017311  1.0000
  H   H5        1.0  0.2174994916892103  0.6824934022361973  0.3345775183687323  1.0000
  H   H6        1.0  0.218261686631152  0.803015014126025  0.2736435742654635  1.0000
  H   H7        1.0  0.30853013052631445  0.8969071335740892  0.21827789640791206  1.0000
  H   H8        1.0  0.299151080527821  0.0158014561114399  0.1599890451867338  1.0000
  H   H9        1.0  0.5264810940766012  0.10623943771739873  0.10527925457690658  1.0000
  H   H10       1.0  0.806233435723719  0.6796425695874858  0.4839906607412914  1.0000
  H   H11       1.0  0.8027278598739682  0.8000577827915906  0.42502722665524567  1.0000
  H   H12       1.0  0.7165484844313852  0.8946535881490121  0.3858213212443928  1.0000
  H   H13       1.0  0.7335038833451362  0.013263032165283996  0.3253101458658207  1.0000
  H   H14       1.0  0.24505058438082733  0.3367292878970076  0.48506110529253726  1.0000
  H   H15       1.0  0.24496642962779447  0.27511548073673  0.4264935124377942  1.0000
  H   H16       1.0  0.2832328720067849  0.2232556446055725  0.3838880720407829  1.0000
  H   H17       1.0  0.2557238725940961  0.1655605983014183  0.3231733367006128  1.0000
  H   H18       1.0  0.515647601457431  0.1066582146023052  0.28756685699170964  1.0000
  H   H19       1.0  0.8786728012742272  0.48088807730110983  0.33317524292905176  1.0000
  H   H20       1.0  0.8712283144455314  0.4215227457619548  0.2721635491363302  1.0000
  H   H21       1.0  0.8067455201362675  0.3803963259128905  0.21913345794374814  1.0000
  H   H22       1.0  0.7971706720627268  0.3202768341723399  0.1603496047299444  1.0000
  H   H23       1.0  0.1808594391010416  0.4828021918835218  0.6834241744059142  1.0000
  H   H24       1.0  0.18788581853080188  0.4238938602290146  0.803704829916896  1.0000
  H   H25       1.0  0.2102231162247818  0.3789077221178019  0.8980534235141704  1.0000
  H   H26       1.0  0.2098626388985281  0.3188549323387448  0.016949146843721497  1.0000
  H   H27       1.0  0.5151770919738042  0.2884951200123922  0.10502342237092681  1.0000
  C   C1        1.0  0.5137786160861495  0.4493477620027093  0.6007003910919693  1.0000
  C   C2        1.0  0.5537179800582452  0.44941161868704427  0.44918635735342594  1.0000
  C   C3        1.0  0.5162667773470487  0.6005459816915958  0.44943449875648883  1.0000
  C   C4        1.0  0.6914211553520745  0.35347400294545384  0.7070957472337939  1.0000
  C   C5        1.0  0.6869572832848546  0.3189938795418144  0.7750892230274289  1.0000
  C   C6        1.0  0.6805706563157088  0.24568540302213648  0.9200031607892144  1.0000
  C   C7        1.0  0.6830976704915556  0.21174709869990946  0.9880551361232648  1.0000
  C   C8        1.0  0.3494126561371119  0.7088697547226416  0.35341594162696316  1.0000
  C   C9        1.0  0.3524116684223059  0.7769227393075298  0.3193090286721869  1.0000
  C   C10       1.0  0.4000552734991203  0.9215608579052627  0.24297520050982518  1.0000
  C   C11       1.0  0.3993404199915815  0.9896331541409111  0.2091291638009309  1.0000
  C   C12       1.0  0.5096667951076838  0.41288751106726806  0.6734244294492556  1.0000
  C   C13       1.0  0.5107910780835638  0.34324633391604925  0.8122555585426382  1.0000
  C   C14       1.0  0.5136683846303143  0.30706621026543257  0.884811211872794  1.0000
  C   C15       1.0  0.5178595005810678  0.23719783656440535  0.02489261156625129  1.0000
  C   C16       1.0  0.5192549263582932  0.2012516879083961  0.09715928590061644  1.0000
  C   C17       1.0  0.5228910248962393  0.1325965512289287  0.1323177430282527  1.0000
  C   C18       1.0  0.6737086041657817  0.707346477643675  0.438228768526102  1.0000
  C   C19       1.0  0.6689758896053205  0.7753697774862686  0.4046295564861709  1.0000
  C   C20       1.0  0.6264368457037719  0.920319467345081  0.3359475058370974  1.0000
  C   C21       1.0  0.6318150525295181  0.9883449741829724  0.3016878506435318  1.0000
  C   C22       1.0  0.3863693294524708  0.3542533906651499  0.4387742133276689  1.0000
  C   C23       1.0  0.3886197014600866  0.31977362757336886  0.405273019990979  1.0000
  C   C24       1.0  0.39780079030929016  0.24560634086051877  0.3347729626700797  1.0000
  C   C25       1.0  0.3853335170281015  0.21204004592983244  0.3004669519606367  1.0000
  C   C26       1.0  0.5124226940323949  0.673287686340366  0.4131207934211575  1.0000
  C   C27       1.0  0.5107267066764223  0.8121126224954478  0.34398720257077314  1.0000
  C   C28       1.0  0.5121686034574253  0.8846329668644158  0.3076453832658076  1.0000
  C   C29       1.0  0.5168690484911452  0.02501550899484071  0.23735651353973  1.0000
  C   C30       1.0  0.5189959900678361  0.09744557672489408  0.20102691434839673  1.0000
  C   C31       1.0  0.5167847999694504  0.13297975667292405  0.23422581404641113  1.0000
  C   C32       1.0  0.7358003697997902  0.4362111892304554  0.35264210822815306  1.0000
  C   C33       1.0  0.7299943531742484  0.4022512580673379  0.3185861863453426  1.0000
  C   C34       1.0  0.6849506372099226  0.33315216380436397  0.24305618908266527  1.0000
  C   C35       1.0  0.6761586639018164  0.29927527304545987  0.20896354664986916  1.0000
  C   C36       1.0  0.32741514010377404  0.43723711636634033  0.7094344563081164  1.0000
  C   C37       1.0  0.3327052216874193  0.4034587773910373  0.7774342933637258  1.0000
  C   C38       1.0  0.3496544509485772  0.33233209699526606  0.922149029208093  1.0000
  C   C39       1.0  0.35102204488882177  0.2983882123446763  0.9901726330373392  1.0000
  C   C40       1.0  0.560712564638898  0.4128761517518171  0.412926841516196  1.0000
  C   C41       1.0  0.556689595081906  0.3431278197326648  0.34383435290325787  1.0000
  C   C42       1.0  0.5472880237177192  0.3072964131445701  0.30720324389876913  1.0000
  C   C43       1.0  0.5255119547932735  0.23783004467949095  0.2367009385539092  1.0000
  C   C44       1.0  0.5184000362716574  0.2016503838324013  0.20062119542029683  1.0000
  C   C45       1.0  0.5167721539889597  0.23509478915963197  0.13197678962021092  1.0000
  O   O1        1.0  0.2914336790681347  0.5718836111052709  0.4365898590634388  1.0000
  O   O2        1.0  0.27404813231737535  0.4907890437966031  0.5723034951613856  1.0000
  O   O3        1.0  0.3135892190424059  0.4369839782866124  0.4916358498865846  1.0000
  O   O4        1.0  0.7452284639256703  0.5711074269618236  0.4915009211149767  1.0000
  O   O5        1.0  0.7845934867275092  0.49053640510806656  0.4361355714268598  1.0000
  O   O6        1.0  0.758645184463667  0.4366910467181313  0.5711432778458558  1.0000
