data_image0
_chemical_formula_structural       Er2H28C30N4O16
_chemical_formula_sum              "Er2 H28 C30 N4 O16"
_cell_length_a       8.57632509794772
_cell_length_b       10.227302854536772
_cell_length_c       10.824004769226244
_cell_angle_alpha    66.00224770664579
_cell_angle_beta     68.78721615743123
_cell_angle_gamma    78.61205543123543

_space_group_name_H-M_alt    "P 1"
_space_group_IT_number       1

loop_
  _space_group_symop_operation_xyz
  'x, y, z'

loop_
  _atom_site_type_symbol
  _atom_site_label
  _atom_site_symmetry_multiplicity
  _atom_site_fract_x
  _atom_site_fract_y
  _atom_site_fract_z
  _atom_site_occupancy
  Er  Er1       1.0  0.6590975454636947  0.4388412009971674  0.14895087630683426  1.0000
  Er  Er2       1.0  0.3409008114776171  0.5611570716097205  0.8510510689416005  1.0000
  H   H1        1.0  0.9220568763927305  0.5851664597172218  0.8770259359856992  1.0000
  H   H2        1.0  0.07794839535673498  0.41482442521355267  0.12296945760678564  1.0000
  H   H3        1.0  0.7593396277198607  0.5697545717708153  0.8452854627296983  1.0000
  H   H4        1.0  0.24065982446082052  0.43024587175022333  0.15471350761402644  1.0000
  H   H5        1.0  0.22303933600871056  0.6391013030132485  0.47829268979705103  1.0000
  H   H6        1.0  0.7769622046172132  0.3609045375566709  0.5217018093353258  1.0000
  H   H7        1.0  0.0755907182781499  0.3227736596155424  0.3822949783638022  1.0000
  H   H8        1.0  0.9244069785953571  0.6772332149349367  0.6177011367341617  1.0000
  H   H9        1.0  0.7227121797436524  0.8058886035020195  0.9815074950452354  1.0000
  H   H10       1.0  0.2772760506609941  0.19411061991275597  0.018501561814595408  1.0000
  H   H11       1.0  0.21647633112207385  0.9738496453772356  0.002973885532362796  1.0000
  H   H12       1.0  0.7835046140650236  0.026162385134540507  0.9970333158740201  1.0000
  H   H13       1.0  0.1645690657023309  0.13580652703306131  0.2506972468218436  1.0000
  H   H14       1.0  0.8354403863182824  0.864193995609277  0.7492988787614434  1.0000
  H   H15       1.0  0.6929361050782816  0.055491961359393785  0.5859607470924857  1.0000
  H   H16       1.0  0.307073542788295  0.9445064424113025  0.4140333507123017  1.0000
  H   H17       1.0  0.6878014092501985  0.8204465369478983  0.4449709195417454  1.0000
  H   H18       1.0  0.3121994640932328  0.17955177230025754  0.5550284556813166  1.0000
  H   H19       1.0  0.6304978991825508  0.9318075032838493  0.2898777373254828  1.0000
  H   H20       1.0  0.3695103966705133  0.0681919458172757  0.7101181946724253  1.0000
  H   H21       1.0  0.9184611890957939  0.9739498182166457  0.17501486460550808  1.0000
  H   H22       1.0  0.0815460642249874  0.026046354166929603  0.8249881402048299  1.0000
  H   H23       1.0  0.9797913528598559  0.8239301271553073  0.31019440645364676  1.0000
  H   H24       1.0  0.02021226077554419  0.17606496876766192  0.689807257126162  1.0000
  H   H25       1.0  0.5686568298881554  0.6645266243538188  0.3593600061348709  1.0000
  H   H26       1.0  0.4313448901415954  0.3354770804835213  0.6406343240542609  1.0000
  H   H27       1.0  0.04471357272549171  0.745491387203387  0.09908935309553603  1.0000
  H   H28       1.0  0.9552960949638916  0.25450587704204247  0.9009125602875017  1.0000
  C   C1        1.0  0.34147419376812144  0.4581707508567447  0.33495392355295167  1.0000
  C   C2        1.0  0.6585214475444303  0.5418307603667288  0.6650429450858438  1.0000
  C   C3        1.0  0.165528047642205  0.48013560769678076  0.42041258109128404  1.0000
  C   C4        1.0  0.8344709848026641  0.5198702046623468  0.5795835586488277  1.0000
  C   C5        1.0  0.12454042996044025  0.5794076135096162  0.4877205130686162  1.0000
  C   C6        1.0  0.8754586024844287  0.42059819884951116  0.5122756266714957  1.0000
  C   C7        1.0  0.04063896583264182  0.4010609224533042  0.4333058094502248  1.0000
  C   C8        1.0  0.9593562146387383  0.5989459154559141  0.5666928756731197  1.0000
  C   C9        1.0  0.43233960683803474  0.744836726476514  0.9805176350766086  1.0000
  C   C10       1.0  0.5676534934091748  0.25516472281429264  0.019484591840452543  1.0000
  C   C11       1.0  0.4658074577170624  0.8763307189142823  0.9919173310476166  1.0000
  C   C12       1.0  0.5341769864826702  0.1236695974943345  0.008086835854392342  1.0000
  C   C13       1.0  0.6256617466949734  0.8912563090890587  0.9899556274436561  1.0000
  C   C14       1.0  0.3743251481383041  0.10874397651706863  0.010053404774041035  1.0000
  C   C15       1.0  0.3403287965385573  0.9856432978681934  0.0020176997991967287  1.0000
  C   C16       1.0  0.6596567627233513  0.014358049929299503  0.9979913077763525  1.0000
  C   C17       1.0  0.8337600537767572  0.22425337340514057  0.3135178263053503  1.0000
  C   C18       1.0  0.16624081134560242  0.7757449274125392  0.6864824783353424  1.0000
  C   C19       1.0  0.9199719450899269  0.10717445776224821  0.4086441010712674  1.0000
  C   C20       1.0  0.08003520281667414  0.8928239262281183  0.5913507079236309  1.0000
  C   C21       1.0  0.0930683318388148  0.0759062001015423  0.3599177974785377  1.0000
  C   C22       1.0  0.9069413851769923  0.9240911147266927  0.6400785393987078  1.0000
  C   C23       1.0  0.827323342991683  0.0303636005370151  0.5494620212732642  1.0000
  C   C24       1.0  0.17268655342795822  0.9696315785586406  0.4505341466607432  1.0000
  C   C25       1.0  0.8045103221675591  0.680319864286652  0.21207039972239966  1.0000
  C   C26       1.0  0.1954976675849522  0.3196827504762325  0.7879299680697044  1.0000
  C   C27       1.0  0.7107973897835792  0.8385125744604025  0.3328565821629324  1.0000
  C   C28       1.0  0.2892070623170683  0.1614879086212824  0.6671409658005771  1.0000
  C   C29       1.0  0.8981201912336304  0.8606274461820437  0.24259950469740926  1.0000
  C   C30       1.0  0.10188955382605508  0.13936873755139356  0.7574037183404556  1.0000
  N   N1        1.0  0.6795453061591631  0.7121369685724519  0.3166641106006408  1.0000
  N   N2        1.0  0.3204605588831555  0.2878613718058887  0.6833347716598367  1.0000
  N   N3        1.0  0.9291507842164182  0.7716323869217234  0.15794361523352035  1.0000
  N   N4        1.0  0.07085790670924298  0.22836166804990657  0.8420579356209003  1.0000
  O   O1        1.0  0.37273640341079073  0.378846258930146  0.26068932106529985  1.0000
  O   O2        1.0  0.627254237981795  0.6211552127326742  0.7393089699537182  1.0000
  O   O3        1.0  0.8274394471691339  0.5237985441036132  0.911146392674439  1.0000
  O   O4        1.0  0.17255940349762974  0.4761944355393979  0.08885001841892397  1.0000
  O   O5        1.0  0.4592411835013977  0.5184466325250199  0.33272702072249405  1.0000
  O   O6        1.0  0.5407572836944966  0.48155059329174316  0.6672725165102447  1.0000
  O   O7        1.0  0.515524891985173  0.6290286290804874  0.027698346670888257  1.0000
  O   O8        1.0  0.4844862287448636  0.3709826594488206  0.9722904770974379  1.0000
  O   O9        1.0  0.3239859257940481  0.7544530532103052  0.9212223000799893  1.0000
  O   O10       1.0  0.6759954565773826  0.24553750048942652  0.07879564991826268  1.0000
  O   O11       1.0  0.6765254707862597  0.2511529947032686  0.36222065079471105  1.0000
  O   O12       1.0  0.32347996145876584  0.7488495412660257  0.6377869341109271  1.0000
  O   O13       1.0  0.9174858086181744  0.2972719951712932  0.18508007876915397  1.0000
  O   O14       1.0  0.08250394160207719  0.7027251951361964  0.8149182299584367  1.0000
  O   O15       1.0  0.8075508626602712  0.5831374741897619  0.16759775089308707  1.0000
  O   O16       1.0  0.19244900925622943  0.4168576004931879  0.8324040500542507  1.0000
