data_image0
_chemical_formula_structural       Zn4H36C28Br4N8O20
_chemical_formula_sum              "Zn4 H36 C28 Br4 N8 O20"
_cell_length_a       6.200960259002284
_cell_length_b       9.993475890815752
_cell_length_c       19.01821358987561
_cell_angle_alpha    101.07419738072451
_cell_angle_beta     89.99995480740063
_cell_angle_gamma    90.00010907855184

_space_group_name_H-M_alt    "P 1"
_space_group_IT_number       1

loop_
  _space_group_symop_operation_xyz
  'x, y, z'

loop_
  _atom_site_type_symbol
  _atom_site_label
  _atom_site_symmetry_multiplicity
  _atom_site_fract_x
  _atom_site_fract_y
  _atom_site_fract_z
  _atom_site_occupancy
  Zn  Zn1       1.0  0.576426128300696  0.058318378694082205  0.893845993608281  1.0000
  Zn  Zn2       1.0  0.07640291590610808  0.4416904464257243  0.6061629033908603  1.0000
  Zn  Zn3       1.0  0.42358760392336586  0.9416778945320987  0.10615100063100874  1.0000
  Zn  Zn4       1.0  0.9235753379523785  0.5583184765854057  0.39384734744867705  1.0000
  H   H1        1.0  0.0864194534908478  0.8299330530757771  0.9856484561243238  1.0000
  H   H2        1.0  0.5864018425186118  0.6700631345617439  0.5143504816235807  1.0000
  H   H3        1.0  0.9135878281212797  0.17006858888188253  0.014356919285866404  1.0000
  H   H4        1.0  0.4135747986613367  0.3299271845793185  0.4856506991948707  1.0000
  H   H5        1.0  0.8721065557614978  0.7299640160166448  0.009009579152810008  1.0000
  H   H6        1.0  0.3720884628436352  0.7700191282150897  0.49098967443118385  1.0000
  H   H7        1.0  0.12791201442490768  0.2700365341098346  0.990993592467277  1.0000
  H   H8        1.0  0.6279026922175888  0.22996900725999586  0.5090070988079776  1.0000
  H   H9        1.0  0.3338245928642323  0.7238004560298847  0.877511979972603  1.0000
  H   H10       1.0  0.8338232899548287  0.7761857037016427  0.6224843832310898  1.0000
  H   H11       1.0  0.6661826887602089  0.27620723044312007  0.12249184663654943  1.0000
  H   H12       1.0  0.16617109039324868  0.2237901618506157  0.3775102120619423  1.0000
  H   H13       1.0  0.8149528230298061  0.4880198099166861  0.9356612804747473  1.0000
  H   H14       1.0  0.3149378175012671  0.011974630101953206  0.564336756396749  1.0000
  H   H15       1.0  0.1850689724723367  0.5119847457689772  0.06434015520457591  1.0000
  H   H16       1.0  0.6850484996117386  0.9880217335587745  0.4356628756195705  1.0000
  H   H17       1.0  0.09067929357022557  0.3177372069451038  0.8438987865852001  1.0000
  H   H18       1.0  0.590667914360715  0.1822580339979964  0.6560988672291901  1.0000
  H   H19       1.0  0.9093376639772404  0.6822703890854313  0.15610240224893354  1.0000
  H   H20       1.0  0.4093409798744786  0.8177230374908788  0.3438993612393092  1.0000
  H   H21       1.0  0.5031639174323245  0.36781925442182484  0.8088975945851405  1.0000
  H   H22       1.0  0.0031620107841589997  0.1321736522701116  0.6910935613045484  1.0000
  H   H23       1.0  0.49684658951112226  0.6321912191486234  0.19109859941094956  1.0000
  H   H24       1.0  0.9968565593631948  0.8678001381566532  0.3088997917367991  1.0000
  H   H25       1.0  0.5661673751030918  0.5398322598406082  0.8058172192185966  1.0000
  H   H26       1.0  0.06615696731745398  0.9601736160731067  0.6941684148450451  1.0000
  H   H27       1.0  0.4338366812330605  0.4601823097315004  0.19417987661174155  1.0000
  H   H28       1.0  0.9338406383533452  0.03981033295352181  0.3058248187859506  1.0000
  H   H29       1.0  0.16744103902309598  0.022838776739106906  0.8745693477552623  1.0000
  H   H30       1.0  0.6674291653876807  0.4771586260428223  0.6254300584317181  1.0000
  H   H31       1.0  0.8325694678922274  0.9771575688430688  0.12542975670352527  1.0000
  H   H32       1.0  0.3325539264376403  0.522848951883212  0.3745706028514847  1.0000
  H   H33       1.0  0.24287924860482235  0.004425706771577616  0.9537240607687996  1.0000
  H   H34       1.0  0.7428740385814976  0.49557691510573676  0.546277378799559  1.0000
  H   H35       1.0  0.7571248077097437  0.9955788308168042  0.046276847357759755  1.0000
  H   H36       1.0  0.2571187291553727  0.5044255835200105  0.4537233421889086  1.0000
  C   C1        1.0  0.7931197374092989  0.8313900170592915  0.9231212132874024  1.0000
  C   C2        1.0  0.2931149482988075  0.6686168757391543  0.5768881092041269  1.0000
  C   C3        1.0  0.20688593155362156  0.16861581134898534  0.07688770173039934  1.0000
  C   C4        1.0  0.7068633055806542  0.3313977480894934  0.4231105692934919  1.0000
  C   C5        1.0  0.9564329879026443  0.7605470919622377  0.9637313504756978  1.0000
  C   C6        1.0  0.4564253037152283  0.7394464584262366  0.5362698603126435  1.0000
  C   C7        1.0  0.04357268104553919  0.23944843312193598  0.03627346351656511  1.0000
  C   C8        1.0  0.5435690766615693  0.26054786628050414  0.46372958456338875  1.0000
  C   C9        1.0  0.23018564756223717  0.6375303423634051  0.8807161054656804  1.0000
  C   C10       1.0  0.7301733725421754  0.8624698527139569  0.6192773708110624  1.0000
  C   C11       1.0  0.7698361479516008  0.36248245959941977  0.11928871654502876  1.0000
  C   C12       1.0  0.2698097192483431  0.13751515196370429  0.3807170115008348  1.0000
  C   C13       1.0  0.9626542046230071  0.5102529516939711  0.909672205886793  1.0000
  C   C14       1.0  0.4626392578060816  0.9897405138052802  0.5903263657157327  1.0000
  C   C15       1.0  0.0373675908811819  0.4897547890535918  0.09033320338506465  1.0000
  C   C16       1.0  0.5373502845999383  0.010246602190285605  0.4096703139539316  1.0000
  C   C17       1.0  0.0977412804151427  0.42679096045181814  0.8642843688650502  1.0000
  C   C18       1.0  0.5977295464937312  0.0732021393097284  0.635709930877667  1.0000
  C   C19       1.0  0.9022692265185768  0.5732155437396003  0.13571461618100503  1.0000
  C   C20       1.0  0.4022664465192065  0.9267798069373114  0.36428417072371394  1.0000
  C   C21       1.0  0.4369469362658832  0.4631054211676398  0.7970622670547274  1.0000
  C   C22       1.0  0.936938172360584  0.03689409866652232  0.7029325170783667  1.0000
  C   C23       1.0  0.5630587327153619  0.5369051247580783  0.20293603716104514  1.0000
  C   C24       1.0  0.06305620799881238  0.9630889394160249  0.2970637883120163  1.0000
  C   C25       1.0  0.3652048537390726  0.44041167649561447  0.7186573853889942  1.0000
  C   C26       1.0  0.8652266665919512  0.05958579453614021  0.7813388105569248  1.0000
  C   C27       1.0  0.6347830760553563  0.5596009988265606  0.28134374374207743  1.0000
  C   C28       1.0  0.13478384031608207  0.9404043075477518  0.2186560396002833  1.0000
  Br  Br1       1.0  0.5406207541332435  0.2929114182991626  0.9495437044249614  1.0000
  Br  Br2       1.0  0.04058228673279979  0.20707378208206248  0.5504588281656668  1.0000
  Br  Br3       1.0  0.4593881401456484  0.7070951401596093  0.05045686328562483  1.0000
  Br  Br4       1.0  0.9593879038331676  0.7929187207285792  0.4495467602311508  1.0000
  N   N1        1.0  0.04854761960035601  0.6401232270398439  0.919318643620898  1.0000
  N   N2        1.0  0.5485483080182901  0.8598739462329661  0.5806803962946037  1.0000
  N   N3        1.0  0.9514661126338879  0.35988353040404064  0.08068772719175142  1.0000
  N   N4        1.0  0.45145252297385946  0.14011814053610996  0.41931305833871607  1.0000
  N   N5        1.0  0.2628642556308947  0.5082488024492946  0.8472019498380733  1.0000
  N   N6        1.0  0.7628539964322556  0.9917463968021565  0.652793161388445  1.0000
  N   N7        1.0  0.7371446386576466  0.491762817224739  0.15279803061136485  1.0000
  N   N8        1.0  0.2371371586065436  0.008230651031688303  0.34720627546768423  1.0000
  O   O1        1.0  0.7527987596434896  0.9572078690388116  0.955265151385483  1.0000
  O   O2        1.0  0.25279680260199905  0.5428038680417232  0.5447383174528967  1.0000
  O   O3        1.0  0.24720207137798406  0.04280700805095709  0.044740912876534415  1.0000
  O   O4        1.0  0.7471927398521243  0.45721073770261006  0.4552598334886541  1.0000
  O   O5        1.0  0.7098035570479482  0.7732168839689207  0.8664304913591041  1.0000
  O   O6        1.0  0.20981338609566785  0.7267795948611706  0.6335736939152457  1.0000
  O   O7        1.0  0.29018759803006583  0.22678473989217443  0.13357435649813001  1.0000
  O   O8        1.0  0.7901551918454144  0.27322701784765974  0.36642845646427  1.0000
  O   O9        1.0  0.5064490748376329  0.39868759921379393  0.6721210079872721  1.0000
  O   O10       1.0  0.0065177602985925995  0.10129184014946453  0.8278626000851192  1.0000
  O   O11       1.0  0.4935114398451431  0.6013208353767182  0.32787499887513155  1.0000
  O   O12       1.0  0.9935185490558636  0.89868881529641  0.17212349462025148  1.0000
  O   O13       1.0  0.16701786074818156  0.4642633152465194  0.7070944229554927  1.0000
  O   O14       1.0  0.6670444042989628  0.03574968687536991  0.7929153552997905  1.0000
  O   O15       1.0  0.832970069077021  0.5357710042920374  0.29291552935111304  1.0000
  O   O16       1.0  0.3329661026241837  0.9642517922795052  0.20708527211698427  1.0000
  O   O17       1.0  0.27726604700239216  0.9784768497208775  0.9013731200830223  1.0000
  O   O18       1.0  0.7772477452042281  0.5215288285283465  0.5986308368926105  1.0000
  O   O19       1.0  0.7227460725758873  0.021526740749742104  0.09862980469206663  1.0000
  O   O20       1.0  0.2227385719288435  0.47847980505665066  0.40137097306947583  1.0000
