data_image0
_chemical_formula_structural       Zn16H44C104S16O52F4
_chemical_formula_sum              "Zn16 H44 C104 S16 O52 F4"
_cell_length_a       19.672285448233538
_cell_length_b       19.658036745668394
_cell_length_c       33.38040533327337
_cell_angle_alpha    79.25106135853711
_cell_angle_beta     79.20846963938529
_cell_angle_gamma    63.95126747476525

_space_group_name_H-M_alt    "P 1"
_space_group_IT_number       1

loop_
  _space_group_symop_operation_xyz
  'x, y, z'

loop_
  _atom_site_type_symbol
  _atom_site_label
  _atom_site_symmetry_multiplicity
  _atom_site_fract_x
  _atom_site_fract_y
  _atom_site_fract_z
  _atom_site_occupancy
  Zn  Zn1       1.0  0.0564526072867082  0.39947830973152054  0.47788022814595615  1.0000
  Zn  Zn2       1.0  0.9842703516865045  0.48362823643184766  0.5596783514466921  1.0000
  Zn  Zn3       1.0  0.0590229516153968  0.560699126398873  0.48207766123407236  1.0000
  Zn  Zn4       1.0  0.9009754564606426  0.555555877018548  0.4793144761404236  1.0000
  Zn  Zn5       1.0  0.6933276920937032  0.35020037178671964  0.27147261068680717  1.0000
  Zn  Zn6       1.0  0.6893842524658141  0.18947655567207256  0.2667544741848218  1.0000
  Zn  Zn7       1.0  0.768557962395633  0.2667206875596832  0.1904260603269634  1.0000
  Zn  Zn8       1.0  0.84779848402534  0.19483466440147595  0.2720480251892639  1.0000
  Zn  Zn9       1.0  0.2670716723981669  0.7672099221990364  0.6895156455462441  1.0000
  Zn  Zn10      1.0  0.34859950743854995  0.6958825962256865  0.7714382217476583  1.0000
  Zn  Zn11      1.0  0.192519391151194  0.8492521403759451  0.7712452704949726  1.0000
  Zn  Zn12      1.0  0.19082672012473983  0.6887629602713189  0.7668975417304579  1.0000
  Zn  Zn13      1.0  0.560092495418118  0.060498537967163174  0.9829190138055779  1.0000
  Zn  Zn14      1.0  0.40111573316486476  0.0556538221161914  0.9784703331482093  1.0000
  Zn  Zn15      1.0  0.5557414598784475  0.9008484621767537  0.978395165705365  1.0000
  Zn  Zn16      1.0  0.48287815473928936  0.9832357016057  0.06029394078898782  1.0000
  H   H1        1.0  0.95419122701373  0.248339897477699  0.35134926594054144  1.0000
  H   H2        1.0  0.7467631842433703  0.4547655858472693  0.35067046089899623  1.0000
  H   H3        1.0  0.00010940296039050063  0.29868605288249467  0.39950342813424555  1.0000
  H   H4        1.0  0.0973427766489436  0.5971715567095969  0.7000573260117163  1.0000
  H   H5        1.0  0.20123454116206574  0.7012427443806998  0.5972352462646171  1.0000
  H   H6        1.0  0.05014448897838971  0.5500532144009681  0.6509136272759121  1.0000
  H   H7        1.0  0.4635509674286524  0.2390728014839211  0.3408436072629541  1.0000
  H   H8        1.0  0.4790811447447751  0.7027294878392919  0.601336141400644  1.0000
  H   H9        1.0  0.2029821344641007  0.9788907008288416  0.6011156759833085  1.0000
  H   H10       1.0  0.9494078628887195  0.9705354111156976  0.3479230677264696  1.0000
  H   H11       1.0  0.5499788168557984  0.049930749455178475  0.15277027842100918  1.0000
  H   H12       1.0  0.6527539743627531  0.15283523329144785  0.04877677673344745  1.0000
  H   H13       1.0  0.599186775643318  0.09907689166037409  0.19982720205130983  1.0000
  H   H14       1.0  0.5469973352320493  0.7715177859658627  0.1485856649247665  1.0000
  H   H15       1.0  0.1625828261831544  0.14154146203117068  0.04018539890724071  1.0000
  H   H16       1.0  0.5015087268808217  0.7957383081617875  0.8986318160386658  1.0000
  H   H17       1.0  0.295201276017913  0.0032791493117442687  0.8992595111838992  1.0000
  H   H18       1.0  0.4514781820387271  0.7496122713204298  0.8504606935908257  1.0000
  H   H19       1.0  0.3005392174212887  0.2795857759425927  0.9021029369853223  1.0000
  H   H20       1.0  0.7865348341080391  0.010700358888193722  0.9091446693637052  1.0000
  H   H21       1.0  0.23136347425553797  0.575366989301713  0.39906735079190975  1.0000
  H   H22       1.0  0.33065750922290255  0.5510913883546209  0.39697006424314196  1.0000
  H   H23       1.0  0.2760172086219583  0.5358285633686889  0.44403109815979036  1.0000
  H   H24       1.0  0.8210663861914256  0.47694161488981707  0.6534452253876778  1.0000
  H   H25       1.0  0.7572517593724655  0.5366858824992131  0.6910167641119145  1.0000
  H   H26       1.0  0.8239025065913097  0.5642121826766554  0.6559968088088437  1.0000
  H   H27       1.0  0.0643406937618636  0.3237835224619729  0.656107111710348  1.0000
  H   H28       1.0  0.036525864506622  0.25715361358267325  0.6909420291427963  1.0000
  H   H29       1.0  0.9770874084535279  0.32122453552343416  0.6533884223495505  1.0000
  H   H30       1.0  0.798158258096983  0.7220107759170843  0.3898177501297937  1.0000
  H   H31       1.0  0.7319013265477069  0.819975706694066  0.3862680436419695  1.0000
  H   H32       1.0  0.7586332129915903  0.7669434429847537  0.4347540742190077  1.0000
  H   H33       1.0  0.7729221369385543  0.42891509850274884  0.09668741341013025  1.0000
  H   H34       1.0  0.7132678869137125  0.49272113195200223  0.059173385162132774  1.0000
  H   H35       1.0  0.6858511485238524  0.42596973402722654  0.09412902792978169  1.0000
  H   H36       1.0  0.0723247615178408  0.14822904062987866  0.2398868731553065  1.0000
  H   H37       1.0  0.157926761449815  0.06953123923612736  0.2240915283694633  1.0000
  H   H38       1.0  0.06945019308353301  0.06101846368269996  0.2372535852672613  1.0000
  H   H39       1.0  0.49139550614120947  0.4829991862982651  0.8151918998162414  1.0000
  H   H40       1.0  0.517874922114018  0.4301853015102706  0.863757768563012  1.0000
  H   H41       1.0  0.4516418845043973  0.528173037884926  0.8600816846720248  1.0000
  H   H42       1.0  0.9735486245592356  0.7140898677966018  0.8059663805542455  1.0000
  H   H43       1.0  0.9194038397578127  0.6984029336276477  0.8531606808709283  1.0000
  H   H44       1.0  0.0186870404088211  0.6744278876113369  0.8508049506634237  1.0000
  C   C1        1.0  0.0614674363611201  0.3156755523543138  0.5614827405916643  1.0000
  C   C2        1.0  0.06898248121198242  0.5691265433810242  0.5691460944372579  1.0000
  C   C3        1.0  0.1843948003768219  0.4381547295186719  0.43831513102048086  1.0000
  C   C4        1.0  0.9385220133705944  0.6846422955507873  0.438468654896539  1.0000
  C   C5        1.0  0.9307154047398074  0.43099480194369716  0.4308224163554469  1.0000
  C   C6        1.0  0.8157575628364029  0.56183932872311  0.5616511941050106  1.0000
  C   C7        1.0  0.5654587021213048  0.31100147931240213  0.3114591679233314  1.0000
  C   C8        1.0  0.6810302514059074  0.18090900335349125  0.18091568095071858  1.0000
  C   C9        1.0  0.6885895687004151  0.4348551424691889  0.18870682748967485  1.0000
  C   C10       1.0  0.9346414274999902  0.18882885668366334  0.18871069615928346  1.0000
  C   C11       1.0  0.8192667552252432  0.31940102205991366  0.3192562863902708  1.0000
  C   C12       1.0  0.8121332823968858  0.06562310162922083  0.3114686020193602  1.0000
  C   C13       1.0  0.4341676066857687  0.6887779760479587  0.688185515529824  1.0000
  C   C14       1.0  0.31916504630707015  0.8189998929238271  0.8190417109269317  1.0000
  C   C15       1.0  0.1886685151633571  0.9341126900524441  0.6879112910072394  1.0000
  C   C16       1.0  0.0652330543723494  0.811357615388381  0.8113074671804553  1.0000
  C   C17       1.0  0.180756170672538  0.6807727058154069  0.68055425990768  1.0000
  C   C18       1.0  0.31131555593691473  0.5656595599283988  0.8113996064394511  1.0000
  C   C19       1.0  0.43789886660751165  0.1844794249012336  0.9385040030084041  1.0000
  C   C20       1.0  0.43056661458183504  0.9308390367521111  0.9306871053937442  1.0000
  C   C21       1.0  0.6842360278996581  0.9391064921598226  0.93850389995454  1.0000
  C   C22       1.0  0.5612130580735271  0.8159779928425902  0.06171661927157861  1.0000
  C   C23       1.0  0.5693022126198812  0.06948061419183192  0.06925707662768586  1.0000
  C   C24       1.0  0.3153117151080451  0.06187571154310932  0.0612471192807647  1.0000
  C   C25       1.0  0.900424078342141  0.404041920404971  0.4020833617012371  1.0000
  C   C26       1.0  0.8478427820762562  0.34830664514497295  0.34795007371373987  1.0000
  C   C27       1.0  0.8289395767774722  0.44685871175924036  0.3876612549697711  1.0000
  C   C28       1.0  0.9194240986245678  0.30414059643495484  0.3617470343381441  1.0000
  C   C29       1.0  0.8024842468931583  0.41998605651095  0.3610751150990906  1.0000
  C   C30       1.0  0.9447446947707547  0.33202992226326694  0.38839144655504027  1.0000
  C   C31       1.0  0.09866792356972812  0.5985650327278548  0.5969481029578674  1.0000
  C   C32       1.0  0.1520204868459132  0.652129267843328  0.6517919253631774  1.0000
  C   C33       1.0  0.14168889458306214  0.6414972512475143  0.5827389628415601  1.0000
  C   C34       1.0  0.1093755791900222  0.6093821309870718  0.6669859216568738  1.0000
  C   C35       1.0  0.1681652848994801  0.6681597447234322  0.6094293946316895  1.0000
  C   C36       1.0  0.08337154558469  0.5833252443425677  0.6397619794965194  1.0000
  C   C37       1.0  0.30374010922199796  0.45529980754975696  0.40127114931510727  1.0000
  C   C38       1.0  0.44615710575519063  0.2959695865535536  0.348873037637091  1.0000
  C   C39       1.0  0.2591272774187274  0.41434012214887866  0.4136846627527291  1.0000
  C   C40       1.0  0.49075308280860247  0.3361985774587236  0.33642878899723166  1.0000
  C   C41       1.0  0.37801040535944713  0.33867468992302446  0.3725015941273212  1.0000
  C   C42       1.0  0.3716629222939716  0.410965896828685  0.377683586889269  1.0000
  C   C43       1.0  0.7271762020969634  0.5753591655853323  0.6297360767079423  1.0000
  C   C44       1.0  0.5241092148874529  0.6736443822220506  0.6211291480626784  1.0000
  C   C45       1.0  0.741704379832541  0.5859222600947401  0.5870138141648836  1.0000
  C   C46       1.0  0.5092004108833522  0.6634916919419779  0.6635061732955803  1.0000
  C   C47       1.0  0.6032038090083349  0.6417855803548842  0.608497789846659  1.0000
  C   C48       1.0  0.6474845564774583  0.6077946688548079  0.6415045988337551  1.0000
  C   C49       1.0  0.0754240348772726  0.22716001970497496  0.6296066954913114  1.0000
  C   C50       1.0  0.1739131706568458  0.02398549852117069  0.6209111071469096  1.0000
  C   C51       1.0  0.08585878820819912  0.24163971711345764  0.5868644246065741  1.0000
  C   C52       1.0  0.16369789220316022  0.009151707238352435  0.6632879883603591  1.0000
  C   C53       1.0  0.14198720581353538  0.10309987666259694  0.6083111356010062  1.0000
  C   C54       1.0  0.1079652087761076  0.14742284515511977  0.641350831144301  1.0000
  C   C55       1.0  0.8432840718778396  0.8000529491133646  0.3974126853210933  1.0000
  C   C56       1.0  0.9052419864410909  0.9498281659943254  0.3525233275907738  1.0000
  C   C57       1.0  0.9126736993098274  0.7590331666715716  0.4134974964326474  1.0000
  C   C58       1.0  0.8365556921925545  0.9909018220237724  0.33643178453827  1.0000
  C   C59       1.0  0.9083950504266767  0.8802700192468719  0.37471360949710686  1.0000
  C   C60       1.0  0.8418991583270596  0.8693808001184774  0.3752416668812515  1.0000
  C   C61       1.0  0.6530690684794678  0.15320802448461282  0.1513467602820455  1.0000
  C   C62       1.0  0.5981993098592185  0.09820107864514666  0.09790854780649026  1.0000
  C   C63       1.0  0.667184267209393  0.16743169393904375  0.10839173341713595  1.0000
  C   C64       1.0  0.5830593175469971  0.08302340797668953  0.14059963433641087  1.0000
  C   C65       1.0  0.6405459088355555  0.14064001239414373  0.08183523189506299  1.0000
  C   C66       1.0  0.6102973816022229  0.11028792012324812  0.1665995120832946  1.0000
  C   C67       1.0  0.67445865831521  0.5229935229698623  0.1204537171026416  1.0000
  C   C68       1.0  0.5760713503610548  0.7263580714486861  0.12882987537022222  1.0000
  C   C69       1.0  0.6639104596340459  0.5087862177460706  0.16321600522116597  1.0000
  C   C70       1.0  0.5862939818727568  0.7410171041247082  0.08643271890196759  1.0000
  C   C71       1.0  0.6078793046413794  0.64729536870594  0.1415625623085646  1.0000
  C   C72       1.0  0.641934387681509  0.602728225171766  0.10862893020510002  1.0000
  C   C73       1.0  0.08104769014835972  0.12409670462540842  0.17842411792038596  1.0000
  C   C74       1.0  0.1697421517917519  0.12514917975507694  0.07259724561411221  1.0000
  C   C75       1.0  0.009685266877923496  0.1633175097641342  0.1643359744303723  1.0000
  C   C76       1.0  0.24075190004011665  0.08647126262905394  0.08637764742503858  1.0000
  C   C77       1.0  0.11118154672273314  0.1391422652021105  0.10579831130424819  1.0000
  C   C78       1.0  0.1385216285830921  0.1108062786235564  0.1444496307907954  1.0000
  C   C79       1.0  0.3461386447993462  0.8494107059886602  0.847758688154144  1.0000
  C   C80       1.0  0.4017152169093166  0.9021966557731742  0.9019617440836  1.0000
  C   C81       1.0  0.30335493278348474  0.9210175395992407  0.8621791353607834  1.0000
  C   C82       1.0  0.44581235268854164  0.8304999574835178  0.8881916692801113  1.0000
  C   C83       1.0  0.3301062310808334  0.9475385340997562  0.888818545609311  1.0000
  C   C84       1.0  0.4180283963902626  0.805064142289204  0.8615345700388204  1.0000
  C   C85       1.0  0.40656146175967933  0.45014489510564437  0.8525081837433106  1.0000
  C   C86       1.0  0.3446749515763514  0.3003295463806878  0.8974801264195094  1.0000
  C   C87       1.0  0.3372141374148683  0.4911840108500697  0.8363750661174761  1.0000
  C   C88       1.0  0.4133571009852659  0.2592963605353801  0.9135845253648398  1.0000
  C   C89       1.0  0.34159025194469456  0.36981619293898377  0.8751943001414659  1.0000
  C   C90       1.0  0.4080422062392515  0.3807631283675831  0.874661171529091  1.0000
  C   C91       1.0  0.9460389804847156  0.794352777003183  0.8487756910447644  1.0000
  C   C92       1.0  0.8037960020755506  0.9538143782028641  0.9011353955731707  1.0000
  C   C93       1.0  0.9907505244206193  0.83515944170437  0.8362694537809503  1.0000
  C   C94       1.0  0.7590521262535077  0.9137225525453726  0.913613195363375  1.0000
  C   C95       1.0  0.8719469062602841  0.9109697345920006  0.8775313348115432  1.0000
  C   C96       1.0  0.8781740626911088  0.8386928648804854  0.8723919714935987  1.0000
  C   C97       1.0  0.2847409975778916  0.5335512973962718  0.4107449549462459  1.0000
  C   C98       1.0  0.785228087561741  0.5362590883489274  0.659300949554634  1.0000
  C   C99       1.0  0.0363126446885573  0.285199260644319  0.6592556031370478  1.0000
  C   C100      1.0  0.7793876706306478  0.77626307119025  0.40221094026916393  1.0000
  C   C101      1.0  0.7136417258612512  0.4647924046569824  0.09089212006431775  1.0000
  C   C102      1.0  0.09637544096688802  0.09922756576106198  0.2222251328708467  1.0000
  C   C103      1.0  0.4704880767063102  0.47386768391869777  0.8477330751659549  1.0000
  C   C104      1.0  0.9651349660603402  0.7161267379564293  0.8392637896035495  1.0000
  S   S1        1.0  0.29945887010155303  0.3243233729533797  0.3969583684189216  1.0000
  S   S2        1.0  0.45016662046177197  0.4258993201057066  0.3532931719965261  1.0000
  S   S3        1.0  0.6599882063448634  0.6340766093354586  0.5621074427716337  1.0000
  S   S4        1.0  0.5910277209511676  0.6153254764023324  0.688152249521707  1.0000
  S   S5        1.0  0.1341660107973723  0.15985645175962296  0.5619395342366076  1.0000
  S   S6        1.0  0.11547017110881802  0.09099980531416206  0.6879827774278622  1.0000
  S   S7        1.0  0.9741757556630476  0.8042268085381106  0.40176628227243333  1.0000
  S   S8        1.0  0.7756047072683148  0.9453395518907465  0.3481964868022658  1.0000
  S   S9        1.0  0.6155391174158212  0.5907532849142  0.18800995697748135  1.0000
  S   S10       1.0  0.634537359239708  0.6589223839333153  0.06191834225284515  1.0000
  S   S11       1.0  0.0131734627114426  0.18303917289322408  0.1110078225203353  1.0000
  S   S12       1.0  0.23670731342801332  0.06686260100826755  0.1396067154759493  1.0000
  S   S13       1.0  0.2758377831697132  0.44582462290939157  0.8480872040302074  1.0000
  S   S14       1.0  0.4743381082519635  0.30483979740687756  0.9017413159638394  1.0000
  S   S15       1.0  0.9506191119828885  0.9251409127791062  0.8530441014983764  1.0000
  S   S16       1.0  0.79958381461892  0.8239377058314972  0.89681924159229  1.0000
  O   O1        1.0  0.0007716717384199001  0.4986352775819966  0.49966631488214824  1.0000
  O   O2        1.0  0.0781516669457361  0.31460861869442874  0.5225325606753585  1.0000
  O   O3        1.0  0.0304908203930765  0.5312147703397371  0.5866385455894445  1.0000
  O   O4        1.0  0.15556566089662743  0.504770683922615  0.44978229029229766  1.0000
  O   O5        1.0  0.025599839718182704  0.3749275345680018  0.5803980892163096  1.0000
  O   O6        1.0  0.15432044936680006  0.39023708185153777  0.4461881695577787  1.0000
  O   O7        1.0  0.08407421005497182  0.5839544614070816  0.530696596114943  1.0000
  O   O8        1.0  0.005784396179471701  0.657540346986991  0.4491036947691356  1.0000
  O   O9        1.0  0.8887003571326559  0.49637423201044584  0.4424362490717968  1.0000
  O   O10       1.0  0.8921061344328792  0.6530883456341313  0.4476050050247905  1.0000
  O   O11       1.0  0.9965496888774937  0.385753272705102  0.4413136675146772  1.0000
  O   O12       1.0  0.875116282568712  0.5255099329680559  0.5803396796951716  1.0000
  O   O13       1.0  0.8145503908082645  0.5794200945889899  0.5227407734877545  1.0000
  O   O14       1.0  0.7491337898439739  0.25041681705395274  0.25059262898612633  1.0000
  O   O15       1.0  0.5961601238291295  0.3583194951596765  0.3034383099993292  1.0000
  O   O16       1.0  0.6639226210486057  0.16316408070218796  0.2190851832539806  1.0000
  O   O17       1.0  0.7249834013145744  0.3755026678862449  0.16999942530760853  1.0000
  O   O18       1.0  0.5929088679488502  0.2445206014473627  0.3000409701651279  1.0000
  O   O19       1.0  0.6716071635692488  0.43608689419138325  0.2276825649647236  1.0000
  O   O20       1.0  0.7193472001705461  0.2195606364608122  0.1658568606280468  1.0000
  O   O21       1.0  0.8767591131968829  0.2251675421649393  0.1687095571403958  1.0000
  O   O22       1.0  0.8633415854891169  0.2537055295538478  0.3082388763411288  1.0000
  O   O23       1.0  0.9330453127228253  0.17282667055216183  0.22772798684028564  1.0000
  O   O24       1.0  0.7535589193882617  0.3627854918390055  0.3082684957238725  1.0000
  O   O25       1.0  0.7456267483135974  0.09323790005770853  0.2999854129826858  1.0000
  O   O26       1.0  0.8594042923437044  0.09620697190381819  0.3034531867797696  1.0000
  O   O27       1.0  0.24992685964472378  0.7500381541752642  0.7496403968436951  1.0000
  O   O28       1.0  0.37600357357430175  0.7245091242683299  0.6686054947415412  1.0000
  O   O29       1.0  0.3644071596216847  0.7528469083139625  0.8087160958677657  1.0000
  O   O30       1.0  0.17194312443753293  0.9340583197321662  0.7268746366544504  1.0000
  O   O31       1.0  0.43410532482769787  0.6725416401037588  0.7271912215997247  1.0000
  O   O32       1.0  0.2246218719420768  0.87585696779427  0.6683012186660164  1.0000
  O   O33       1.0  0.254050016413629  0.8608065943373118  0.8072499810088019  1.0000
  O   O34       1.0  0.09507363563243132  0.8594673057220488  0.803310173970793  1.0000
  O   O35       1.0  0.164204614659468  0.6645819124227967  0.7188735761039879  1.0000
  O   O36       1.0  0.0941540235844229  0.7449116354656835  0.799597222027721  1.0000
  O   O37       1.0  0.21935898951806376  0.7188794549020512  0.6642129684563187  1.0000
  O   O38       1.0  0.3572721184414505  0.5977962461056732  0.8027979804134446  1.0000
  O   O39       1.0  0.24446553719936753  0.592232487209408  0.8002655856348541  1.0000
  O   O40       1.0  0.5000076281454328  7.577784657311851e-06  5.440288056501203e-06  1.0000
  O   O41       1.0  0.5045234929768014  0.15697840892882198  0.9498719556594537  1.0000
  O   O42       1.0  0.3869228931533685  0.9965927710251846  0.9417336606597573  1.0000
  O   O43       1.0  0.653307463325703  0.8919799664722847  0.946559222031155  1.0000
  O   O44       1.0  0.39081461675233686  0.1537488997453237  0.9465743575817457  1.0000
  O   O45       1.0  0.6568156729815444  0.005655630370632821  0.9498362346466253  1.0000
  O   O46       1.0  0.496247474885003  0.8871150946333798  0.9416572443184207  1.0000
  O   O47       1.0  0.5773165034241714  0.815855790887589  0.022703629976781776  1.0000
  O   O48       1.0  0.5309095605227085  0.031199323579350697  0.08565228718562419  1.0000
  O   O49       1.0  0.5256884110257688  0.874362492665078  0.0812289493055189  1.0000
  O   O50       1.0  0.5854894775207031  0.08579390039637473  0.030887864431214523  1.0000
  O   O51       1.0  0.3151293162381634  0.07810966747496192  0.022351131488100886  1.0000
  O   O52       1.0  0.3738263615261914  0.026290871510077723  0.08074674115432146  1.0000
  F   F1        1.0  0.782183495311763  0.5168348092177125  0.39913939872424453  1.0000
  F   F2        1.0  0.1594372998352966  0.6589087689694749  0.5420591903421081  1.0000
  F   F3        1.0  0.7077323861965753  0.20830581013551336  0.09077544862251588  1.0000
  F   F4        1.0  0.23352787014751908  0.9677541622425703  0.8506745522772546  1.0000
