data_image0
_chemical_formula_structural       Cu2H22C34S2N8O10
_chemical_formula_sum              "Cu2 H22 C34 S2 N8 O10"
_cell_length_a       8.84738646233476
_cell_length_b       10.553666164786636
_cell_length_c       10.855071857546733
_cell_angle_alpha    78.58131880532619
_cell_angle_beta     75.36076590487158
_cell_angle_gamma    67.26114347251746

_space_group_name_H-M_alt    "P 1"
_space_group_IT_number       1

loop_
  _space_group_symop_operation_xyz
  'x, y, z'

loop_
  _atom_site_type_symbol
  _atom_site_label
  _atom_site_symmetry_multiplicity
  _atom_site_fract_x
  _atom_site_fract_y
  _atom_site_fract_z
  _atom_site_occupancy
  Cu  Cu1       1.0  0.4999930502735523  0.5000012678573214  5.66979480955293e-06  1.0000
  Cu  Cu2       1.0  0.5000028425083441  3.7175893866021037e-06  0.9999972572711401  1.0000
  H   H1        1.0  0.21543563507945154  0.4373890343551494  0.21423299199290827  1.0000
  H   H2        1.0  0.7846031653258195  0.5626270886404682  0.7857640361868975  1.0000
  H   H3        1.0  0.3478725112481768  0.3197260209167682  0.12785660552841452  1.0000
  H   H4        1.0  0.6521534964195793  0.6802896167742603  0.872130355533436  1.0000
  H   H5        1.0  0.4054256028420581  0.6361435045128163  0.23969174379972458  1.0000
  H   H6        1.0  0.5945646781684815  0.36385236954809136  0.7603108942509423  1.0000
  H   H7        1.0  0.5313529003936424  0.6043233140377495  0.4314090396805313  1.0000
  H   H8        1.0  0.46862805215825176  0.3956725970979349  0.568598344806297  1.0000
  H   H9        1.0  0.9778685608476324  0.3055478016201293  0.23968694970433538  1.0000
  H   H10       1.0  0.02212329388382272  0.6944606611213615  0.7603171772899772  1.0000
  H   H11       1.0  0.835490143987663  0.3551522734843645  0.05565565127908189  1.0000
  H   H12       1.0  0.1644999370227609  0.6448469146470829  0.9443527481377675  1.0000
  H   H13       1.0  0.9745559167843397  0.3920775373356663  0.8729904303559765  1.0000
  H   H14       1.0  0.02544089438748638  0.6079195865179231  0.12701606837162424  1.0000
  H   H15       1.0  0.18556708386768858  0.2665698988001211  0.012205789760628194  1.0000
  H   H16       1.0  0.8144322505365906  0.7334240422572053  0.987798109624663  1.0000
  H   H17       1.0  0.2875331830556788  0.11449330449543282  0.5892926114084673  1.0000
  H   H18       1.0  0.7124649604315253  0.8855139795260386  0.410704905003577  1.0000
  H   H19       1.0  0.4867947693755069  0.0036953873396896996  0.7391200128594948  1.0000
  H   H20       1.0  0.5132068739199127  0.9963118568892501  0.2608749225750345  1.0000
  H   H21       1.0  0.136980146245058  0.8698909785822412  0.8116481088686172  1.0000
  H   H22       1.0  0.8630191074845258  0.13009784123973134  0.1883587834262528  1.0000
  C   C1        1.0  0.530952684000475  0.5632877746810508  0.2451876975415033  1.0000
  C   C2        1.0  0.46903857919573283  0.43671115361959073  0.7548122123689752  1.0000
  C   C3        1.0  0.6013084468402354  0.5445671820898357  0.3511752837070716  1.0000
  C   C4        1.0  0.3986802949934898  0.4554348994190748  0.6488263100440507  1.0000
  C   C5        1.0  0.7614617842369495  0.4452847640816346  0.3548139745196509  1.0000
  C   C6        1.0  0.2385256053303166  0.5547204179207057  0.6451872220773964  1.0000
  C   C7        1.0  0.8493385947156253  0.3774227362471052  0.24560857777786546  1.0000
  C   C8        1.0  0.15065416713669322  0.6225835707347898  0.7543930674808408  1.0000
  C   C9        1.0  0.771754116723578  0.4049670574878236  0.14227065958249344  1.0000
  C   C10       1.0  0.2282360449615409  0.5950372518789779  0.8577347469247772  1.0000
  C   C11       1.0  0.8345121850068582  0.4147052746105118  0.46842132852317786  1.0000
  C   C12       1.0  0.16547888940902317  0.5852967902327109  0.5315788497434896  1.0000
  C   C13       1.0  0.9907022406139135  0.3297665660475317  0.6357570159435965  1.0000
  C   C14       1.0  0.00929097760378999  0.6702386186725632  0.3642420151948116  1.0000
  C   C15       1.0  0.1105619596536371  0.2606996296405271  0.7205958324155476  1.0000
  C   C16       1.0  0.8894365539143582  0.7393014996477802  0.2794048092907743  1.0000
  C   C17       1.0  0.08482502076296329  0.3048282799130605  0.8405285139843031  1.0000
  C   C18       1.0  0.9151723293189065  0.6951728133260957  0.15947146221174788  1.0000
  C   C19       1.0  0.20181536808462402  0.23493771944773562  0.9184448013893702  1.0000
  C   C20       1.0  0.7981854761955631  0.7650634227628644  0.0815553403341552  1.0000
  C   C21       1.0  0.25838952568123835  0.15107976477695934  0.6826219311303419  1.0000
  C   C22       1.0  0.7416116631187606  0.8489285721257714  0.31737470292282677  1.0000
  C   C23       1.0  0.3701378613912283  0.08808701538299603  0.7650084024950417  1.0000
  C   C24       1.0  0.6298602032912514  0.91191511781512  0.23499119132492305  1.0000
  C   C25       1.0  0.336274424661788  0.7960792060636664  0.9804150761038815  1.0000
  C   C26       1.0  0.6637324407890901  0.20391874314614  0.019580800801485075  1.0000
  C   C27       1.0  0.16656495993608195  0.9086842841848154  0.9908657395811531  1.0000
  C   C28       1.0  0.8334475453848996  0.0913168042853201  0.009128240221770119  1.0000
  C   C29       1.0  0.08840468034608763  0.9848407355410841  0.09632779324486765  1.0000
  C   C30       1.0  0.9115979688260083  0.015156243090295606  0.9036719625157658  1.0000
  C   C31       1.0  0.17772470575589946  0.9859402753497264  0.19672553131139386  1.0000
  C   C32       1.0  0.8222766992553758  0.014051545997148205  0.803276551848555  1.0000
  C   C33       1.0  0.07780136639600957  0.9263666797236213  0.8953371205885504  1.0000
  C   C34       1.0  0.9221969933024637  0.07362408874199391  0.10466584493027403  1.0000
  S   S1        1.0  0.9955972641500991  0.2630879461271292  0.5012904994176922  1.0000
  S   S2        1.0  0.004384399262470095  0.7369090641435037  0.49871833369637397  1.0000
  N   N1        1.0  0.6128658949379682  0.49162602530032734  0.1434888844165273  1.0000
  N   N2        1.0  0.38712750645016336  0.5083761116411836  0.8565126248706818  1.0000
  N   N3        1.0  0.782641021990564  0.50108073817875  0.5565133011533661  1.0000
  N   N4        1.0  0.21735282641311934  0.49892042444093926  0.44349017152186593  1.0000
  N   N5        1.0  0.8716125330564851  0.45309127007174504  0.6505655760759836  1.0000
  N   N6        1.0  0.12838364979932498  0.5469098462942554  0.34943556561312766  1.0000
  N   N7        1.0  0.3409553474246394  0.1269782232576873  0.8824461561959326  1.0000
  N   N8        1.0  0.6590425284775138  0.8730270464830028  0.11755370598022104  1.0000
  O   O1        1.0  0.32956045695755165  0.6817343871850527  0.046293755877165714  1.0000
  O   O2        1.0  0.6704559764875456  0.3182659830506722  0.9537087613529139  1.0000
  O   O3        1.0  0.46318813992070323  0.813511973520747  0.9076772725815021  1.0000
  O   O4        1.0  0.5368064829225007  0.18648928224207145  0.09229652166436608  1.0000
  O   O5        1.0  0.32565836151135136  0.9933163013722323  0.15725196658011245  1.0000
  O   O6        1.0  0.6743335006999657  0.006692043017281403  0.8427484984075378  1.0000
  O   O7        1.0  0.10512628102432577  0.9873181792979441  0.3112820171419628  1.0000
  O   O8        1.0  0.8948822298390412  0.012665334273918903  0.688718544118018  1.0000
  O   O9        1.0  0.24333254568046675  0.401913811790827  0.1305467762450832  1.0000
  O   O10       1.0  0.7567128512195964  0.598121854130156  0.8694389937274496  1.0000
