data_image0
_chemical_formula_structural       Cu2H10C10I2N4
_chemical_formula_sum              "Cu2 H10 C10 I2 N4"
_cell_length_a       4.12396684978665
_cell_length_b       7.66395986141442
_cell_length_c       10.6494531228152
_cell_angle_alpha    88.02176853856706
_cell_angle_beta     87.83720133604236
_cell_angle_gamma    79.2602417423789

_space_group_name_H-M_alt    "P 1"
_space_group_IT_number       1

loop_
  _space_group_symop_operation_xyz
  'x, y, z'

loop_
  _atom_site_type_symbol
  _atom_site_label
  _atom_site_symmetry_multiplicity
  _atom_site_fract_x
  _atom_site_fract_y
  _atom_site_fract_z
  _atom_site_occupancy
  Cu  Cu1       1.0  0.3059038928913509  0.12359354831306038  0.9393185171427376  1.0000
  Cu  Cu2       1.0  0.6940806168337518  0.8764018526860299  0.060678491002519805  1.0000
  H   H1        1.0  0.49759430924576975  0.06305813975296812  0.34820353523339526  1.0000
  H   H2        1.0  0.502389666228737  0.936938407255447  0.6518047303151846  1.0000
  H   H3        1.0  0.2365504810743534  0.9674858347686807  0.2542496819149634  1.0000
  H   H4        1.0  0.7634450182755544  0.03251212199278801  0.7457659146228792  1.0000
  H   H5        1.0  0.217378905874874  0.9404713909079093  0.42323758816831974  1.0000
  H   H6        1.0  0.7826272637273065  0.05951205552811702  0.5767771617490922  1.0000
  H   H7        1.0  0.7116563939193624  0.6383487515424378  0.6777954496498353  1.0000
  H   H8        1.0  0.28837822528044643  0.3616488759083723  0.3221980157567685  1.0000
  H   H9        1.0  0.8754927836747302  0.4554342491295316  0.8733978762847701  1.0000
  H   H10       1.0  0.12447296379881587  0.5445593474325747  0.1266088102939662  1.0000
  C   C1        1.0  0.637803719425165  0.7822090383200335  0.3346038317424274  1.0000
  C   C2        1.0  0.362192885950165  0.21779856769291683  0.665394687151661  1.0000
  C   C3        1.0  0.37970183073392155  0.9465571869685904  0.3400550555078753  1.0000
  C   C4        1.0  0.6203036065691949  0.053446754293567315  0.659931194352673  1.0000
  C   C5        1.0  0.9540868208834259  0.5459951597757569  0.4394901864577747  1.0000
  C   C6        1.0  0.04594620072565901  0.45400625429705616  0.5605154465299904  1.0000
  C   C7        1.0  0.8966031485623489  0.5173345920202195  0.6741165991335194  1.0000
  C   C8        1.0  0.10339615369729672  0.48267842193435234  0.32588085448625753  1.0000
  C   C9        1.0  0.9894593592225646  0.41729855130824944  0.7818968797452542  1.0000
  C   C10       1.0  0.010559692233947315  0.5826896529927766  0.21808474692758043  1.0000
  I   I1        1.0  0.7356081173491945  0.2166316981826313  0.0828479186207289  1.0000
  I   I2        1.0  0.26435579247304036  0.7833727894229058  0.9171445275498514  1.0000
  N   N1        1.0  0.7814029624298232  0.7337396245306923  0.22036171811925706  1.0000
  N   N2        1.0  0.21858612339423192  0.2662625074494329  0.779636994352373  1.0000
  N   N3        1.0  0.7195421342351128  0.6943732494192999  0.44264295514220453  1.0000
  N   N4        1.0  0.28048823093102027  0.3056348950134336  0.557356968970808  1.0000
