data_image0
_chemical_formula_structural       Co2H14C14N4Cl2O8
_chemical_formula_sum              "Co2 H14 C14 N4 Cl2 O8"
_cell_length_a       7.651924345271171
_cell_length_b       8.000603207991883
_cell_length_c       9.011439412811848
_cell_angle_alpha    80.05166945685144
_cell_angle_beta     64.83390202551399
_cell_angle_gamma    66.0173734486237

_space_group_name_H-M_alt    "P 1"
_space_group_IT_number       1

loop_
  _space_group_symop_operation_xyz
  'x, y, z'

loop_
  _atom_site_type_symbol
  _atom_site_label
  _atom_site_symmetry_multiplicity
  _atom_site_fract_x
  _atom_site_fract_y
  _atom_site_fract_z
  _atom_site_occupancy
  Co  Co1       1.0  0.4999997276713087  0.499999529971319  0.9999998939223572  1.0000
  Co  Co2       1.0  0.49999929719740516  1.2969395160030734e-07  5.754911995876486e-07  1.0000
  H   H1        1.0  0.1846772075005346  0.06951929592813143  0.7846309906188438  1.0000
  H   H2        1.0  0.030789019448263833  0.4304276394755178  0.7847252770348375  1.0000
  H   H3        1.0  0.8153216932541838  0.9304832875213336  0.21536944195819518  1.0000
  H   H4        1.0  0.9692130914127051  0.5695722223827246  0.21527456989931454  1.0000
  H   H5        1.0  0.12345466265869467  0.15934221703942336  0.6102610197031454  1.0000
  H   H6        1.0  0.26681648592952456  0.3405067587100206  0.610513537064115  1.0000
  H   H7        1.0  0.8765445059113619  0.8406576206889227  0.3897388894512802  1.0000
  H   H8        1.0  0.7331822864427552  0.6594944417396603  0.389484740062521  1.0000
  H   H9        1.0  0.055288099377826014  0.7500694134164051  0.889665499503259  1.0000
  H   H10       1.0  0.9447129003813898  0.24993044389429997  0.1103354562333578  1.0000
  H   H11       1.0  0.27780212562525713  0.933015563046908  0.39793253095884035  1.0000
  H   H12       1.0  0.32458518956562427  0.5667214960669682  0.3980932866437783  1.0000
  H   H13       1.0  0.7221994658389119  0.06698292629882022  0.6020684247120157  1.0000
  H   H14       1.0  0.6754108412063428  0.4332783227751166  0.6019083168244848  1.0000
  C   C1        1.0  0.8582920434410896  0.1540519581658302  0.828730061295474  1.0000
  C   C2        1.0  0.3127800112005588  0.3460149724221182  0.829095560302079  1.0000
  C   C3        1.0  0.14170823623072695  0.8459478841100534  0.17126873905650086  1.0000
  C   C4        1.0  0.6872217757707944  0.6539835116799823  0.17090376327522708  1.0000
  C   C5        1.0  0.09120815255658936  0.07186689205877171  0.7184987413730396  1.0000
  C   C6        1.0  0.19049036806793396  0.42809669167911574  0.7187196474128187  1.0000
  C   C7        1.0  0.9087921271152198  0.9281329502171188  0.2815000589789348  1.0000
  C   C8        1.0  0.8095078849075464  0.5719031362580509  0.2812797384505217  1.0000
  C   C9        1.0  0.12165320903451261  0.7499973050268308  0.757053500433571  1.0000
  C   C10       1.0  0.87834687513012  0.2500025424926875  0.24294693201195372  1.0000
  C   C11       1.0  0.24088562718529255  0.8390501426399908  0.4976203045761096  1.0000
  C   C12       1.0  0.2618508507050948  0.6607594052532304  0.497695027340299  1.0000
  C   C13       1.0  0.7591138652743862  0.16095107284450447  0.5023801279351758  1.0000
  C   C14       1.0  0.7381462911686253  0.33924041813639866  0.502305467325506  1.0000
  N   N1        1.0  0.15376782886809065  0.8906203591057319  0.6601300683429867  1.0000
  N   N2        1.0  0.1864362472025361  0.609303692021733  0.6602465010008985  1.0000
  N   N3        1.0  0.8462331708911248  0.10937949820496581  0.33987088739362287  1.0000
  N   N4        1.0  0.8135618102657671  0.3906961411590687  0.33975451695599185  1.0000
  Cl  Cl1       1.0  0.5996878157805269  0.7500628122257069  0.800509392323164  1.0000
  Cl  Cl2       1.0  0.4003131839786889  0.24993704508499803  0.19949156341345292  1.0000
  O   O1        1.0  0.7998500221487813  0.3120494672270838  0.8837189834785022  1.0000
  O   O2        1.0  0.3160993314086228  0.18805063892919802  0.8841157854584621  1.0000
  O   O3        1.0  0.20015025752303464  0.6879503750488  0.11627981687347232  1.0000
  O   O4        1.0  0.6839004288663942  0.8119478308341783  0.11588412363020946  1.0000
  O   O5        1.0  0.7515531987518997  0.059817178336999205  0.8505402258193869  1.0000
  O   O6        1.0  0.39755721936798244  0.440306403534521  0.8509857433269375  1.0000
  O   O7        1.0  0.2484479965144929  0.9401826737300708  0.1494590978236728  1.0000
  O   O8        1.0  0.6024439758984101  0.559693448532542  0.14901358031612222  1.0000
