data_image0
_chemical_formula_structural       Mg4H48C16O32
_chemical_formula_sum              "Mg4 H48 C16 O32"
_cell_length_a       7.436829372775405
_cell_length_b       7.666632962284614
_cell_length_c       14.32875528802856
_cell_angle_alpha    89.99978134165997
_cell_angle_beta     89.99996467321246
_cell_angle_gamma    98.68130043580886

_space_group_name_H-M_alt    "P 1"
_space_group_IT_number       1

loop_
  _space_group_symop_operation_xyz
  'x, y, z'

loop_
  _atom_site_type_symbol
  _atom_site_label
  _atom_site_symmetry_multiplicity
  _atom_site_fract_x
  _atom_site_fract_y
  _atom_site_fract_z
  _atom_site_occupancy
  Mg  Mg1       1.0  0.07677137123074831  0.8162187891612048  0.6442281741154332  1.0000
  Mg  Mg2       1.0  0.0767724564903887  0.3162171947882797  0.8557718336724777  1.0000
  Mg  Mg3       1.0  0.9232283627859345  0.1837807630391594  0.35577166864879933  1.0000
  Mg  Mg4       1.0  0.9232288394316086  0.6837836628889774  0.1442280090901704  1.0000
  H   H1        1.0  0.38758768729265825  0.7322865367955912  0.636665096694408  1.0000
  H   H2        1.0  0.3875887548327698  0.23228488600126698  0.8633349828946282  1.0000
  H   H3        1.0  0.6124122662102992  0.2677143347992086  0.36333544396576667  1.0000
  H   H4        1.0  0.612411198671829  0.7677159855987412  0.13666416197089154  1.0000
  H   H5        1.0  0.27624300193247825  0.589429250025148  0.5664881951547969  1.0000
  H   H6        1.0  0.2762439050546917  0.08942707570201948  0.9335129104791026  1.0000
  H   H7        1.0  0.723756951570479  0.41057162156965876  0.4335123455053776  1.0000
  H   H8        1.0  0.7237571713793896  0.9105724625755937  0.06648763018225881  1.0000
  H   H9        1.0  0.7529110786560552  0.9519707519388517  0.6406421300346566  1.0000
  H   H10       1.0  0.752913497931985  0.4519691168928545  0.8593580804105443  1.0000
  H   H11       1.0  0.24708865535980354  0.048028800258911986  0.3593584106269035  1.0000
  H   H12       1.0  0.247087359016632  0.5480291019929238  0.14064106445754732  1.0000
  H   H13       1.0  0.8827174068596476  0.035880004348158  0.7217380178753672  1.0000
  H   H14       1.0  0.8827200348279405  0.5358805570570906  0.7782623044031851  1.0000
  H   H15       1.0  0.1172821076699293  0.9641182284551703  0.2782618248902509  1.0000
  H   H16       1.0  0.1172808221198594  0.46411766182608716  0.22173753836223406  1.0000
  H   H17       1.0  0.19100855420975899  0.7306024380692971  0.8202184078331316  1.0000
  H   H18       1.0  0.19100624402727112  0.2306035177537565  0.6797817384180507  1.0000
  H   H19       1.0  0.8089925222243225  0.269397100208316  0.17978213282822253  1.0000
  H   H20       1.0  0.8089934899885877  0.7693960344440072  0.3202188022435096  1.0000
  H   H21       1.0  0.19998750897767084  0.9402667975776282  0.811919494760325  1.0000
  H   H22       1.0  0.199984959864338  0.44026649595353706  0.6880809174502789  1.0000
  H   H23       1.0  0.8000135674564107  0.0597327406999852  0.1880810459010362  1.0000
  H   H24       1.0  0.8000145546644148  0.5597317368471834  0.311919623212667  1.0000
  H   H25       1.0  0.046694610984829375  0.8719597313587354  0.4464503008137371  1.0000
  H   H26       1.0  0.046691938089026115  0.3719577945536443  0.05354927373148402  1.0000
  H   H27       1.0  0.9533051230310293  0.1280398208390281  0.5535502398478229  1.0000
  H   H28       1.0  0.9533077959276498  0.62804175764672  0.9464505690327488  1.0000
  H   H29       1.0  0.9204788162598588  0.705141345801209  0.495335944991929  1.0000
  H   H30       1.0  0.920476477386359  0.20514109308872716  0.0046622941285506  1.0000
  H   H31       1.0  0.07952091775599969  0.29485820639655447  0.504664595669631  1.0000
  H   H32       1.0  0.0795245990493569  0.7948584451940873  0.9953368507381555  1.0000
  H   H33       1.0  0.7422516319552628  0.27090800691922107  0.6926305962096748  1.0000
  H   H34       1.0  0.7422488220557141  0.7709083981668241  0.8073692902871414  1.0000
  H   H35       1.0  0.25774966396510723  0.7290928507528276  0.3073706423476281  1.0000
  H   H36       1.0  0.25775135093516616  0.22909379282761924  0.1926305524743199  1.0000
  H   H37       1.0  0.5596702487895867  0.3892829177325864  0.7044905716058096  1.0000
  H   H38       1.0  0.5596676861639693  0.8892847168542202  0.7955091313666645  1.0000
  H   H39       1.0  0.44032948522545473  0.6107166344625767  0.2955106669530779  1.0000
  H   H40       1.0  0.4403338292459509  0.11071746022267348  0.20449001349727075  1.0000
  H   H41       1.0  0.4498941521131102  0.2971130506161899  0.5424640487774256  1.0000
  H   H42       1.0  0.44989120987460746  0.7971136409991073  0.9575379718054082  1.0000
  H   H43       1.0  0.5501084862246586  0.7028877931331009  0.457537887676999  1.0000
  H   H44       1.0  0.5501087436299913  0.20288723060090055  0.042461173060111414  1.0000
  H   H45       1.0  0.6434733924643086  0.18924242799565852  0.5281635139161054  1.0000
  H   H46       1.0  0.6434728820728497  0.6892415644653835  0.9718365714661844  1.0000
  H   H47       1.0  0.35652902638798883  0.8107570963618044  0.4718370267450496  1.0000
  H   H48       1.0  0.35652707143174206  0.3107593071346244  0.0281625733993351  1.0000
  C   C1        1.0  0.76765181537597  0.5040589838783943  0.6117370745149273  1.0000
  C   C2        1.0  0.7676517015817836  0.004058480437656394  0.8882626519896138  1.0000
  C   C3        1.0  0.2323479186398885  0.4959405683193692  0.38826346614663276  1.0000
  C   C4        1.0  0.2323507172721548  0.9959410439250146  0.1117364928768865  1.0000
  C   C5        1.0  0.6509395542294882  0.342888328694464  0.6526982480454464  1.0000
  C   C6        1.0  0.6509350888660566  0.8428871165620887  0.8473029163143835  1.0000
  C   C7        1.0  0.34906376806520006  0.6571085429435611  0.34730368841293574  1.0000
  C   C8        1.0  0.34906486464016945  0.15711375504312733  0.1526948327564881  1.0000
  C   C9        1.0  0.5454460860978046  0.22521301386206005  0.5789822824591085  1.0000
  C   C10       1.0  0.5454456947683115  0.7252125294411867  0.9210184587355243  1.0000
  C   C11       1.0  0.45455386740352577  0.7747878577275387  0.42101965399572094  1.0000
  C   C12       1.0  0.45455335529226915  0.274790994873051  0.07898068612743  1.0000
  C   C13       1.0  0.4419171778368637  0.054679067333815085  0.6167045219603582  1.0000
  C   C14       1.0  0.4419128476329136  0.5546789060879291  0.883295205710219  1.0000
  C   C15       1.0  0.5580838985988522  0.9453204709489993  0.3832946229063482  1.0000
  C   C16       1.0  0.5580844210352326  0.44532199335238687  0.1167039391557054  1.0000
  O   O1        1.0  0.8744507043115134  0.6006665763234977  0.6680747201335606  1.0000
  O   O2        1.0  0.8744493800930473  0.1006665070894641  0.8319240764325218  1.0000
  O   O3        1.0  0.12555037212338502  0.3993329619567162  0.3319251226304659  1.0000
  O   O4        1.0  0.12555191583059158  0.899334350593001  0.16807437053547863  1.0000
  O   O5        1.0  0.7568299772386737  0.5400906295251459  0.5257239855511884  1.0000
  O   O6        1.0  0.7568271965769213  0.040090831660485486  0.9742749728017018  1.0000
  O   O7        1.0  0.243168414358145  0.45990893659016757  0.4742772530078982  1.0000
  O   O8        1.0  0.24317544176412303  0.9599100120992217  0.025724172063412706  1.0000
  O   O9        1.0  0.2699516152161223  0.044487854490775205  0.628827734488631  1.0000
  O   O10       1.0  0.2699497787639516  0.5444864364447354  0.8711727672377877  1.0000
  O   O11       1.0  0.730049680705882  0.9555130031864747  0.3711721082740169  1.0000
  O   O12       1.0  0.7300488323207901  0.45551444907021477  0.12882777342258586  1.0000
  O   O13       1.0  0.5275832576486293  0.9251564912502487  0.632266727893388  1.0000
  O   O14       1.0  0.5275822885100468  0.42515879367942927  0.8677322140891167  1.0000
  O   O15       1.0  0.47241625688176475  0.07484174155568009  0.3677324169749029  1.0000
  O   O16       1.0  0.4724151996460293  0.5748434251605231  0.1322662328781021  1.0000
  O   O17       1.0  0.27458968732749867  0.6422113050389199  0.6306751542789969  1.0000
  O   O18       1.0  0.27458939841535823  0.14220962347850016  0.8693251459771005  1.0000
  O   O19       1.0  0.7254100466883601  0.3577882471588437  0.3693253863825632  1.0000
  O   O20       1.0  0.7254103356013177  0.8577899287218641  0.1306746967871319  1.0000
  O   O21       1.0  0.8853000497088815  0.9870853170934805  0.6564983000644062  1.0000
  O   O22       1.0  0.8853042875257986  0.48708642520745826  0.8435024938423583  1.0000
  O   O23       1.0  0.1146976834274511  0.012910290833318095  0.34350224060150947  1.0000
  O   O24       1.0  0.1146965694220015  0.5129117936757125  0.15649734892306102  1.0000
  O   O25       1.0  0.1417960620830243  0.8255239407906955  0.7859403935613757  1.0000
  O   O26       1.0  0.1417950140101993  0.32552475084170135  0.7140588763739046  1.0000
  O   O27       1.0  0.8582050143518742  0.17447559748951844  0.21405944920265804  1.0000
  O   O28       1.0  0.858206281910988  0.674476106832948  0.2859416642860708  1.0000
  O   O29       1.0  0.03136287228821997  0.7958910138884218  0.5022884482652332  1.0000
  O   O30       1.0  0.031362502068468204  0.295889693954024  0.9977109178265169  1.0000
  O   O31       1.0  0.9686355193102331  0.20410855223209268  0.4977113944991985  1.0000
  O   O32       1.0  0.9686374514353063  0.7041111776433836  0.0022889249363374  1.0000
