data_image0
_chemical_formula_structural       Al2H24C48O24
_chemical_formula_sum              "Al2 H24 C48 O24"
_cell_length_a       4.21313184600267
_cell_length_b       24.44967710232994
_cell_length_c       24.449610350235865
_cell_angle_alpha    120.00010164433512
_cell_angle_beta     89.99998074717293
_cell_angle_gamma    89.99989910833477

_space_group_name_H-M_alt    "P 1"
_space_group_IT_number       1

loop_
  _space_group_symop_operation_xyz
  'x, y, z'

loop_
  _atom_site_type_symbol
  _atom_site_label
  _atom_site_symmetry_multiplicity
  _atom_site_fract_x
  _atom_site_fract_y
  _atom_site_fract_z
  _atom_site_occupancy
  Al  Al1       1.0  0.04888220949294461  0.4999988725567591  0.5000016757126247  1.0000
  Al  Al2       1.0  0.048223756246393606  0.16666600016152  0.833334732423289  1.0000
  H   H1        1.0  0.31754707716662983  0.43442028961815293  0.7245438413120057  1.0000
  H   H2        1.0  0.31754585017004905  0.23221763804229312  0.6087784169037819  1.0000
  H   H3        1.0  0.7727670630399216  0.33135379035372403  0.8249554739804809  1.0000
  H   H4        1.0  0.7531709331684696  0.3920125290395335  0.7678482163161676  1.0000
  H   H5        1.0  0.7729904575850667  0.3353262913102739  0.508387287537893  1.0000
  H   H6        1.0  0.7531622339782446  0.27463455855928504  0.5654596587655476  1.0000
  H   H7        1.0  0.3175169249228347  0.7901184836714777  0.5655795174879686  1.0000
  H   H8        1.0  0.31752103570298834  0.8765583174207023  0.7677826860117918  1.0000
  H   H9        1.0  0.772780435121021  0.9935980072285416  0.6686476422664853  1.0000
  H   H10       1.0  0.7531709814080116  0.8758323077718941  0.6079885447915528  1.0000
  H   H11       1.0  0.7730146868799964  0.6730605417720739  0.664672769229398  1.0000
  H   H12       1.0  0.753178425107116  0.7908250896126957  0.7253632990107306  1.0000
  H   H13       1.0  0.3175460104377734  0.27545632930340247  0.20987880189597516  1.0000
  H   H14       1.0  0.31755974135047177  0.3912231908443288  0.12344274011723395  1.0000
  H   H15       1.0  0.7727757676651947  0.17504393019550687  0.006401197405729359  1.0000
  H   H16       1.0  0.7531771150959088  0.2321517852674262  0.1241674975164671  1.0000
  H   H17       1.0  0.773013566008153  0.491609666226026  0.3269426670877706  1.0000
  H   H18       1.0  0.753187864706547  0.43453845400264157  0.2091790027293072  1.0000
  H   H19       1.0  0.6933311045910387  0.5495406201840111  0.6904238631516151  1.0000
  H   H20       1.0  0.6931268677241889  0.11712954394518967  0.642981226289713  1.0000
  H   H21       1.0  0.6933142516598637  0.6408785958196076  0.4504576400705885  1.0000
  H   H22       1.0  0.6931152380669872  0.025848123872464514  0.8828679891923985  1.0000
  H   H23       1.0  0.6933397714224938  0.30957540080972723  0.35912073554898427  1.0000
  H   H24       1.0  0.693153804376692  0.3570191031876463  0.9741506035265745  1.0000
  C   C1        1.0  0.5517649779376087  0.4526871244835248  0.40439056248396815  1.0000
  C   C2        1.0  0.5517624726862921  0.45169977641223363  0.547312696047861  1.0000
  C   C3        1.0  0.5517617345892205  0.595609382706094  0.5483015570865817  1.0000
  C   C4        1.0  0.5511819414383936  0.2150107916389956  0.7860709060418075  1.0000
  C   C5        1.0  0.5511803063166738  0.0710573767042606  0.7849900640049585  1.0000
  C   C6        1.0  0.5511889308391177  0.21392997029582989  0.9289425433922605  1.0000
  C   C7        1.0  0.5526265759805399  0.41796385541140774  0.5837580544354709  1.0000
  C   C8        1.0  0.5523424604702285  0.2487153284654084  0.7495955804188057  1.0000
  C   C9        1.0  0.42262094795305677  0.4460004182330196  0.6449050696694131  1.0000
  C   C10       1.0  0.4183439858900755  0.4124093128481832  0.6771474593525895  1.0000
  C   C11       1.0  0.42246303393616097  0.22066554524433016  0.6884381573138044  1.0000
  C   C12       1.0  0.41829022494534485  0.25423783830839164  0.6561769545892205  1.0000
  C   C13       1.0  0.672779839931856  0.31026486414709353  0.7775819121094187  1.0000
  C   C14       1.0  0.6600290878541842  0.34400204090064795  0.7457259817869897  1.0000
  C   C15       1.0  0.6729625777823784  0.356404956484326  0.555754822605195  1.0000
  C   C16       1.0  0.6600696985828948  0.32265178792279414  0.5875923976213216  1.0000
  C   C17       1.0  0.5368120196561676  0.3506496181484096  0.6491323421238349  1.0000
  C   C18       1.0  0.536786054786937  0.31599334417028063  0.6841855408353013  1.0000
  C   C19       1.0  0.5526205611183955  0.6657906863185091  0.5820359379477509  1.0000
  C   C20       1.0  0.5523389812940067  0.0008776826760697802  0.7512851572513173  1.0000
  C   C21       1.0  0.4226149924526794  0.6989005230798498  0.5540000916280833  1.0000
  C   C22       1.0  0.41832327862386626  0.7647347689173356  0.5875906737180613  1.0000
  C   C23       1.0  0.42244013178733303  0.9677707336767581  0.779334859833547  1.0000
  C   C24       1.0  0.41827020677254023  0.901936986845584  0.745761778043658  1.0000
  C   C25       1.0  0.6727860525126915  0.9673137651163728  0.6897360561583313  1.0000
  C   C26       1.0  0.6600239433764942  0.9017215450489289  0.6559983424572523  1.0000
  C   C27       1.0  0.6729702311812318  0.6993481295896374  0.6435933521262882  1.0000
  C   C28       1.0  0.6600768412712839  0.7649397983246401  0.6773479866673427  1.0000
  C   C29       1.0  0.5367954843311014  0.7984800505946977  0.6493496225318509  1.0000
  C   C30       1.0  0.5367737323125398  0.8681890551778508  0.684005393534136  1.0000
  C   C31       1.0  0.5526410648112332  0.41624109615449356  0.3342106500049198  1.0000
  C   C32       1.0  0.5523564542024388  0.25040512672552506  0.9991227752800499  1.0000
  C   C33       1.0  0.42264073087950754  0.3550942643350509  0.3010976003403981  1.0000
  C   C34       1.0  0.4183472410496663  0.32285189841515916  0.23526304067044632  1.0000
  C   C35       1.0  0.42248218457647374  0.3115630970962755  0.03222966433261114  1.0000
  C   C36       1.0  0.4183045413640301  0.3438236723561801  0.09806401387567824  1.0000
  C   C37       1.0  0.6727928704387055  0.22241810948839455  0.032685442885352176  1.0000
  C   C38       1.0  0.6600396612086713  0.2542736335512926  0.09827861999586666  1.0000
  C   C39       1.0  0.672978986706994  0.44424184367234426  0.3006529551804533  1.0000
  C   C40       1.0  0.660090937988578  0.4124061687682286  0.2350612063700552  1.0000
  C   C41       1.0  0.5368195674961668  0.35086851389488777  0.2015209681402794  1.0000
  C   C42       1.0  0.5367913313931396  0.3158143201564059  0.1318110075614669  1.0000
  C   C43       1.0  0.28076174215367905  0.511165619062048  0.6774624686150831  1.0000
  C   C44       1.0  0.28051673739661714  0.1554962155328782  0.6558964420677996  1.0000
  C   C45       1.0  0.2807326456917778  0.666291968483435  0.48883361856913876  1.0000
  C   C46       1.0  0.2805458337329156  0.0003987042937014911  0.8445021798533079  1.0000
  C   C47       1.0  0.28074879617265225  0.32253448664357615  0.33370586980032607  1.0000
  C   C48       1.0  0.28053917766581543  0.3441048787055579  0.9996027072401504  1.0000
  O   O1        1.0  0.7834873450393971  0.5682629180725343  0.5585303823627044  1.0000
  O   O2        1.0  0.7834854923862553  0.49026359670917696  0.4317385417109278  1.0000
  O   O3        1.0  0.7834904147355531  0.44147084189578584  0.5097370210925406  1.0000
  O   O4        1.0  0.3152086650411476  0.5686027911339623  0.5119452248482332  1.0000
  O   O5        1.0  0.31520428777143655  0.4880558292083279  0.5566620947619612  1.0000
  O   O6        1.0  0.3152070102421334  0.4433378836775219  0.43139671422449777  1.0000
  O   O7        1.0  0.7827793385368054  0.17632712656184432  0.9015635074722044  1.0000
  O   O8        1.0  0.7827767890301445  0.22523426357135914  0.8236723263366772  1.0000
  O   O9        1.0  0.7827751118065508  0.09843536764375227  0.7747663552036528  1.0000
  O   O10       1.0  0.31449800125653843  0.22328267153911707  0.9019690948406806  1.0000
  O   O11       1.0  0.3144939729499185  0.09803238993365689  0.8213176130644371  1.0000
  O   O12       1.0  0.31449834957878414  0.17868246271505944  0.7767184947882414  1.0000
  O   O13       1.0  0.45918456018738146  0.56118218802456  0.6933061074028686  1.0000
  O   O14       1.0  0.9962294591908006  0.5167289446104348  0.6914763188594008  1.0000
  O   O15       1.0  0.45903266575333396  0.10549320703040642  0.6401070086011347  1.0000
  O   O16       1.0  0.996119829600346  0.14992304397371484  0.6418624719440517  1.0000
  O   O17       1.0  0.45917019918204727  0.6321200503688971  0.4388167517319559  1.0000
  O   O18       1.0  0.9962217284675038  0.6747399761228224  0.4832720679967083  1.0000
  O   O19       1.0  0.45900667652635013  0.03461160536153332  0.8945057468285426  1.0000
  O   O20       1.0  0.9960725937155248  0.9919359933955573  0.8500790240809266  1.0000
  O   O21       1.0  0.45920041638396475  0.3066931791053947  0.36787965098653796  1.0000
  O   O22       1.0  0.9962593585354967  0.3085236057531374  0.32525561361944  1.0000
  O   O23       1.0  0.4590595337154113  0.35989293213584983  0.9653879800545015  1.0000
  O   O24       1.0  0.9961454784411072  0.35814000389022727  0.008063351878533341  1.0000
