data_image0
_chemical_formula_structural       U2H28C16N4O14
_chemical_formula_sum              "U2 H28 C16 N4 O14"
_cell_length_a       8.644432722580198
_cell_length_b       9.482686615437757
_cell_length_c       9.640843906173268
_cell_angle_alpha    61.429667697047336
_cell_angle_beta     70.81752570757908
_cell_angle_gamma    66.14946170925884

_space_group_name_H-M_alt    "P 1"
_space_group_IT_number       1

loop_
  _space_group_symop_operation_xyz
  'x, y, z'

loop_
  _atom_site_type_symbol
  _atom_site_label
  _atom_site_symmetry_multiplicity
  _atom_site_fract_x
  _atom_site_fract_y
  _atom_site_fract_z
  _atom_site_occupancy
  U   U1        1.0  0.3287644394566627  0.8199155577819468  0.2935757849656042  1.0000
  U   U2        1.0  0.6712350681146333  0.18008145269757847  0.7064245051524194  1.0000
  H   H1        1.0  0.984904232131832  0.4309784410286071  0.3236239787715504  1.0000
  H   H2        1.0  0.01509416249989931  0.569022346561347  0.6763758911538887  1.0000
  H   H3        1.0  0.3609621031126195  0.4144538011601  0.41486568284762626  1.0000
  H   H4        1.0  0.6390370319823475  0.5855444706854699  0.5851351580508463  1.0000
  H   H5        1.0  0.24994695077435827  0.5202369076964785  0.8606920530373399  1.0000
  H   H6        1.0  0.7500579523896178  0.47976256652069077  0.13930859967474155  1.0000
  H   H7        1.0  0.08121036435468905  0.7060688351741861  0.8562437720862163  1.0000
  H   H8        1.0  0.9187924519248866  0.2939294061661143  0.14375807620589842  1.0000
  H   H9        1.0  0.322435463897591  0.6242049388546603  0.008919743026254472  1.0000
  H   H10       1.0  0.6775674724898477  0.37579706011070607  0.9910792574926007  1.0000
  H   H11       1.0  0.4626516169208443  0.6627774400485437  0.8235861540118349  1.0000
  H   H12       1.0  0.5373525457798891  0.3372245499130102  0.17641352772721317  1.0000
  H   H13       1.0  0.25207970815696956  0.9641159942837164  0.7215512567640797  1.0000
  H   H14       1.0  0.7479186842300507  0.03588479680009729  0.27844964942832456  1.0000
  H   H15       1.0  0.1442067500873064  0.9166858707338577  0.9233575189024065  1.0000
  H   H16       1.0  0.8557948376342634  0.0833123831041007  0.07664468443646641  1.0000
  H   H17       1.0  0.7917215119840291  0.658553692829571  0.17847758830857424  1.0000
  H   H18       1.0  0.208277743218801  0.341448336641065  0.8215204048166311  1.0000
  H   H19       1.0  0.8275382258346013  0.7652517316280906  0.26801363524960214  1.0000
  H   H20       1.0  0.17246385447115387  0.2347490184688823  0.7319851695355624  1.0000
  H   H21       1.0  0.9444305911856714  0.773085139809879  0.07533124209913229  1.0000
  H   H22       1.0  0.055570260562078  0.22691562278475894  0.9246679177327907  1.0000
  H   H23       1.0  0.37164459684579737  0.14496306946679033  0.47830070076833653  1.0000
  H   H24       1.0  0.6283545427385846  0.8550351953910748  0.521698067596212  1.0000
  H   H25       1.0  0.14246177010742397  0.21036952580633536  0.5049324706833644  1.0000
  H   H26       1.0  0.85753699924534  0.7896299969237218  0.49506581219467427  1.0000
  H   H27       1.0  0.26642346455677307  0.22559164734772708  0.313038747293092  1.0000
  H   H28       1.0  0.7335761631223788  0.7744091207568644  0.6869586950516646  1.0000
  C   C1        1.0  0.2471418512863011  0.7236017673392041  0.6355741006365176  1.0000
  C   C2        1.0  0.7528589982167374  0.2763989987492863  0.36442609546236326  1.0000
  C   C3        1.0  0.21943565575990215  0.6575853118424746  0.815819269429319  1.0000
  C   C4        1.0  0.7805680210907723  0.3424141713785004  0.18418070206256232  1.0000
  C   C5        1.0  0.32795102892019673  0.699391746088068  0.8795649994395729  1.0000
  C   C6        1.0  0.6720510513855587  0.30060900400890483  0.12043380534559128  1.0000
  C   C7        1.0  0.26846555393888855  0.8871138689311239  0.8467694901629556  1.0000
  C   C8        1.0  0.7315344372377622  0.11288565178283247  0.1532315464692005  1.0000
  C   C9        1.0  0.39438957733405283  0.933373648109182  0.8827672277947298  1.0000
  C   C10       1.0  0.605613359053386  0.06662835085618471  0.1172317727241178  1.0000
  C   C11       1.0  0.14886978258369507  0.5472688626647296  0.3109211715520459  1.0000
  C   C12       1.0  0.8511293525112719  0.4527294091808399  0.6890796693464267  1.0000
  C   C13       1.0  0.8898470057620639  0.6929422451836301  0.19325693817842193  1.0000
  C   C14       1.0  0.11015139111437826  0.3070585389124716  0.8067418954800586  1.0000
  C   C15       1.0  0.25984612698653103  0.2374851877569881  0.4230305669340239  1.0000
  C   C16       1.0  0.7401510458213136  0.7625156018490672  0.5769665492372981  1.0000
  N   N1        1.0  0.02013897032633588  0.5397046280752278  0.26807919149680964  1.0000
  N   N2        1.0  0.9798606506186973  0.46029615051092776  0.7319213596488364  1.0000
  N   N3        1.0  0.26247265303173617  0.40360954278853717  0.388626207232086  1.0000
  N   N4        1.0  0.7375248855183116  0.5963899959330377  0.6113734669596694  1.0000
  O   O1        1.0  0.15909621757545267  0.0186559572447962  0.24928247993571515  1.0000
  O   O2        1.0  0.8409020659272529  0.9813410587446754  0.7507160926951427  1.0000
  O   O3        1.0  0.49957417278841376  0.6217128028406336  0.3315754739861274  1.0000
  O   O4        1.0  0.500423368006345  0.37828673238708177  0.6684231639386625  1.0000
  O   O5        1.0  0.16017715524868234  0.7004756717980812  0.5672215056757253  1.0000
  O   O6        1.0  0.8398212348936339  0.2995251227795849  0.43278043678363787  1.0000
  O   O7        1.0  0.35909773164301834  0.801133802052199  0.5471942878771897  1.0000
  O   O8        1.0  0.640903490336349  0.1988657026702469  0.45280535744124245  1.0000
  O   O9        1.0  0.4742895684573866  0.0328077950840751  0.7687669186818124  1.0000
  O   O10       1.0  0.5257074819978981  0.967189240390766  0.23123408152972783  1.0000
  O   O11       1.0  0.41823656198754827  0.8674090089021007  0.027528130674206085  1.0000
  O   O12       1.0  0.5817615802757102  0.13259679767897128  0.9724694422584221  1.0000
  O   O13       1.0  0.1614311962714652  0.6924414365995658  0.2737667754770571  1.0000
  O   O14       1.0  0.8385691651368036  0.3075568262421981  0.7262347466416157  1.0000
