data_image0
_chemical_formula_structural       Ag2H24C22S2N6O6
_chemical_formula_sum              "Ag2 H24 C22 S2 N6 O6"
_cell_length_a       6.788192427753031
_cell_length_b       10.928601750837101
_cell_length_c       10.928615037706763
_cell_angle_alpha    97.12681808473882
_cell_angle_beta     113.0657814780822
_cell_angle_gamma    113.06706684254523

_space_group_name_H-M_alt    "P 1"
_space_group_IT_number       1

loop_
  _space_group_symop_operation_xyz
  'x, y, z'

loop_
  _atom_site_type_symbol
  _atom_site_label
  _atom_site_symmetry_multiplicity
  _atom_site_fract_x
  _atom_site_fract_y
  _atom_site_fract_z
  _atom_site_occupancy
  Ag  Ag1       1.0  0.8034029423190745  0.8732380632793166  0.2566373021698922  1.0000
  Ag  Ag2       1.0  0.19666506504396616  0.7433885130361375  0.12676443927858833  1.0000
  H   H1        1.0  0.8274747410787453  0.25388669700519273  0.05335797180644862  1.0000
  H   H2        1.0  0.17245083818723164  0.946637757441359  0.7461029656594961  1.0000
  H   H3        1.0  0.8613560374211031  0.3947910981605319  0.9947589717254597  1.0000
  H   H4        1.0  0.13860128199533508  0.005220764379799898  0.6052153432606174  1.0000
  H   H5        1.0  0.7324131109095902  0.027933178407799616  0.9048559611696446  1.0000
  H   H6        1.0  0.2674646823214458  0.09511241018427802  0.9720378525058138  1.0000
  H   H7        1.0  0.5978307771684256  0.8833254293190863  0.667316243541755  1.0000
  H   H8        1.0  0.4020747815389711  0.3326583638595366  0.11663354625787997  1.0000
  H   H9        1.0  0.6539057133632296  0.2408641541114633  0.523482169752455  1.0000
  H   H10       1.0  0.34622310044938587  0.47656863698345836  0.7591286583998026  1.0000
  H   H11       1.0  0.79275674555808  0.3847819961240972  0.759910396861727  1.0000
  H   H12       1.0  0.20730759236930393  0.2401094914394903  0.6152433735733922  1.0000
  H   H13       1.0  0.13091605003420878  0.1357781863318479  0.2565076442273834  1.0000
  H   H14       1.0  0.8690054436160036  0.7436546982435318  0.8640607128169647  1.0000
  H   H15       1.0  0.31230840317169845  0.3206805157218966  0.3329140946765462  1.0000
  H   H16       1.0  0.687505026437371  0.6668401671213077  0.6792282277208983  1.0000
  H   H17       1.0  0.28375408577395694  0.21351587998103846  0.4404611881166431  1.0000
  H   H18       1.0  0.7165080840254915  0.5596711115226256  0.7867655579151672  1.0000
  H   H19       1.0  0.2122602411758479  0.5632328388710874  0.4195031704891008  1.0000
  H   H20       1.0  0.7877238950468094  0.5804573154884097  0.43676901148188557  1.0000
  H   H21       1.0  0.167915747140846  0.4814119732472977  0.25417387639738825  1.0000
  H   H22       1.0  0.8320045351062078  0.7457787080842878  0.5185466390108857  1.0000
  H   H23       1.0  0.9612298901268089  0.5405325098934952  0.26433477309745257  1.0000
  H   H24       1.0  0.03874396438617844  0.7356334332351014  0.4594437275620323  1.0000
  C   C1        1.0  0.7719555622124119  0.21735306538015928  0.8501645501612671  1.0000
  C   C2        1.0  0.2280319294408031  0.1498167949251865  0.7826318519298353  1.0000
  C   C3        1.0  0.71505142573816  0.07457937874565353  0.8209616092966739  1.0000
  C   C4        1.0  0.2849015477135382  0.17902125683439613  0.9253920266612919  1.0000
  C   C5        1.0  0.6407024892335899  0.9930089065576484  0.6877551597603855  1.0000
  C   C6        1.0  0.3592955437817977  0.3122563669000087  0.006969317272371705  1.0000
  C   C7        1.0  0.6161653305661473  0.05157052036139481  0.5788683060897171  1.0000
  C   C8        1.0  0.38385327052672835  0.4211685818065264  0.9484351591542435  1.0000
  C   C9        1.0  0.6699121703742604  0.19319429593615214  0.6057465221727654  1.0000
  C   C10       1.0  0.3300961548203957  0.39428724087499484  0.8067990632283751  1.0000
  C   C11       1.0  0.7479438295837042  0.27454021434137843  0.7395493984720929  1.0000
  C   C12       1.0  0.2520992481206363  0.26045508374322424  0.7254679641218258  1.0000
  C   C13       1.0  0.7693449901205651  0.14168410152297645  0.3380752100174148  1.0000
  C   C14       1.0  0.2306978402507411  0.661942579890713  0.8583009299706743  1.0000
  C   C15       1.0  0.967102776157105  0.23939428167456359  0.33196298681744446  1.0000
  C   C16       1.0  0.032887627637770006  0.6680381921846106  0.7605904460553745  1.0000
  C   C17       1.0  0.9144092377975281  0.3524489308574843  0.3154665321890703  1.0000
  C   C18       1.0  0.0855760247958273  0.6845517514250261  0.6475721770642479  1.0000
  C   C19       1.0  0.1830601560104625  0.2272989868663445  0.34115754326305137  1.0000
  C   C20       1.0  0.8169384374184645  0.6588523579959614  0.772710790335786  1.0000
  C   C21       1.0  0.07194540123522598  0.4913661049366597  0.3122481808737518  1.0000
  C   C22       1.0  0.9280270871090367  0.6877104856480829  0.5086352537156813  1.0000
  S   S1        1.0  0.5301323438945645  0.9407246289667699  0.4153103769629709  1.0000
  S   S2        1.0  0.4699096885469628  0.5846701656005209  0.05928174662864898  1.0000
  N   N1        1.0  0.8558204302734395  0.29992702624285533  0.9825491312588213  1.0000
  N   N2        1.0  0.1441453821892296  0.0174394438794394  0.7000640542044678  1.0000
  N   N3        1.0  0.7284186206351605  0.016224767529408306  0.363115295679165  1.0000
  N   N4        1.0  0.27162443430361805  0.6369202204122503  0.983771853118817  1.0000
  N   N5        1.0  0.7010535480380042  0.3255516946745446  0.3078255856821386  1.0000
  N   N6        1.0  0.2989249078141967  0.6921827895172115  0.6744544926082057  1.0000
  O   O1        1.0  0.5417081240998697  0.8142357516932818  0.43382989703531644  1.0000
  O   O2        1.0  0.45832975995342906  0.5661804072852732  0.1857661711345315  1.0000
  O   O3        1.0  0.2796280114062242  0.9122609561821947  0.3110673377076978  1.0000
  O   O4        1.0  0.7204219007395094  0.688933817118823  0.08774776069672895  1.0000
  O   O5        1.0  0.602270778006634  0.1876435879377638  0.3173713015179728  1.0000
  O   O6        1.0  0.39777861155735655  0.6826603592156318  0.8123500295149383  1.0000
