data_image0
_chemical_formula_structural       MnH24C26S2N14
_chemical_formula_sum              "Mn1 H24 C26 S2 N14"
_cell_length_a       8.96012794476665
_cell_length_b       9.486908273503062
_cell_length_c       11.30802600530691
_cell_angle_alpha    112.69462342721944
_cell_angle_beta     93.89337596293655
_cell_angle_gamma    97.21115327375567

_space_group_name_H-M_alt    "P 1"
_space_group_IT_number       1

loop_
  _space_group_symop_operation_xyz
  'x, y, z'

loop_
  _atom_site_type_symbol
  _atom_site_label
  _atom_site_symmetry_multiplicity
  _atom_site_fract_x
  _atom_site_fract_y
  _atom_site_fract_z
  _atom_site_occupancy
  Mn  Mn1       1.0  0.00824199265485965  0.9993283300540843  0.4946915707602316  1.0000
  H   H1        1.0  0.8916820615408626  0.6630623297091917  0.5172206471169006  1.0000
  H   H2        1.0  0.11485394099106833  0.3386578039697668  0.4752819526630958  1.0000
  H   H3        1.0  0.3097671561087908  0.9649163216826866  0.6673147699804574  1.0000
  H   H4        1.0  0.6998548831769257  0.030668787446856517  0.3299889994326577  1.0000
  H   H5        1.0  0.31909808540815027  0.6353236147849588  0.7742180346905629  1.0000
  H   H6        1.0  0.67668154517434  0.3595174342596224  0.22594835288035145  1.0000
  H   H7        1.0  0.43378295537030465  0.8025207242190577  0.7725766853169065  1.0000
  H   H8        1.0  0.566352450692932  0.19227314426904485  0.23115015892779667  1.0000
  H   H9        1.0  0.39093081994948886  0.7155384337130287  0.479192717583473  1.0000
  H   H10       1.0  0.6104924394416927  0.28064462826492337  0.5232852862171882  1.0000
  H   H11       1.0  0.521510010869612  0.5503167991739634  0.3035217626567786  1.0000
  H   H12       1.0  0.4797169611115281  0.445851706010693  0.6992137188306701  1.0000
  H   H13       1.0  0.6254956736821953  0.8973369232885134  0.480647436404091  1.0000
  H   H14       1.0  0.37228304606235707  0.10481089554537702  0.5211362599492517  1.0000
  H   H15       1.0  0.918107319035862  0.21850713505618566  0.8045993994500407  1.0000
  H   H16       1.0  0.07879195627584325  0.7840566103275963  0.19669517388850727  1.0000
  H   H17       1.0  0.535568258280563  0.2859472665016939  0.8797792245736531  1.0000
  H   H18       1.0  0.46010909983262865  0.7167220749180317  0.12087956195264844  1.0000
  H   H19       1.0  0.7196566394213806  0.302665910613385  0.9588678459523337  1.0000
  H   H20       1.0  0.27572460460515924  0.7010477870119093  0.04237711877519261  1.0000
  H   H21       1.0  0.7620531107203804  0.004989085543250805  0.945843624877959  1.0000
  H   H22       1.0  0.23390199170258094  0.998253841319674  0.05530779594723623  1.0000
  H   H23       1.0  0.6549264407035977  0.8201804961338798  0.03759300311126889  1.0000
  H   H24       1.0  0.34096919968881423  0.18294277962005626  0.9634295068202405  1.0000
  C   C1        1.0  0.005298463737545922  0.7136495192771765  0.5668795805117244  1.0000
  C   C2        1.0  0.0007139508091001027  0.28670941266978645  0.4274574432797422  1.0000
  C   C3        1.0  0.21579847216552392  0.8700815017606943  0.6413502089038587  1.0000
  C   C4        1.0  0.7917505826248147  0.12731706237637042  0.355717002828122  1.0000
  C   C5        1.0  0.3543865480229799  0.6962264889972688  0.7129201945995476  1.0000
  C   C6        1.0  0.6452692216243677  0.29963828663451875  0.28884949994544945  1.0000
  C   C7        1.0  0.42792654920854295  0.5928801798664198  0.6020248024777004  1.0000
  C   C8        1.0  0.5730560914339977  0.4031218636365069  0.40052652796809707  1.0000
  C   C9        1.0  0.43905285252974124  0.6201727002087126  0.4895867027643561  1.0000
  C   C10       1.0  0.5624236955768042  0.37612683319775203  0.5131355244123484  1.0000
  C   C11       1.0  0.5112268845695311  0.5267402118897452  0.3900638852695195  1.0000
  C   C12       1.0  0.49013411492470743  0.46947762341685734  0.6126963236796997  1.0000
  C   C13       1.0  0.667244326125207  0.9825285212320836  0.5771562579179487  1.0000
  C   C14       1.0  0.33038743761926537  0.0199103181750928  0.4246426041715097  1.0000
  C   C15       1.0  0.819043077100112  0.14436878148284654  0.7397680635146386  1.0000
  C   C16       1.0  0.17766253176284155  0.858111707391956  0.26152034597253504  1.0000
  C   C17       1.0  0.6224908846355675  0.2198100078697109  0.8940921359503307  1.0000
  C   C18       1.0  0.37335109051596765  0.7834445228080827  0.10699890406080224  1.0000
  C   C19       1.0  0.5583456526414353  0.10652420353273584  0.9491205341670721  1.0000
  C   C20       1.0  0.43753953734839973  0.8966724591765074  0.05201812853104582  1.0000
  C   C21       1.0  0.6460953075478885  0.004203314670356  0.9701608983143828  1.0000
  C   C22       1.0  0.34982224339700724  0.9990466369024492  0.031028671048290088  1.0000
  C   C23       1.0  0.586367207946566  0.8999848687386989  0.021233751228891297  1.0000
  C   C24       1.0  0.40955624887591574  0.10322751116193982  0.9799779783017187  1.0000
  C   C25       1.0  0.8086504482447694  0.7293732207425593  0.26258878894910964  1.0000
  C   C26       1.0  0.19264379258360984  0.27012963118279043  0.7349562393703053  1.0000
  S   S1        1.0  0.7180414271966671  0.5960192770881181  0.1294660495842451  1.0000
  S   S2        1.0  0.272422960895348  0.4039584598032065  0.8722953029438898  1.0000
  N   N1        1.0  0.22143758874897665  0.7438461587732947  0.6677225871809327  1.0000
  N   N2        1.0  0.7809851669365317  0.2546066993944295  0.3321980816060446  1.0000
  N   N3        1.0  0.08880730731608114  0.6428900177906061  0.6206120813860495  1.0000
  N   N4        1.0  0.9124929998930965  0.35744688285987547  0.3775122584467637  1.0000
  N   N5        1.0  0.07929452191066841  0.8542553516377824  0.5766727313948721  1.0000
  N   N6        1.0  0.930781169862776  0.14424680935684364  0.4168584121265368  1.0000
  N   N7        1.0  0.6763913055944145  0.1402290091077845  0.7704534611785832  1.0000
  N   N8        1.0  0.32016012899997304  0.8630384867217348  0.23094911674122914  1.0000
  N   N9        1.0  0.5777417815173466  0.037241194157530806  0.6678231052299141  1.0000
  N   N10       1.0  0.41896240510666877  0.9657689772207974  0.3333469449787714  1.0000
  N   N11       1.0  0.8163985781968253  0.045371820977251814  0.617224408264292  1.0000
  N   N12       1.0  0.18019331455962376  0.9565457543141707  0.3851840712118106  1.0000
  N   N13       1.0  0.8772861533533886  0.8282997495799125  0.35879172357863365  1.0000
  N   N14       1.0  0.13181736703172933  0.17068568390116926  0.6356659101950299  1.0000
