data_image0
_chemical_formula_structural       Mg6H42C78N18O18
_chemical_formula_sum              "Mg6 H42 C78 N18 O18"
_cell_length_a       6.842279030688865
_cell_length_b       41.32999230408551
_cell_length_c       41.33055728245547
_cell_angle_alpha    119.69590627089357
_cell_angle_beta     93.16464825423743
_cell_angle_gamma    93.1630464419144

_space_group_name_H-M_alt    "P 1"
_space_group_IT_number       1

loop_
  _space_group_symop_operation_xyz
  'x, y, z'

loop_
  _atom_site_type_symbol
  _atom_site_label
  _atom_site_symmetry_multiplicity
  _atom_site_fract_x
  _atom_site_fract_y
  _atom_site_fract_z
  _atom_site_occupancy
  Mg  Mg1       1.0  0.11276162923331869  0.68701368428097  0.3252520042039251  1.0000
  Mg  Mg2       1.0  0.4256779011251481  0.6382236499296284  0.31298345915580944  1.0000
  Mg  Mg3       1.0  0.7874405344036361  0.6747402921757057  0.3617497163582257  1.0000
  Mg  Mg4       1.0  0.2895780977896365  0.3096033307341984  0.6698159844786886  1.0000
  Mg  Mg5       1.0  0.9799574850057553  0.36021478563167625  0.6904021944054577  1.0000
  Mg  Mg6       1.0  0.619812562137234  0.33016988092362715  0.6397785480151157  1.0000
  H   H1        1.0  0.6567770647244232  0.570909004678022  0.20841970183171554  1.0000
  H   H2        1.0  0.08583077244468737  0.6375318741697598  0.4291055613654535  1.0000
  H   H3        1.0  0.44840036630952784  0.7915909464145584  0.36250097277608245  1.0000
  H   H4        1.0  0.8385091931724559  0.5409348195595102  0.15111968150193897  1.0000
  H   H5        1.0  0.2975436954628562  0.6101976480795415  0.45908102200279177  1.0000
  H   H6        1.0  0.6874994023902232  0.8488843577599994  0.38982091792314594  1.0000
  H   H7        1.0  0.3680250841919062  0.6077210769831325  0.2176205026836726  1.0000
  H   H8        1.0  0.7602366541863433  0.6098925232465008  0.3922819952583296  1.0000
  H   H9        1.0  0.150523870128886  0.7823662353504731  0.3900946347598903  1.0000
  H   H10       1.0  0.5449016710409039  0.5551853145055503  0.1258785655065537  1.0000
  H   H11       1.0  0.9897249908549242  0.570684668481434  0.44481661189181665  1.0000
  H   H12       1.0  0.4190913965748208  0.874139088287528  0.4293106505715585  1.0000
  H   H13       1.0  0.757480464604896  0.5273882453123662  0.07265456634905837  1.0000
  H   H14       1.0  0.23006141633153723  0.5452447585540909  0.47261086604180486  1.0000
  H   H15       1.0  0.6848614397020326  0.9273669403955509  0.45473648963142205  1.0000
  H   H16       1.0  0.24847554504614067  0.4624927121797384  0.9968051101814905  1.0000
  H   H17       1.0  0.7859656422378409  0.5342918948101885  0.5375067769512542  1.0000
  H   H18       1.0  0.251548255875143  0.0031979822824724003  0.4656817484716456  1.0000
  H   H19       1.0  0.03601423267747352  0.4904093742990483  0.05003202117349302  1.0000
  H   H20       1.0  0.5456007320474469  0.5596063974966583  0.5095738027506015  1.0000
  H   H21       1.0  0.9858826954927622  0.9499519303273163  0.4403765274909974  1.0000
  H   H22       1.0  0.4724352000144805  0.4021231661374429  0.9055164940828532  1.0000
  H   H23       1.0  0.07023891448972108  0.5034053450331939  0.5978964336497441  1.0000
  H   H24       1.0  0.5668162527055641  0.09446991837892682  0.49658638145613304  1.0000
  H   H25       1.0  0.6776328029969818  0.3786782776314653  0.8504770426002607  1.0000
  H   H26       1.0  0.2989560227052693  0.4718100739972827  0.6213603201837401  1.0000
  H   H27       1.0  0.8270557885028822  0.1495365267569042  0.5281970243886249  1.0000
  H   H28       1.0  0.1482656896009473  0.4624804282909453  0.9201212363753797  1.0000
  H   H29       1.0  0.6856746049490852  0.4576183932589331  0.5375184577804433  1.0000
  H   H30       1.0  0.22807863970930234  0.0798855885601739  0.5423499224564594  1.0000
  H   H31       1.0  0.9463563295587463  0.48519003908098324  0.9751099061417107  1.0000
  H   H32       1.0  0.46104965537175246  0.48991233118404404  0.514825202824774  1.0000
  H   H33       1.0  0.9712113813713258  0.02488732710421  0.5100721589544932  1.0000
  H   H34       1.0  0.5379668814390683  0.4447728911190296  0.8511409469284672  1.0000
  H   H35       1.0  0.09316587404464365  0.40639193549147723  0.5552341753341067  1.0000
  H   H36       1.0  0.6868195989961591  0.1488312131671208  0.5936181135851442  1.0000
  H   H37       1.0  0.7312002008331289  0.4198707789101519  0.7949310605691196  1.0000
  H   H38       1.0  0.3113987884997371  0.3750666404573551  0.5801233859776787  1.0000
  H   H39       1.0  0.9363984020040234  0.2050419593808428  0.6249282939532321  1.0000
  H   H40       1.0  0.02850934943545263  0.37362586748746907  0.7805187071880011  1.0000
  H   H41       1.0  0.6548147244828684  0.4068783474002374  0.6263725435928507  1.0000
  H   H42       1.0  0.24807330149831588  0.2194809540376568  0.5931060460792493  1.0000
  C   C1        1.0  0.787036684404832  0.622230560783251  0.27702288276152837  1.0000
  C   C2        1.0  0.16481438684799338  0.6547964594305001  0.37776662210251294  1.0000
  C   C3        1.0  0.5100847958636621  0.7229691573775554  0.3451932488846907  1.0000
  C   C4        1.0  0.9064599318178566  0.6066116170807662  0.24494453021936377  1.0000
  C   C5        1.0  0.2998658161471894  0.6383610625980652  0.3934101845117652  1.0000
  C   C6        1.0  0.6616010483200582  0.7550500497094459  0.36163727100624493  1.0000
  C   C7        1.0  0.8126436697118322  0.5789420960786982  0.2097391029326728  1.0000
  C   C8        1.0  0.23373135756092003  0.6308396872081375  0.42109637736969324  1.0000
  C   C9        1.0  0.6029794739966545  0.7902631954691444  0.3691882096686071  1.0000
  C   C10       1.0  0.9115756095869113  0.5623001506582525  0.17804077664048631  1.0000
  C   C11       1.0  0.3493060927125668  0.6157853906713909  0.43774125825285637  1.0000
  C   C12       1.0  0.7336741870491963  0.8219551730721689  0.384240895170656  1.0000
  C   C13       1.0  0.11421439678694166  0.5732420601641338  0.18131234818634573  1.0000
  C   C14       1.0  0.5409571765631824  0.6080918636623025  0.42677943268384416  1.0000
  C   C15       1.0  0.9330455652575794  0.8186754822910915  0.3919013823547175  1.0000
  C   C16       1.0  0.21121819098971165  0.600082246500449  0.21581786790692092  1.0000
  C   C17       1.0  0.6111038453372469  0.6157391361550139  0.3999280381481753  1.0000
  C   C18       1.0  0.9955470225192043  0.7841699774999212  0.3842392483321362  1.0000
  C   C19       1.0  0.1119627381048858  0.6177838099085591  0.24825690757367627  1.0000
  C   C20       1.0  0.4941585176678204  0.6304823090408933  0.38222563679585875  1.0000
  C   C21       1.0  0.8637682611559326  0.7517353799357808  0.36949880545104463  1.0000
  C   C22       1.0  0.2792250225238816  0.5239685452711668  0.09103968929223775  1.0000
  C   C23       1.0  0.7552708047198634  0.5670429347460413  0.47602020522150207  1.0000
  C   C24       1.0  0.18820709421437695  0.9089658028218821  0.43293416250717337  1.0000
  C   C25       1.0  0.48303254052005684  0.5347450686121891  0.09761341190326797  1.0000
  C   C26       1.0  0.9483111663363175  0.5628514888698818  0.4652529456778609  1.0000
  C   C27       1.0  0.3855061211243794  0.9024026365111696  0.4371264322286592  1.0000
  C   C28       1.0  0.5994505026932514  0.5194615516936452  0.06821983691263973  1.0000
  C   C29       1.0  0.07994882087400858  0.5487244634391216  0.48052804881137223  1.0000
  C   C30       1.0  0.5312737637556992  0.9318041316006999  0.4512416069421974  1.0000
  C   C31       1.0  0.5152521232511588  0.4932937976062917  0.03179596133715988  1.0000
  C   C32       1.0  0.02188199218777238  0.5384621227902997  0.506693171619993  1.0000
  C   C33       1.0  0.483368029324197  0.9682195590029469  0.46150829128929177  1.0000
  C   C34       1.0  0.31108913863727844  0.4826524236921016  0.025132064401901685  1.0000
  C   C35       1.0  0.8283886784702189  0.5424308999503467  0.5173272261471666  1.0000
  C   C36       1.0  0.28584586652623767  0.9748750571041146  0.4575293333398421  1.0000
  C   C37       1.0  0.19439900264498525  0.49805905488944563  0.05458414494977863  1.0000
  C   C38       1.0  0.6963218373627242  0.5564800853472676  0.5019139515404376  1.0000
  C   C39       1.0  0.13974217388314963  0.9454161993384532  0.4434879197399084  1.0000
  C   C40       1.0  0.69833245313162  0.4445976649421794  0.9432260966191633  1.0000
  C   C41       1.0  0.2536829572201356  0.4986228289259956  0.555431181197882  1.0000
  C   C42       1.0  0.7550819580698374  0.0567819407958012  0.5013589050818794  1.0000
  C   C43       1.0  0.621456340494248  0.4145397033468469  0.9082198297079528  1.0000
  C   C44       1.0  0.2069004802499421  0.49369775466820454  0.5855036781710155  1.0000
  C   C45       1.0  0.7131768836685735  0.0917864198359624  0.5062981925369883  1.0000
  C   C46       1.0  0.7338425557825659  0.4017087249617148  0.878027929870484  1.0000
  C   C47       1.0  0.3320898656679887  0.47632449835525403  0.5983237428572608  1.0000
  C   C48       1.0  0.8556902278540831  0.1219824944521619  0.5236644903903453  1.0000
  C   C49       1.0  0.9222739852753534  0.4194404974117134  0.8821922237105609  1.0000
  C   C50       1.0  0.5027175324512783  0.46273946446477515  0.5805751844525204  1.0000
  C   C51       1.0  0.03993882827546708  0.11781085187147507  0.5372332487411313  1.0000
  C   C52       1.0  0.0010024221888684575  0.4494488705717643  0.9175147017187655  1.0000
  C   C53       1.0  0.5514270639215296  0.46803500542930015  0.5505504267708404  1.0000
  C   C54       1.0  0.0834102639869414  0.08248768033138282  0.531922710641517  1.0000
  C   C55       1.0  0.8903758488267925  0.4618364091744667  0.9477218337431381  1.0000
  C   C56       1.0  0.4284072183932964  0.4858654601519064  0.5381736303245148  1.0000
  C   C57       1.0  0.9426195875274316  0.052272086960464  0.5140953883691353  1.0000
  C   C58       1.0  0.2742915117381699  0.40973807097983445  0.8190530373249841  1.0000
  C   C59       1.0  0.8646108564682037  0.4093502984179337  0.5902974471195748  1.0000
  C   C60       1.0  0.45526935586072165  0.18092826598386577  0.5906650697234994  1.0000
  C   C61       1.0  0.4714075985491917  0.42404778606683646  0.8233567091755418  1.0000
  C   C62       1.0  0.04745024552077838  0.399364035095509  0.5759897477788768  1.0000
  C   C63       1.0  0.6481108230422876  0.1766168628217102  0.6006654642324278  1.0000
  C   C64       1.0  0.5765575769233208  0.4103718004756587  0.7923277985558457  1.0000
  C   C65       1.0  0.16632850801936871  0.38200614492085083  0.5896532990779803  1.0000
  C   C66       1.0  0.7843664573346131  0.2076380896118692  0.6180148917541856  1.0000
  C   C67       1.0  0.48928453276240447  0.3837689318214501  0.7563488700848282  1.0000
  C   C68       1.0  0.10566513075602298  0.3726251897433883  0.6162565111250728  1.0000
  C   C69       1.0  0.7331093063940769  0.24362151100258703  0.6273894775407882  1.0000
  C   C70       1.0  0.6149225975193956  0.3711299331526022  0.725166524360958  1.0000
  C   C71       1.0  0.24379049463448146  0.35405352553841146  0.6288819529729892  1.0000
  C   C72       1.0  0.8898291363147166  0.27481172678757565  0.6459539068421662  1.0000
  C   C73       1.0  0.2845136490421821  0.37077208501191444  0.7515717348940711  1.0000
  C   C74       1.0  0.9138599201997907  0.3808248996538596  0.6292551109294848  1.0000
  C   C75       1.0  0.5331380282123064  0.2484155384076843  0.6191778327565983  1.0000
  C   C76       1.0  0.18244703011924196  0.3837846226943142  0.7836221589166995  1.0000
  C   C77       1.0  0.798681174219169  0.39985575294559084  0.6162393036148116  1.0000
  C   C78       1.0  0.3989348509821156  0.21636773398861925  0.6001389823548919  1.0000
  N   N1        1.0  0.2365917613826269  0.5586418393564331  0.1519284733623323  1.0000
  N   N2        1.0  0.6779241439804904  0.5932807816811589  0.4413562771535524  1.0000
  N   N3        1.0  0.08477880504538854  0.8480657167083477  0.4067036271528508  1.0000
  N   N4        1.0  0.1494380349326504  0.5380035728017417  0.11935195390843484  1.0000
  N   N5        1.0  0.6114505394518729  0.5813441883843283  0.46199872293052374  1.0000
  N   N6        1.0  0.030164194220482377  0.880641007615573  0.4186520725266618  1.0000
  N   N7        1.0  0.6475747911200074  0.48018772212240174  0.004097484054682393  1.0000
  N   N8        1.0  0.16736216745474758  0.5238889168389562  0.5198191507406449  1.0000
  N   N9        1.0  0.6434014036174032  0.9959172973231533  0.47609311633120655  1.0000
  N   N10       1.0  0.5700142574608689  0.45623025783407894  0.9714811017385543  1.0000
  N   N11       1.0  0.11375398014013884  0.5152436436534915  0.5437869585200162  1.0000
  N   N12       1.0  0.5984667763906514  0.028532188893379412  0.484747439490441  1.0000
  N   N13       1.0  0.018003547916499843  0.40553589016312935  0.8492573912882547  1.0000
  N   N14       1.0  0.612416411852422  0.4437178209188346  0.59448281544298  1.0000
  N   N15       1.0  0.1686690346446511  0.1507456462119592  0.5562744022943775  1.0000
  N   N16       1.0  0.180838378348902  0.42364792978163734  0.8524239196628685  1.0000
  N   N17       1.0  0.7571424300203091  0.42878130386830543  0.5763676544156908  1.0000
  N   N18       1.0  0.32831874959685337  0.14756845273697652  0.5712205687305172  1.0000
  O   O1        1.0  0.6086750381589637  0.6096531273814209  0.27380630995264  1.0000
  O   O2        1.0  0.9989898989376939  0.6641459289418137  0.3903333706948118  1.0000
  O   O3        1.0  0.3349081045973819  0.7261979765320277  0.3358568452568563  1.0000
  O   O4        1.0  0.8674434593287471  0.6495112203212372  0.3087249675707752  1.0000
  O   O5        1.0  0.21793608662692054  0.6592225744130501  0.3504869016587335  1.0000
  O   O6        1.0  0.558736580765462  0.6912591374814739  0.34076455530713196  1.0000
  O   O7        1.0  0.21483651601072037  0.6437706419896471  0.28022806552484514  1.0000
  O   O8        1.0  0.5710061525767003  0.6364428797884899  0.35621874892359534  1.0000
  O   O9        1.0  0.9345318428114809  0.7197607099947378  0.36353927807823533  1.0000
  O   O10       1.0  0.7943396149988898  0.38402881569159314  0.730621884154651  1.0000
  O   O11       1.0  0.4103335822376621  0.34660821776747514  0.6159925590243135  1.0000
  O   O12       1.0  0.06379109202576667  0.26936625018679894  0.6534083922827774  1.0000
  O   O13       1.0  0.5393106315252466  0.34614150416749107  0.6919320381209673  1.0000
  O   O14       1.0  0.19305778401881918  0.3457812160626475  0.6538454480256846  1.0000
  O   O15       1.0  0.84741627748172  0.30804997691362257  0.6542131059585897  1.0000
  O   O16       1.0  0.1855401680603421  0.3470097667929295  0.7181745309216154  1.0000
  O   O17       1.0  0.8386622958258413  0.3711737061780625  0.6530054484480132  1.0000
  O   O18       1.0  0.4675413759261886  0.2818149118314679  0.6288332312955021  1.0000
