data_image0
_chemical_formula_structural       MnH12C16N10O6
_chemical_formula_sum              "Mn1 H12 C16 N10 O6"
_cell_length_a       7.507613617939081
_cell_length_b       7.438047687823016
_cell_length_c       9.600647841034812
_cell_angle_alpha    82.71943796870332
_cell_angle_beta     67.9100603537329
_cell_angle_gamma    79.35018953011273

_space_group_name_H-M_alt    "P 1"
_space_group_IT_number       1

loop_
  _space_group_symop_operation_xyz
  'x, y, z'

loop_
  _atom_site_type_symbol
  _atom_site_label
  _atom_site_symmetry_multiplicity
  _atom_site_fract_x
  _atom_site_fract_y
  _atom_site_fract_z
  _atom_site_occupancy
  Mn  Mn1       1.0  0.9999929148445119  0.9999974060871679  0.9999941335977166  1.0000
  H   H1        1.0  0.8691409835520433  0.1430829047736211  0.6706103461845672  1.0000
  H   H2        1.0  0.13086784568519508  0.8569213655486722  0.329388039525888  1.0000
  H   H3        1.0  0.8871745988938005  0.2338656566181001  0.4885289523458666  1.0000
  H   H4        1.0  0.11283230276554686  0.7661413447014528  0.5114718017539345  1.0000
  H   H5        1.0  0.8009678241806456  0.018849044204493702  0.5557119682786149  1.0000
  H   H6        1.0  0.1990427367674101  0.9811538692843484  0.4442829328755237  1.0000
  H   H7        1.0  0.29082928748375286  0.6605007177512691  0.7357985365021165  1.0000
  H   H8        1.0  0.7091673947295407  0.3394980245189885  0.26420795427982563  1.0000
  H   H9        1.0  0.041782499102268396  0.44774562543130264  0.7987501341183646  1.0000
  H   H10       1.0  0.958220837367783  0.5522476514401832  0.2012539580818284  1.0000
  H   H11       1.0  0.47222909853064715  0.9982575509266528  0.6731714941693737  1.0000
  H   H12       1.0  0.5277808339449734  0.0017398658789176008  0.3268272270834629  1.0000
  C   C1        1.0  0.7988091077412705  0.1558891183326949  0.587229070101209  1.0000
  C   C2        1.0  0.20120325688173324  0.8441110468566466  0.41276870795611126  1.0000
  C   C3        1.0  0.5933059796360853  0.25003368900016204  0.6494153590344922  1.0000
  C   C4        1.0  0.4067082134424639  0.7499637313501211  0.35058424686749845  1.0000
  C   C5        1.0  0.533798749846099  0.4393828702531125  0.6699207742054937  1.0000
  C   C6        1.0  0.46620110079936694  0.5606145186722385  0.33008182753084003  1.0000
  C   C7        1.0  0.3365568893609066  0.5145646813176867  0.7204587745077259  1.0000
  C   C8        1.0  0.6634449384236306  0.48542998353131867  0.27953936072226054  1.0000
  C   C9        1.0  0.19737888234280385  0.4019978767199817  0.7567137605556694  1.0000
  C   C10       1.0  0.8026264945404551  0.5980008968628708  0.24328715611504478  1.0000
  C   C11       1.0  0.4450735512280843  0.14487879498461348  0.6861333631946991  1.0000
  C   C12       1.0  0.5549343569249033  0.8551227408238091  0.3138624140464827  1.0000
  C   C13       1.0  0.5739043916053816  0.2339645185910442  0.03309337825081831  1.0000
  C   C14       1.0  0.4260702513085021  0.7660383076843261  0.966911635135446  1.0000
  C   C15       1.0  0.2495151453991156  0.24800911533186826  0.0689627895990768  1.0000
  C   C16       1.0  0.7504687463153985  0.7519992285580132  0.9310359767527738  1.0000
  N   N1        1.0  0.7338778745549774  0.17305343194267667  0.024812982997268262  1.0000
  N   N2        1.0  0.2661035689215793  0.8269425478492209  0.9751928460912324  1.0000
  N   N3        1.0  0.40514428469701613  0.3177879064044832  0.03968915077495439  1.0000
  N   N4        1.0  0.5948518457632305  0.6822067514112649  0.9603085042951632  1.0000
  N   N5        1.0  0.0984792614622876  0.2003219925254527  0.09166934137657279  1.0000
  N   N6        1.0  0.9015146873017913  0.7996863757841978  0.908326593550285  1.0000
  N   N7        1.0  0.6739416333049632  0.5632578216473477  0.6394897226520442  1.0000
  N   N8        1.0  0.32606047840138797  0.4367436932860188  0.36050977066328466  1.0000
  N   N9        1.0  0.2534422087364518  0.21811230646144247  0.7402198529091777  1.0000
  N   N10       1.0  0.7465636837839258  0.7818837360960701  0.2597780508029786  1.0000
  O   O1        1.0  0.12118248538922669  0.10937735241402183  0.7770271862065952  1.0000
  O   O2        1.0  0.8788241434159334  0.8906145884148061  0.22296777165547607  1.0000
  O   O3        1.0  0.6226408665452964  0.7290006165681647  0.6094556890607236  1.0000
  O   O4        1.0  0.37736027451563103  0.2709981569304177  0.39054329390233267  1.0000
  O   O5        1.0  0.8358489511191964  0.5005376487322053  0.6462674295574046  1.0000
  O   O6        1.0  0.1641530862453848  0.49946385581980485  0.35373521093343635  1.0000
