data_image0
_chemical_formula_structural       Cu8H64C88N40
_chemical_formula_sum              "Cu8 H64 C88 N40"
_cell_length_a       10.860797926273483
_cell_length_b       18.159709619047764
_cell_length_c       18.159712605926966
_cell_angle_alpha    80.68024621872834
_cell_angle_beta     86.58172845389853
_cell_angle_gamma    86.58143947967396

_space_group_name_H-M_alt    "P 1"
_space_group_IT_number       1

loop_
  _space_group_symop_operation_xyz
  'x, y, z'

loop_
  _atom_site_type_symbol
  _atom_site_label
  _atom_site_symmetry_multiplicity
  _atom_site_fract_x
  _atom_site_fract_y
  _atom_site_fract_z
  _atom_site_occupancy
  Cu  Cu1       1.0  0.53189277354857  0.5938733324669556  0.5215779026913836  1.0000
  Cu  Cu2       1.0  0.968107050807653  0.478419675010386  0.4061275578558678  1.0000
  Cu  Cu3       1.0  0.4681069645999331  0.40612397800804  0.478423613784912  1.0000
  Cu  Cu4       1.0  0.0318927571118479  0.521576503629632  0.593876334937697  1.0000
  Cu  Cu5       1.0  0.2500009744168707  0.5384277937867524  0.4615710295481961  1.0000
  Cu  Cu6       1.0  0.7500006008452689  0.4615695046928606  0.5384315297811497  1.0000
  Cu  Cu7       1.0  0.7500008777898871  0.6210643528215911  0.3789326839265073  1.0000
  Cu  Cu8       1.0  0.24999874768150934  0.37893464822688844  0.6210663708267532  1.0000
  H   H1        1.0  0.0935894777751898  0.5465447260664009  0.7690418873145433  1.0000
  H   H2        1.0  0.40641118192812803  0.23095753001150846  0.4534562711465995  1.0000
  H   H3        1.0  0.9064117422070836  0.4534570315528013  0.2309616428979667  1.0000
  H   H4        1.0  0.5935885253451901  0.7690403499704744  0.5465435057946308  1.0000
  H   H5        1.0  0.5393140638089093  0.6111297721528998  0.7002824390576807  1.0000
  H   H6        1.0  0.9606850861249613  0.29971695586331754  0.3888716450485248  1.0000
  H   H7        1.0  0.4606861678455445  0.38887312329897844  0.2997181934110387  1.0000
  H   H8        1.0  0.039314574231930514  0.7002814792676801  0.6111285978633703  1.0000
  H   H9        1.0  0.059321689019448294  0.5592271213051633  0.9856171130340101  1.0000
  H   H10       1.0  0.4406778215995076  0.014380214781674304  0.4407744644752611  1.0000
  H   H11       1.0  0.9406785975720595  0.44077522617667614  0.014381950711182898  1.0000
  H   H12       1.0  0.5593217569554555  0.9856193414158271  0.5592250562486643  1.0000
  H   H13       1.0  0.08523915419675632  0.5608845261044023  0.08186195567228792  1.0000
  H   H14       1.0  0.414761620750852  0.9181357786061076  0.4391165273935869  1.0000
  H   H15       1.0  0.9147602916295484  0.43911670271912584  0.91813786021077  1.0000
  H   H16       1.0  0.5852388763609326  0.08186377159370291  0.5608835147568669  1.0000
  H   H17       1.0  0.16565570297163387  0.49342197437584895  0.03375228060194503  1.0000
  H   H18       1.0  0.33434534103172814  0.9662451165320292  0.5065787588413146  1.0000
  H   H19       1.0  0.8343437468649813  0.506579258037178  0.9662469839046894  1.0000
  H   H20       1.0  0.6656551600903667  0.0337544372572722  0.4934207319327086  1.0000
  H   H21       1.0  0.23830322473641272  0.7298565939890767  0.978689005141014  1.0000
  H   H22       1.0  0.2616943704975085  0.0213118461986141  0.2701448633343801  1.0000
  H   H23       1.0  0.7616980582035283  0.2701446228390694  0.021311853595093987  1.0000
  H   H24       1.0  0.7383023854190256  0.9786882651935187  0.729856315962806  1.0000
  H   H25       1.0  0.1252851343236046  0.6965545978529447  0.04965770244032805  1.0000
  H   H26       1.0  0.3747148990756984  0.9503420616602372  0.3034466383297954  1.0000
  H   H27       1.0  0.8747161137308338  0.303447184892697  0.9503419681371527  1.0000
  H   H28       1.0  0.625283675110218  0.049658618011967796  0.6965521901560763  1.0000
  H   H29       1.0  0.10065966325791463  0.6935023994295764  0.9533982285287906  1.0000
  H   H30       1.0  0.39933911985161796  0.04660168000382469  0.3064999232730656  1.0000
  H   H31       1.0  0.899342550269772  0.30649882216935254  0.04660149750454679  1.0000
  H   H32       1.0  0.600658566652669  0.9533984361590913  0.6935001233213498  1.0000
  H   H33       1.0  0.6932838984161621  0.6124836943726564  0.9942577532846644  1.0000
  H   H34       1.0  0.8067162971868174  0.005742036740990401  0.3875154938116765  1.0000
  H   H35       1.0  0.30671936639700453  0.38751584860255417  0.005742199016062005  1.0000
  H   H36       1.0  0.19328231589490483  0.994258080603224  0.612483971456392  1.0000
  H   H37       1.0  0.6691392792990172  0.6094191086839588  0.8975768636765481  1.0000
  H   H38       1.0  0.8308612557774425  0.102422528980135  0.3905817305689184  1.0000
  H   H39       1.0  0.330860088735676  0.3905832447955647  0.1024216786421164  1.0000
  H   H40       1.0  0.16914105158309672  0.8975775823207645  0.6094170635230826  1.0000
  H   H41       1.0  0.62364786212315  0.5351275161301813  0.9681517796561682  1.0000
  H   H42       1.0  0.8763519064314738  0.0318472686858087  0.464872630588161  1.0000
  H   H43       1.0  0.37635255318670596  0.46487315513613237  0.0318475403063232  1.0000
  H   H44       1.0  0.1236476292173734  0.9681528462502058  0.5351268047299982  1.0000
  H   H45       1.0  0.5821096611923835  0.7375087907920063  0.9839088958168886  1.0000
  H   H46       1.0  0.9178918489315679  0.01609170918580821  0.2624908352471635  1.0000
  H   H47       1.0  0.4178934708921247  0.26249242480923846  0.016091351642970198  1.0000
  H   H48       1.0  0.08210756601954468  0.9839100891447077  0.7375072411008361  1.0000
  H   H49       1.0  0.42998772389309187  0.7531638028941784  0.9509892105340043  1.0000
  H   H50       1.0  0.0700145507647463  0.04901122717492971  0.2468367290101128  1.0000
  H   H51       1.0  0.5700154081914093  0.2468374127070589  0.04901103692585451  1.0000
  H   H52       1.0  0.929985825649304  0.9509900064193819  0.7531619541701746  1.0000
  H   H53       1.0  0.5560551786607347  0.735788152973001  0.8875192065168207  1.0000
  H   H54       1.0  0.9439464650919903  0.11248205495736135  0.2642122301697327  1.0000
  H   H55       1.0  0.44394707777306747  0.2642125098874289  0.11248060492228261  1.0000
  H   H56       1.0  0.05605482586857143  0.8875191690497743  0.7357875258135068  1.0000
  H   H57       1.0  0.2279809808432489  0.5623533708233949  0.278920644851965  1.0000
  H   H58       1.0  0.2720211955422158  0.721077160052772  0.4376455304304657  1.0000
  H   H59       1.0  0.772019687893007  0.4376439444223834  0.721079738921553  1.0000
  H   H60       1.0  0.7279775302166128  0.27892126671794404  0.562356396560638  1.0000
  H   H61       1.0  0.6727420386074883  0.6263506130436768  0.20513417548237106  1.0000
  H   H62       1.0  0.8272576195583738  0.7948654021048188  0.3736488435790904  1.0000
  H   H63       1.0  0.3272500361895254  0.37366235537743364  0.7948657106582573  1.0000
  H   H64       1.0  0.17274945182229834  0.2051342353328424  0.6263349990054436  1.0000
  C   C1        1.0  0.3653823187762202  0.5811973144677297  0.6613418078208542  1.0000
  C   C2        1.0  0.13461672147204953  0.3386575141898405  0.41880362590790554  1.0000
  C   C3        1.0  0.6346218565731476  0.41880221533080697  0.33865976865926234  1.0000
  C   C4        1.0  0.8653801900277145  0.6613403478902953  0.5812001005180818  1.0000
  C   C5        1.0  0.24030564874285432  0.5626199064462584  0.6810686452207193  1.0000
  C   C6        1.0  0.2596933441708629  0.31893067948961834  0.43738185848321365  1.0000
  C   C7        1.0  0.7596985225962031  0.4373796197627867  0.3189334826358348  1.0000
  C   C8        1.0  0.7403035753495218  0.6810671897695003  0.5626207651899123  1.0000
  C   C9        1.0  0.1889521144057298  0.5602476308535742  0.7533322697520647  1.0000
  C   C10       1.0  0.3110494793566758  0.2466661423254522  0.4397544494861947  1.0000
  C   C11       1.0  0.8110509627417245  0.4397541327177025  0.24666954643132752  1.0000
  C   C12       1.0  0.6889501300734722  0.7533328443650688  0.5602468107728029  1.0000
  C   C13       1.0  0.26593174431649663  0.577664011429718  0.8070711338440476  1.0000
  C   C14       1.0  0.2340651907648308  0.19292898874359574  0.42233797918800065  1.0000
  C   C15       1.0  0.7340675567502118  0.4223388792513704  0.19293063132744948  1.0000
  C   C16       1.0  0.7659335859207347  0.8070688864676043  0.5776629304560075  1.0000
  C   C17       1.0  0.39308418615710394  0.5958398177207798  0.7871000203063758  1.0000
  C   C18       1.0  0.10691649783537124  0.21289956667282436  0.4041622458434162  1.0000
  C   C19       1.0  0.6069169680644818  0.4041630753228914  0.21290058221243413  1.0000
  C   C20       1.0  0.8930821501318464  0.7870999847538941  0.595838407583294  1.0000
  C   C21       1.0  0.44336879119310885  0.5975079775439127  0.7137363829061698  1.0000
  C   C22       1.0  0.05663020569551951  0.2862625582058627  0.40249409891912086  1.0000
  C   C23       1.0  0.5566314833674683  0.40249435916945236  0.2862643349683154  1.0000
  C   C24       1.0  0.9433676404023078  0.7137353122345544  0.5975079434276581  1.0000
  C   C25       1.0  0.2906876428402185  0.5975138066896762  0.9277732577397231  1.0000
  C   C26       1.0  0.2093153521923767  0.0722259559408727  0.4024891013263457  1.0000
  C   C27       1.0  0.7093163528640505  0.4024879508839093  0.07222907987019771  1.0000
  C   C28       1.0  0.7906879944227185  0.9277724659678341  0.5975115731623505  1.0000
  C   C29       1.0  0.2305683468480026  0.606708881949878  0.004124290408299176  1.0000
  C   C30       1.0  0.2694302784465208  0.9958736197508461  0.39329355747231176  1.0000
  C   C31       1.0  0.7694310949679919  0.3932923432841592  0.9958760768511964  1.0000
  C   C32       1.0  0.7305693779000606  0.004124811790660501  0.6067072368160211  1.0000
  C   C33       1.0  0.32575390552443656  0.6016102260061802  0.06342952206951938  1.0000
  C   C34       1.0  0.17424632113073096  0.9365695904720047  0.39839027678549144  1.0000
  C   C35       1.0  0.6742473693948767  0.39839098364299025  0.9365724394194573  1.0000
  C   C36       1.0  0.825751506122842  0.06342886024386733  0.60160837189693  1.0000
  C   C37       1.0  0.4531196012112346  0.6176305308971239  0.043579259757066786  1.0000
  C   C38       1.0  0.04688002102169258  0.9564195662932281  0.38236883984053804  1.0000
  C   C39       1.0  0.5468797856677128  0.3823712423069523  0.9564226762259622  1.0000
  C   C40       1.0  0.953119706303177  0.043578331636204816  0.6176281802185317  1.0000
  C   C41       1.0  0.5035598585862787  0.6358776450855643  0.96326812047991  1.0000
  C   C42       1.0  0.9964393905878666  0.03673179015512319  0.3641217449954794  1.0000
  C   C43       1.0  0.496438777350015  0.36412189557268  0.036734187076099496  1.0000
  C   C44       1.0  0.0035611614609650046  0.9632672120746552  0.635876728431441  1.0000
  C   C45       1.0  0.41790797659370343  0.6138206183247592  0.9082081615851366  1.0000
  C   C46       1.0  0.08209064996684393  0.09179056289624304  0.38618079308232484  1.0000
  C   C47       1.0  0.5820923569142311  0.38618117400806534  0.09179043618938461  1.0000
  C   C48       1.0  0.9179080918332333  0.908207878232446  0.6138189284030489  1.0000
  C   C49       1.0  0.1285664912911031  0.5514431579245952  0.02794795410174091  1.0000
  C   C50       1.0  0.37143379642314767  0.9720497206113736  0.4485581020787208  1.0000
  C   C51       1.0  0.8714320319680696  0.4485580733071403  0.9720518917312334  1.0000
  C   C52       1.0  0.6285677050576908  0.027948706113733107  0.5514426323097867  1.0000
  C   C53       1.0  0.17003188947891348  0.6873019743359592  0.9958549791751352  1.0000
  C   C54       1.0  0.329966955458076  0.004145222579410301  0.31269952365916254  1.0000
  C   C55       1.0  0.829969440377454  0.312698687343172  0.004145413590308086  1.0000
  C   C56       1.0  0.6700316536133357  0.9958548911753128  0.6873004929853437  1.0000
  C   C57       1.0  0.6313541125520602  0.5958636739063651  0.9551203588459176  1.0000
  C   C58       1.0  0.8686459245491138  0.044879484447996304  0.4041361934322937  1.0000
  C   C59       1.0  0.3686462947371752  0.4041369901809729  0.04488006386943512  1.0000
  C   C60       1.0  0.13135457657298136  0.9551200693413053  0.5958632973417226  1.0000
  C   C61       1.0  0.5184452287085152  0.7214758409304737  0.9451806025966292  1.0000
  C   C62       1.0  0.9815557305594994  0.05481847162496222  0.2785258038764127  1.0000
  C   C63       1.0  0.4815560662623498  0.2785253866661463  0.05481860201018662  1.0000
  C   C64       1.0  0.018443843985153276  0.9451810809830478  0.7214742682239503  1.0000
  C   C65       1.0  0.3661292252605507  0.588985173551322  0.18852702560528195  1.0000
  C   C66       1.0  0.13386936397886737  0.8114729662983039  0.4110145335203087  1.0000
  C   C67       1.0  0.6338646651114317  0.41101605177394873  0.8114757268593992  1.0000
  C   C68       1.0  0.8661350271083775  0.1885243680306061  0.5889813194421124  1.0000
  C   C69       1.0  0.3235267109592996  0.5759569186473287  0.2639044002115868  1.0000
  C   C70       1.0  0.17647280866322756  0.7360953358812169  0.424042255516092  1.0000
  C   C71       1.0  0.6764729802727772  0.4240409469766818  0.7360975822353737  1.0000
  C   C72       1.0  0.8235250614964542  0.2639025560961414  0.5759564785720883  1.0000
  C   C73       1.0  0.40799403479781665  0.5832520858375646  0.31658089058904443  1.0000
  C   C74       1.0  0.09201001656536789  0.6834164809673953  0.4167461829163203  1.0000
  C   C75       1.0  0.5920009537760792  0.41674690571497314  0.6834216221723608  1.0000
  C   C76       1.0  0.9079953199435665  0.3165802742673521  0.5832524823841254  1.0000
  C   C77       1.0  0.532726378242124  0.6019561060996779  0.2959877279331664  1.0000
  C   C78       1.0  0.9672746048986838  0.704011278822968  0.39804404585731856  1.0000
  C   C79       1.0  0.46726616050155906  0.39805070901886824  0.7040142004237566  1.0000
  C   C80       1.0  0.0327316245094877  0.2959866417334709  0.60194669941162  1.0000
  C   C81       1.0  0.5777537103543224  0.6129508579653306  0.22220130416195613  1.0000
  C   C82       1.0  0.9222472323455835  0.7777975953200312  0.38704762874868254  1.0000
  C   C83       1.0  0.4222394466033634  0.3870598623250814  0.7778005477811192  1.0000
  C   C84       1.0  0.07775713709439461  0.22220091391775307  0.6129392313792792  1.0000
  C   C85       1.0  0.4933217202240456  0.606873662502295  0.16818402063156415  1.0000
  C   C86       1.0  0.006678366752872515  0.8318157024412969  0.3931237910993488  1.0000
  C   C87       1.0  0.5066717799825824  0.39313258788005373  0.8318185145576464  1.0000
  C   C88       1.0  0.9933269481087947  0.16818222770232447  0.6068658813666374  1.0000
  N   N1        1.0  0.3855463731457007  0.577855618433901  0.5865774322265764  1.0000
  N   N2        1.0  0.11445158553073041  0.41342237615832295  0.422144853248362  1.0000
  N   N3        1.0  0.6144569225426509  0.42214335503432215  0.413424259609215  1.0000
  N   N4        1.0  0.8855444154328395  0.586575499098494  0.5778572489982352  1.0000
  N   N5        1.0  0.2799658172717656  0.5578388983659082  0.5621708068634419  1.0000
  N   N6        1.0  0.22003293842009702  0.43782844381169644  0.4421611158318512  1.0000
  N   N7        1.0  0.7200365907349565  0.4421595115930331  0.4378321030808934  1.0000
  N   N8        1.0  0.7799640320270245  0.5621688738878988  0.5578404904941721  1.0000
  N   N9        1.0  0.19104912063372134  0.5488738295344859  0.6168951891097763  1.0000
  N   N10       1.0  0.30895007189295143  0.3831036658555363  0.451125511479205  1.0000
  N   N11       1.0  0.8089533262688064  0.4511240180964577  0.3831083576167559  1.0000
  N   N12       1.0  0.691047825131605  0.6168936530253575  0.5488755135204786  1.0000
  N   N13       1.0  0.21884181432015024  0.5792424881438265  0.8783087148382266  1.0000
  N   N14       1.0  0.28115787995513136  0.12169004959027768  0.4207599967131302  1.0000
  N   N15       1.0  0.7811584093136898  0.42076040012906196  0.12169302038336133  1.0000
  N   N16       1.0  0.7188426600627768  0.8783089418710263  0.5792401308430968  1.0000
  N   N17       1.0  0.4659190596926236  0.6126299308473477  0.8400855971590105  1.0000
  N   N18       1.0  0.0340801340419432  0.1599145101999326  0.3873714727631637  1.0000
  N   N19       1.0  0.5340810901599157  0.387374085671027  0.1599143131217389  1.0000
  N   N20       1.0  0.9659194914294533  0.8400844908485541  0.6126275819901039  1.0000
  N   N21       1.0  0.2855416604020036  0.5870368979558763  0.13389877828236513  1.0000
  N   N22       1.0  0.21445961280485903  0.8660984261167997  0.4129628308727717  1.0000
  N   N23       1.0  0.7144588876365178  0.4129621006844104  0.8661002465209863  1.0000
  N   N24       1.0  0.7855409352336623  0.133900572523487  0.5870361939305866  1.0000
  N   N25       1.0  0.5327691727273135  0.6197495316591386  0.09485922940164225  1.0000
  N   N26       1.0  0.9672318644230274  0.9051429354713105  0.3802488095875065  1.0000
  N   N27       1.0  0.46722800571688344  0.3802566983219365  0.9051448401172311  1.0000
  N   N28       1.0  0.03277155838795659  0.09485555463772502  0.6197413887489631  1.0000
  N   N29       1.0  0.39462589164821077  0.5765091013545458  0.3930203476393501  1.0000
  N   N30       1.0  0.1053756223023825  0.6069781992140549  0.4234907920696572  1.0000
  N   N31       1.0  0.6053729078919261  0.42348819717068414  0.6069834042925848  1.0000
  N   N32       1.0  0.8946250773090512  0.3930185465247434  0.5765113312389333  1.0000
  N   N33       1.0  0.5023671103275477  0.5905521131074708  0.4175550311803208  1.0000
  N   N34       1.0  0.9976344977296421  0.5824430057167335  0.40944816666631567  1.0000
  N   N35       1.0  0.4976314827026229  0.4094479862892797  0.5824471909699156  1.0000
  N   N36       1.0  0.002366213912729602  0.41755375079053897  0.5905523025129753  1.0000
  N   N37       1.0  0.5881350421476127  0.6058422888371241  0.36102069880232796  1.0000
  N   N38       1.0  0.9118668498897193  0.638977076459348  0.3941566620404444  1.0000
  N   N39       1.0  0.41185961119796843  0.3941611798024597  0.6389800279600806  1.0000
  N   N40       1.0  0.08813754921814618  0.36102026504854495  0.605838088169108  1.0000
