data_image0
_chemical_formula_structural       Cd4H42C38N12O16
_chemical_formula_sum              "Cd4 H42 C38 N12 O16"
_cell_length_a       8.910600635985844
_cell_length_b       10.56828882281371
_cell_length_c       12.825560812456564
_cell_angle_alpha    86.18966770309552
_cell_angle_beta     73.9091262916048
_cell_angle_gamma    83.28944735503137

_space_group_name_H-M_alt    "P 1"
_space_group_IT_number       1

loop_
  _space_group_symop_operation_xyz
  'x, y, z'

loop_
  _atom_site_type_symbol
  _atom_site_label
  _atom_site_symmetry_multiplicity
  _atom_site_fract_x
  _atom_site_fract_y
  _atom_site_fract_z
  _atom_site_occupancy
  Cd  Cd1       1.0  0.15388132437531254  0.4972313922317327  0.0833524552469882  1.0000
  Cd  Cd2       1.0  0.8461179050205417  0.5027686841874583  0.9166488352572203  1.0000
  Cd  Cd3       1.0  0.5792391156095961  0.8278356238319162  0.3090679258457741  1.0000
  Cd  Cd4       1.0  0.42076023563911497  0.17216350323766963  0.6909318321572258  1.0000
  H   H1        1.0  0.7848052232293908  0.3992435217038165  0.1840386958747544  1.0000
  H   H2        1.0  0.2151940055099146  0.6007565567192756  0.8159618149549175  1.0000
  H   H3        1.0  0.7331763415787549  0.17009119471326534  0.3023804834207127  1.0000
  H   H4        1.0  0.266823009669956  0.8299079323563276  0.6976192745822942  1.0000
  H   H5        1.0  0.20605557668147156  0.24118108452731243  0.251478627783932  1.0000
  H   H6        1.0  0.7939436520578341  0.7588189938957798  0.7485218830457399  1.0000
  H   H7        1.0  0.1321908027410998  0.017222037240671305  0.3146863541666249  1.0000
  H   H8        1.0  0.8678097162538307  0.9827770919535653  0.6853131785946046  1.0000
  H   H9        1.0  0.9357774514255155  0.9841159189324035  0.3345885367940086  1.0000
  H   H10       1.0  0.06422294506000979  0.015884161615339603  0.6654117487938862  1.0000
  H   H11       1.0  0.857107893571829  0.10044517565008704  0.5101236574216655  1.0000
  H   H12       1.0  0.14289145767688186  0.8995539514194989  0.4898761005813413  1.0000
  H   H13       1.0  0.05293127569740361  0.134738399062286  0.4890880316718054  1.0000
  H   H14       1.0  0.9470679523853535  0.8652616813647074  0.5109116994833229  1.0000
  H   H15       1.0  0.5487596185043131  0.5462028654530116  0.20008542484989536  1.0000
  H   H16       1.0  0.4512397327444049  0.4537962616165815  0.7999143331531117  1.0000
  H   H17       1.0  0.36079308525403053  0.36175907076005853  0.3119364188645052  1.0000
  H   H18       1.0  0.6392062659946874  0.6382400563095274  0.6880633391385017  1.0000
  H   H19       1.0  0.33743637623536665  0.6628118432834286  0.5199790615839177  1.0000
  H   H20       1.0  0.662564142759564  0.33718728591081515  0.48002047117731195  1.0000
  H   H21       1.0  0.19007840450920102  0.4810142763708144  0.6025173627130868  1.0000
  H   H22       1.0  0.8099221144857296  0.5189848528234294  0.3974821700481428  1.0000
  H   H23       1.0  0.2510318262627181  0.33336783672969983  0.5377455662747863  1.0000
  H   H24       1.0  0.7489675249859928  0.6666312903398934  0.4622541917282136  1.0000
  H   H25       1.0  0.053509582917243406  0.3805237050449861  0.431972407355822  1.0000
  H   H26       1.0  0.9464896458220623  0.6194763733781061  0.5680281034738428  1.0000
  H   H27       1.0  0.9685090271520665  0.37935805631347114  0.5742356834333364  1.0000
  H   H28       1.0  0.031491491842864094  0.6206410728807658  0.4257638493279003  1.0000
  H   H29       1.0  0.4888606935518425  0.1222510343965837  0.20287135465058984  1.0000
  H   H30       1.0  0.5111385351874633  0.8777490440265084  0.7971291561790752  1.0000
  H   H31       1.0  0.3425790946858811  0.15589425672415302  0.0353501237293372  1.0000
  H   H32       1.0  0.6574201340534246  0.8441058216989391  0.9646503871003347  1.0000
  H   H33       1.0  0.30627931369231487  0.7800496759448734  0.17002354533030237  1.0000
  H   H34       1.0  0.693720160722357  0.21994849776731243  0.8299762395205761  1.0000
  H   H35       1.0  0.20482959282429647  0.8328876846133187  0.008558440511904986  1.0000
  H   H36       1.0  0.795169511435951  0.16711335117499007  0.9914404841208225  1.0000
  H   H37       1.0  0.27275238596536877  0.9667977232455625  0.926153883364897  1.0000
  H   H38       1.0  0.7272467189514344  0.0332033105388447  0.07384582094235978  1.0000
  H   H39       1.0  0.05600774363809079  0.1101801997359999  0.0468761931160842  1.0000
  H   H40       1.0  0.9439914844446657  0.8898198806909933  0.9531235380390443  1.0000
  H   H41       1.0  0.9810950376516913  0.9744264295453822  0.12228244638563975  1.0000
  H   H42       1.0  0.0189040672651046  0.0255746042390257  0.8777172579216171  1.0000
  C   C1        1.0  0.9275530413493982  0.7178973171941152  0.2127013228241737  1.0000
  C   C2        1.0  0.07244852353888828  0.2821027634743701  0.7872995171964874  1.0000
  C   C3        1.0  0.8427238944160819  0.685240275234911  0.1265433374790704  1.0000
  C   C4        1.0  0.15727871570901897  0.31476075891172445  0.8734580301264856  1.0000
  C   C5        1.0  0.5135977272753607  0.4362963981725018  0.03337947839455784  1.0000
  C   C6        1.0  0.48640279303266715  0.5637027270139258  0.9666216137157448  1.0000
  C   C7        1.0  0.5228987869509182  0.05821277163030912  0.4598153027157679  1.0000
  C   C8        1.0  0.47710394305738646  0.9417873191784454  0.5401821933649771  1.0000
  C   C9        1.0  0.8641358947349075  0.33512679860038475  0.21818812304131552  1.0000
  C   C10       1.0  0.13586450175061776  0.6648732819473508  0.7818121625465793  1.0000
  C   C11       1.0  0.8366232659197195  0.221844095012898  0.27570322726503355  1.0000
  C   C12       1.0  0.16337608467244272  0.7781550340605962  0.724295751063437  1.0000
  C   C13       1.0  0.0840320300060498  0.25739537867576706  0.2513766957671848  1.0000
  C   C14       1.0  0.9159670755673018  0.7426056531047325  0.7486237882146086  1.0000
  C   C15       1.0  0.009123843236984897  0.05253787799166792  0.3514592228331068  1.0000
  C   C16       1.0  0.9908765532485335  0.9474622025560678  0.6485410627547881  1.0000
  C   C17       1.0  0.9804918789982439  0.06440287356555531  0.4734872792613771  1.0000
  C   C18       1.0  0.01950864065323541  0.9355962536247804  0.526513033174389  1.0000
  C   C19       1.0  0.4759101876841996  0.5431015900634082  0.282983367675314  1.0000
  C   C20       1.0  0.5240890410551061  0.4568984883596842  0.7170171431543582  1.0000
  C   C21       1.0  0.3822280204407135  0.4519291274433074  0.3373324169378265  1.0000
  C   C22       1.0  0.6177713314645459  0.5480699976223776  0.6626681207397171  1.0000
  C   C23       1.0  0.3682390903448152  0.6083284454198363  0.4469668317520572  1.0000
  C   C24       1.0  0.6317635184671816  0.3916725927346081  0.5530329765044185  1.0000
  C   C25       1.0  0.20093792798574128  0.4317199997090457  0.5275980140614394  1.0000
  C   C26       1.0  0.7990614239195254  0.5682791253566395  0.47240252361610396  1.0000
  C   C27       1.0  0.040483887615664606  0.4331902228061751  0.50582208427209  1.0000
  C   C28       1.0  0.9595153411236409  0.5668098556169172  0.4941784265575749  1.0000
  C   C29       1.0  0.429253013719709  0.056277052183467915  0.17141544340095288  1.0000
  C   C30       1.0  0.5707463375290017  0.943722074886118  0.8285843146020468  1.0000
  C   C31       1.0  0.3567698883461503  0.07445659509065915  0.08920677701367913  1.0000
  C   C32       1.0  0.6432293397366067  0.9255434853363415  0.9107929541414493  1.0000
  C   C33       1.0  0.33931584661056746  0.8766826873202267  0.15745657336159982  1.0000
  C   C34       1.0  0.6606836278040973  0.1233154863919523  0.8425432114892786  1.0000
  C   C35       1.0  0.2087055295371201  0.9363370164413926  0.008384238541871996  1.0000
  C   C36       1.0  0.7912957890192585  0.0636649709419075  0.9916165477830462  1.0000
  C   C37       1.0  0.04532678068732571  0.008321273455166504  0.040933206912214394  1.0000
  C   C38       1.0  0.9546734919756902  0.9916797624538917  0.9590662721532723  1.0000
  N   N1        1.0  0.019026003058094407  0.35630216874788095  0.20362794373389903  1.0000
  N   N2        1.0  0.9809733488471719  0.643696956317804  0.7963725939436443  1.0000
  N   N3        1.0  0.9775709727829777  0.1736206572251079  0.2955083538555813  1.0000
  N   N4        1.0  0.022429423045991808  0.8263794253265362  0.7044911520577842  1.0000
  N   N5        1.0  0.46670775714884627  0.6399879840270801  0.3522218688761426  1.0000
  N   N6        1.0  0.5332915947564202  0.3600111410385978  0.6477786688014007  1.0000
  N   N7        1.0  0.31447068492533964  0.4949180546380776  0.44087970875209254  1.0000
  N   N8        1.0  0.685528543813966  0.5050820237850148  0.5591208020775795  1.0000
  N   N9        1.0  0.4176493402664435  0.9325301142203272  0.2133629707264149  1.0000
  N   N10       1.0  0.5823500109822746  0.06746901284925853  0.7866367872765921  1.0000
  N   N11       1.0  0.3001725046003969  0.96007853410751  0.08193653121217181  1.0000
  N   N12       1.0  0.6998278918851214  0.03992154644023322  0.9180637543757301  1.0000
  O   O1        1.0  0.9183210710001576  0.6039916249897462  0.05617951498916092  1.0000
  O   O2        1.0  0.0816780352297499  0.39600940478684515  0.943821748667176  1.0000
  O   O3        1.0  0.06740056942962268  0.669463516900571  0.20247644983754046  1.0000
  O   O4        1.0  0.9326008736058072  0.3305375131175127  0.7975259226843221  1.0000
  O   O5        1.0  0.7083613737309876  0.7401406906617681  0.1312800988365908  1.0000
  O   O6        1.0  0.2916404368326653  0.2598574852958039  0.8687200152052768  1.0000
  O   O7        1.0  0.8491620030815386  0.792502494129224  0.28674997555260257  1.0000
  O   O8        1.0  0.15083943798424573  0.20749854190056993  0.7132500579456504  1.0000
  O   O9        1.0  0.39410270863455577  0.38643018957849057  0.09080452774618662  1.0000
  O   O10       1.0  0.6058954755244983  0.6135689333625437  0.9091962351731341  1.0000
  O   O11       1.0  0.6546118694624994  0.3913970256732926  0.026761784593233567  1.0000
  O   O12       1.0  0.3453887726983851  0.6086011501635371  0.9732377750158676  1.0000
  O   O13       1.0  0.5839499501987362  0.035269023150959804  0.3603035978497289  1.0000
  O   O14       1.0  0.41605044431713617  0.9647310634084931  0.6396943487145564  1.0000
  O   O15       1.0  0.4972946998136081  0.1680452187420016  0.49869901680508383  1.0000
  O   O16       1.0  0.5027068624484842  0.8319548699421093  0.5012987045174315  1.0000
