data_image0
_chemical_formula_structural       Hg2P4H52C36N4Cl4O12
_chemical_formula_sum              "Hg2 P4 H52 C36 N4 Cl4 O12"
_cell_length_a       8.171194674
_cell_length_b       11.863388358905716
_cell_length_c       14.048
_cell_angle_alpha    90.0
_cell_angle_beta     90.0
_cell_angle_gamma    109.4595886787417

_space_group_name_H-M_alt    "P 1"
_space_group_IT_number       1

loop_
  _space_group_symop_operation_xyz
  'x, y, z'

loop_
  _atom_site_type_symbol
  _atom_site_label
  _atom_site_symmetry_multiplicity
  _atom_site_fract_x
  _atom_site_fract_y
  _atom_site_fract_z
  _atom_site_occupancy
  Hg  Hg1       1.0  0.5667871829177642  0.7728922122402011  0.7499985763097925  1.0000
  Hg  Hg2       1.0  0.4332148325867707  0.22710757346857238  0.2500021355353041  1.0000
  P   P1        1.0  0.6804841536479387  0.4546460537787381  0.7499992881548962  1.0000
  P   P2        1.0  0.3195129666115832  0.5453537319300352  0.25  1.0000
  P   P3        1.0  0.0628971402072196  0.151408326970234  0.7500014236902074  1.0000
  P   P4        1.0  0.9371032190829353  0.8485905647409451  0.2499992881548962  1.0000
  H   H1        1.0  0.3035711936453326  0.5001880793484901  0.75  1.0000
  H   H2        1.0  0.6964300304510758  0.4998126003578847  0.25  1.0000
  H   H3        1.0  0.9906892349500042  0.3811263734210968  0.75  1.0000
  H   H4        1.0  0.009312062544538036  0.6188769882780676  0.2499992881548962  1.0000
  H   H5        1.0  0.49531877920406947  0.4294442615285162  0.5826722665148054  1.0000
  H   H6        1.0  0.49531791439780903  0.4294424735333209  0.9173277334851944  1.0000
  H   H7        1.0  0.5046808620760928  0.5705582061730539  0.4173277334851946  1.0000
  H   H8        1.0  0.5046812210810927  0.5705564181778584  0.0826722665148054  1.0000
  H   H9        1.0  0.5309654990623045  0.2988347886448892  0.5395728929384944  1.0000
  H   H10       1.0  0.5309650666591779  0.2988338946472879  0.9604263952164016  1.0000
  H   H11       1.0  0.46903205360034417  0.7011658910614855  0.4604271070615056  1.0000
  H   H12       1.0  0.4690340688197239  0.7011649970638913  0.0395721810933907  1.0000
  H   H13       1.0  0.6922437872885894  0.4690912669457957  0.4378957858769965  1.0000
  H   H14       1.0  0.6922429224823361  0.4690894789506004  0.06210350227790679  1.0000
  H   H15       1.0  0.307755780593439  0.5309085187629847  0.5621035022779068  1.0000
  H   H16       1.0  0.3077565720015656  0.5309076247653834  0.9378957858769965  1.0000
  H   H17       1.0  0.8450509975080179  0.4232881940778199  0.5034673974943047  1.0000
  H   H18       1.0  0.8450505651048914  0.4232873000802186  0.9965318906605916  1.0000
  H   H19       1.0  0.15494734656275708  0.5767115916309606  0.4965318906605916  1.0000
  H   H20       1.0  0.1549493617821369  0.5767106976333592  0.0034673974943047  1.0000
  H   H21       1.0  0.7976158259631133  0.5546173350267694  0.5378331435079744  1.0000
  H   H22       1.0  0.7976149611568601  0.5546155470315739  0.9621661446469216  1.0000
  H   H23       1.0  0.20238460672516817  0.4453842386772067  0.4621661446469219  1.0000
  H   H24       1.0  0.20238539813329484  0.4453833446796054  0.0378338553530781  1.0000
  H   H25       1.0  0.8785770231781882  0.7118312823898022  0.75  1.0000
  H   H26       1.0  0.121425857132607  0.2881702913141666  0.2500007118451038  1.0000
  H   H27       1.0  0.9745439192416611  0.8881749903264546  0.7499992881548962  1.0000
  H   H28       1.0  0.025457663859747  0.11182390138472438  0.2499992881548962  1.0000
  H   H29       1.0  0.04649756215681581  0.0985176411558299  0.5373035307517071  1.0000
  H   H30       1.0  0.04650130698870919  0.0985203231486267  0.9627021640091087  1.0000
  H   H31       1.0  0.9535027971333392  0.9014812505553493  0.462698604783597  1.0000
  H   H32       1.0  0.9535007085158252  0.9014794625601538  0.03729925968109169  1.0000
  H   H33       1.0  0.05337198563567112  0.24481677186108186  0.5706698462414579  1.0000
  H   H34       1.0  0.053374433258177596  0.24481677186108186  0.9293351366742613  1.0000
  H   H35       1.0  0.9466267908382305  0.7551839078452929  0.4293315774487496  1.0000
  H   H36       1.0  0.946624702220717  0.7551821198500973  0.0706648633257387  1.0000
  H   H37       1.0  0.8329455929473608  0.1641343827588813  0.4422843109339425  1.0000
  H   H38       1.0  0.8329464577536215  0.1641361707540767  0.0577192482915692  1.0000
  H   H39       1.0  0.16705476634279393  0.835864508952298  0.557717112756265  1.0000
  H   H40       1.0  0.16705145391402712  0.8358627209571026  0.9422807517084308  1.0000
  H   H41       1.0  0.7279873286871351  0.18215111632464698  0.5496732630979508  1.0000
  H   H42       1.0  0.7279914325240283  0.1821520103222412  0.9503310079726646  1.0000
  H   H43       1.0  0.2720105829805064  0.8178477753865323  0.4503288724373604  1.0000
  H   H44       1.0  0.2720097181742531  0.8178459873913368  0.0496682801822317  1.0000
  H   H45       1.0  0.724342498947273  0.0368639908988371  0.51399701025057  1.0000
  H   H46       1.0  0.7243462437791662  0.03686667289162669  0.9860072608200454  1.0000
  H   H47       1.0  0.2756562041285023  0.963134006814748  0.4860044134396375  1.0000
  H   H48       1.0  0.27565368310786187  0.9631313248219583  0.013992739179954599  1.0000
  H   H49       1.0  0.4360703212714725  0.19966274124828937  0.7499992881548962  1.0000
  H   H50       1.0  0.5639284552024293  0.8003379384580853  0.24999857630979247  1.0000
  H   H51       1.0  0.6123486606122127  0.06181635781959469  0.75  1.0000
  H   H52       1.0  0.38765177207606877  0.9381852158843741  0.2500007118451038  1.0000
  C   C1        1.0  0.2054980519449146  0.543886681873893  0.7499992881548962  1.0000
  C   C2        1.0  0.7945043959627468  0.4561139978324817  0.25  1.0000
  C   C3        1.0  0.029381078415617864  0.4780786247851551  0.7499992881548962  1.0000
  C   C4        1.0  0.9706189952676709  0.5219247369140092  0.2499992881548962  1.0000
  C   C5        1.0  0.909969830235518  0.5391288266643954  0.7499992881548962  1.0000
  C   C6        1.0  0.0900280814321306  0.4608700650467838  0.25  1.0000
  C   C7        1.0  0.5944095853105011  0.3871715851698028  0.5710656321184544  1.0000
  C   C8        1.0  0.5944079290961142  0.3871706911722085  0.9289343678815456  1.0000
  C   C9        1.0  0.4055879673521546  0.612829094536572  0.428933656036449  1.0000
  C   C10       1.0  0.4055899825715343  0.6128282005389707  0.071066343963551  1.0000
  C   C11       1.0  0.7421126441508149  0.46331425447608854  0.5096974658314366  1.0000
  C   C12       1.0  0.7421117793445617  0.4633124664808932  0.9903018223234596  1.0000
  C   C13       1.0  0.25788735613434  0.5366864252302861  0.4903025341685634  1.0000
  C   C14       1.0  0.25788814754246664  0.5366855312326848  0.0096967539863329  1.0000
  C   C15       1.0  0.9709124233619945  0.6638656293354757  0.7499992881548962  1.0000
  C   C16       1.0  0.02908548830565392  0.3361332623757036  0.2500007118451038  1.0000
  C   C17       1.0  0.15035910956657264  0.7247683216112648  0.7499985763097925  1.0000
  C   C18       1.0  0.8496416087285752  0.275228782104719  0.2500007118451038  1.0000
  C   C19       1.0  0.22265553517809172  0.8576485483904435  0.7499992881548962  1.0000
  C   C20       1.0  0.7773428088926835  0.1423512373183371  0.2500007118451038  1.0000
  C   C21       1.0  0.11523929766574531  0.928442430075826  0.7499992881548962  1.0000
  C   C22       1.0  0.8847627178387966  0.0715573556329474  0.25  1.0000
  C   C23       1.0  0.1915786956211534  0.0528281059826341  0.75  1.0000
  C   C24       1.0  0.8084249026996346  0.9471698917309439  0.2499992881548962  1.0000
  C   C25       1.0  0.9708774622805266  0.150278314008041  0.5687556947608172  1.0000
  C   C26       1.0  0.9708811337142863  0.150278314008041  0.9312492881548948  1.0000
  C   C27       1.0  0.029120881790248528  0.8497214717007323  0.4312464407744869  1.0000
  C   C28       1.0  0.02911756936148181  0.849719683705544  0.0687514236902018  1.0000
  C   C29       1.0  0.8033116954925958  0.13202198908636828  0.5156242881548962  1.0000
  C   C30       1.0  0.8033157993294892  0.1320228830839625  0.9843792710706154  1.0000
  C   C31       1.0  0.19668499236379938  0.8679769026248109  0.4843771355353041  1.0000
  C   C32       1.0  0.1966841275575391  0.8679751146296155  0.0156207289293846  1.0000
  C   C33       1.0  0.372599460233431  0.103252252427815  0.7499992881548962  1.0000
  C   C34       1.0  0.6274029876742374  0.8967484272785596  0.2499992881548962  1.0000
  C   C35       1.0  0.4707194284255963  0.0270103493882985  0.7499992881548962  1.0000
  C   C36       1.0  0.5292813632676926  0.972989436320475  0.25  1.0000
  N   N1        1.0  0.26354849102326483  0.6638280814364137  0.7499992881548962  1.0000
  N   N2        1.0  0.7364527330731434  0.336172598269961  0.2500007118451038  1.0000
  N   N3        1.0  0.3969861161400132  0.9079975990375003  0.7499992881548962  1.0000
  N   N4        1.0  0.603015107956395  0.09200308066887429  0.2500014236902075  1.0000
  Cl  Cl1       1.0  0.7113793594466316  0.7919906828979393  0.5961005125284728  1.0000
  Cl  Cl2       1.0  0.7113797918497654  0.7919915768955406  0.9038973519362159  1.0000
  Cl  Cl3       1.0  0.2886169694047638  0.2080099968084284  0.4038980637813196  1.0000
  Cl  Cl4       1.0  0.28862222365477663  0.20800820881324  0.0961026480637841  1.0000
  O   O1        1.0  0.5704408019129659  0.5318347002731372  0.75  1.0000
  O   O2        1.0  0.4295600631784495  0.46816776742843297  0.25  1.0000
  O   O3        1.0  0.6553827773293008  0.3625786052829056  0.6644084567198192  1.0000
  O   O4        1.0  0.6553811211149138  0.3625777112853115  0.8355901195899803  1.0000
  O   O5        1.0  0.34461887917024114  0.6374229684210633  0.3355901195899804  1.0000
  O   O6        1.0  0.34462089438962107  0.637422074423462  0.1644091685649229  1.0000
  O   O7        1.0  0.1790991506230455  0.2776899574883629  0.7500007118451035  1.0000
  O   O8        1.0  0.8208991934477298  0.7223098282204106  0.2500007118451038  1.0000
  O   O9        1.0  0.9255416789292495  0.10920806441685468  0.6662428815489747  1.0000
  O   O10       1.0  0.9255457827661431  0.109208958414456  0.8337613895216406  1.0000
  O   O11       1.0  0.07445457652401188  0.8907899332967233  0.3337592539863294  1.0000
  O   O12       1.0  0.07445536793213857  0.8907890392991291  0.1662393223234631  1.0000
