data_image0
_chemical_formula_structural       Zn4H28C16N12O28
_chemical_formula_sum              "Zn4 H28 C16 N12 O28"
_cell_length_a       6.61981370600659
_cell_length_b       10.588292810490548
_cell_length_c       12.43868493693583
_cell_angle_alpha    107.0885398723056
_cell_angle_beta     89.99991510450559
_cell_angle_gamma    89.99989532530246

_space_group_name_H-M_alt    "P 1"
_space_group_IT_number       1

loop_
  _space_group_symop_operation_xyz
  'x, y, z'

loop_
  _atom_site_type_symbol
  _atom_site_label
  _atom_site_symmetry_multiplicity
  _atom_site_fract_x
  _atom_site_fract_y
  _atom_site_fract_z
  _atom_site_occupancy
  Zn  Zn1       1.0  0.6934835411843494  0.33164218746055946  0.5455106049237415  1.0000
  Zn  Zn2       1.0  0.193482738120025  0.1683568606108707  0.9544905080448415  1.0000
  Zn  Zn3       1.0  0.3065176076398404  0.6683554599863512  0.45449162592222336  1.0000
  Zn  Zn4       1.0  0.8065214319367016  0.8316447759093035  0.045507917064291754  1.0000
  H   H1        1.0  0.8578397484549142  0.8401080983074392  0.2892855976647937  1.0000
  H   H2        1.0  0.3578426630023231  0.6598910630893684  0.21071443459837977  1.0000
  H   H3        1.0  0.14216140037299138  0.1598905679395912  0.710712873385404  1.0000
  H   H4        1.0  0.642158485821611  0.3401085788953608  0.7892858933800683  1.0000
  H   H5        1.0  0.024745373879632403  0.4115758300767852  0.6903098884969765  1.0000
  H   H6        1.0  0.5247446410987138  0.08842545195907549  0.8096927315964777  1.0000
  H   H7        1.0  0.9752542643220253  0.5884257756880515  0.30969254856057654  1.0000
  H   H8        1.0  0.4752549971144335  0.9115722262478981  0.19030548730465568  1.0000
  H   H9        1.0  0.0570454892656613  0.44208431887238914  0.5764896506917552  1.0000
  H   H10       1.0  0.5570460415588984  0.05791593688303459  0.923511074104951  1.0000
  H   H11       1.0  0.9429526383276681  0.5579133408804395  0.42351097537770943  1.0000
  H   H12       1.0  0.44295510726368553  0.9420856934877263  0.07648815339511823  1.0000
  H   H13       1.0  0.3249718890081397  0.22138802741394403  0.49515305854900044  1.0000
  H   H14       1.0  0.8249729574191066  0.27861129738042206  0.004845114643359187  1.0000
  H   H15       1.0  0.6750277492021441  0.7786106326824935  0.5048462148912378  1.0000
  H   H16       1.0  0.17502668078804365  0.7213903391432978  0.9951533104684599  1.0000
  H   H17       1.0  0.3914466297690212  0.27649494937413266  0.39352590407550275  1.0000
  H   H18       1.0  0.8914430454774234  0.22350722937918724  0.10647374899654238  1.0000
  H   H19       1.0  0.6085560296621466  0.723508632470832  0.6064770372801789  1.0000
  H   H20       1.0  0.1085565927343737  0.7764924372138252  0.8935233694262193  1.0000
  H   H21       1.0  0.8157002182948859  0.34242574825660194  0.35506956412783097  1.0000
  H   H22       1.0  0.3157002996271245  0.15757358489464926  0.14492942246763357  1.0000
  H   H23       1.0  0.18430093052617744  0.657574875617591  0.6449318183897218  1.0000
  H   H24       1.0  0.6843008491972284  0.8424270574348681  0.8550695528824832  1.0000
  H   H25       1.0  0.6497708562403235  0.45737645966629237  0.3951373144382798  1.0000
  H   H26       1.0  0.14976835899285132  0.042624108863350295  0.1048637261863661  1.0000
  H   H27       1.0  0.35023180319726793  0.5426241642067211  0.6048640680783706  1.0000
  H   H28       1.0  0.850232789827537  0.9573775092038584  0.895137106092001  1.0000
  C   C1        1.0  0.6638273338109286  0.09970120177474938  0.6317526339816553  1.0000
  C   C2        1.0  0.16382307687172223  0.40031179295098684  0.8682432180349764  1.0000
  C   C3        1.0  0.33616626193924054  0.9002935000096739  0.36824643325147827  1.0000
  C   C4        1.0  0.8361674976257589  0.5996987667098851  0.1317534644861382  1.0000
  C   C5        1.0  0.7394460116174031  0.04929536744835868  0.513634617535061  1.0000
  C   C6        1.0  0.23944430468591804  0.4507006445800812  0.9863656843876001  1.0000
  C   C7        1.0  0.2605475841303147  0.9507013165703239  0.4863641516088463  1.0000
  C   C8        1.0  0.7605523122895266  0.549299003559966  0.013633841204388384  1.0000
  C   C9        1.0  0.8327494600205229  0.05340302464203721  0.35076605542138845  1.0000
  C   C10       1.0  0.3327486941775392  0.4465982456109358  0.14923502000082317  1.0000
  C   C11       1.0  0.16725471003292117  0.9465985934228129  0.6492347768551807  1.0000
  C   C12       1.0  0.667256986499531  0.5533994202877608  0.8507648036750127  1.0000
  C   C13       1.0  0.8895502383974121  0.09157727787452069  0.24812594791912088  1.0000
  C   C14       1.0  0.3895508106037013  0.4084209578297332  0.25187189641410157  1.0000
  C   C15       1.0  0.11045544230383803  0.9084075496397973  0.7518697954180881  1.0000
  C   C16       1.0  0.6104563806501629  0.591599439168128  0.748132924320764  1.0000
  N   N1        1.0  0.7710741166346721  0.9223537750544534  0.45720966049658773  1.0000
  N   N2        1.0  0.27107319987732137  0.5776445340710055  0.04279022268356404  1.0000
  N   N3        1.0  0.22892401095771936  0.0776468734292095  0.5427885124661741  1.0000
  N   N4        1.0  0.7289249277160084  0.4223531256818233  0.9572104033859007  1.0000
  N   N5        1.0  0.8312073622583469  0.9271002574003403  0.355382335030356  1.0000
  N   N6        1.0  0.33120466794105863  0.5728979699362995  0.14461587194320197  1.0000
  N   N7        1.0  0.16879529717966346  0.0729013668174616  0.6446176948579634  1.0000
  N   N8        1.0  0.6687964808868401  0.42710069631073094  0.8553825991069886  1.0000
  N   N9        1.0  0.776250638530918  0.13256912692769157  0.4511241353119003  1.0000
  N   N10       1.0  0.2762503781028371  0.367432244035207  0.048875402443911795  1.0000
  N   N11       1.0  0.22374597844342506  0.8674305150605762  0.5488761926692334  1.0000
  N   N12       1.0  0.7237507707243864  0.632567416404839  0.9511225183670929  1.0000
  O   O1        1.0  0.6375106540505656  0.2256124819040223  0.6660513026285244  1.0000
  O   O2        1.0  0.13750836618503123  0.27438272004275177  0.8339464610611315  1.0000
  O   O3        1.0  0.36248445231148463  0.7743841898099291  0.33394907129277845  1.0000
  O   O4        1.0  0.8624852295609102  0.7256149520171745  0.16605256023273537  1.0000
  O   O5        1.0  0.6285091608960229  0.019417657718726396  0.6858056173388789  1.0000
  O   O6        1.0  0.1285078421595713  0.48057550840862007  0.8142012814124655  1.0000
  O   O7        1.0  0.3714874560829743  0.9805800143388338  0.31419340395319034  1.0000
  O   O8        1.0  0.8714872641976756  0.519420138353439  0.18580365469374974  1.0000
  O   O9        1.0  0.8835574452106203  0.21145074221336554  0.25116941876999016  1.0000
  O   O10       1.0  0.38356290408994204  0.28855341880822033  0.2488315503569254  1.0000
  O   O11       1.0  0.11643766112318592  0.7885647330430672  0.7488317340548178  1.0000
  O   O12       1.0  0.6164397553734416  0.7114303837565643  0.7511687551669937  1.0000
  O   O13       1.0  0.9464328226879318  0.996955696706493  0.16350805410861108  1.0000
  O   O14       1.0  0.4464343332392532  0.5030482601194564  0.3364939360589432  1.0000
  O   O15       1.0  0.05357134733939971  0.0030567529013651976  0.8365003661523928  1.0000
  O   O16       1.0  0.5535683262266461  0.49694154451409395  0.6634982536949892  1.0000
  O   O17       1.0  0.9813087012158874  0.3817789402564955  0.6092049378272719  1.0000
  O   O18       1.0  0.48130821861384737  0.11822066393559538  0.8907936782301604  1.0000
  O   O19       1.0  0.0186939582323546  0.6182157553690643  0.3907949317896282  1.0000
  O   O20       1.0  0.5186944408199352  0.8817839305577095  0.10920630571889231  1.0000
  O   O21       1.0  0.3969919633848207  0.294196600325165  0.47630479373837886  1.0000
  O   O22       1.0  0.8969886584182661  0.20580259947534776  0.0236948986857399  1.0000
  O   O23       1.0  0.6030091854435043  0.7058030662666608  0.5236923246834877  1.0000
  O   O24       1.0  0.10301097978517502  0.7941980182482524  0.9763072862218536  1.0000
  O   O25       1.0  0.7731066735739633  0.41906900221120946  0.4206139336960248  1.0000
  O   O26       1.0  0.2731071570694397  0.0809303852846028  0.0793867082722883  1.0000
  O   O27       1.0  0.22689900710911098  0.5809247053707409  0.579385683769118  1.0000
  O   O28       1.0  0.7268985235880975  0.919078149067758  0.9206158890531029  1.0000
