data_image0
_chemical_formula_structural       FeH8PdC14N6F2
_chemical_formula_sum              "Fe1 H8 Pd1 C14 N6 F2"
_cell_length_a       7.049047305385957
_cell_length_b       7.160745298707153
_cell_length_c       8.580518095423717
_cell_angle_alpha    114.52555123218998
_cell_angle_beta     98.21267085580998
_cell_angle_gamma    90.00019310582704

_space_group_name_H-M_alt    "P 1"
_space_group_IT_number       1

loop_
  _space_group_symop_operation_xyz
  'x, y, z'

loop_
  _atom_site_type_symbol
  _atom_site_label
  _atom_site_symmetry_multiplicity
  _atom_site_fract_x
  _atom_site_fract_y
  _atom_site_fract_z
  _atom_site_occupancy
  Fe  Fe1       1.0  0.999633640985074  0.0106448971324227  0.021212125878250342  1.0000
  H   H1        1.0  0.3117126658867305  0.8780623420079293  0.7546584910156116  1.0000
  H   H2        1.0  0.6882347712612853  0.11876472367018209  0.2395824165159581  1.0000
  H   H3        1.0  0.0415328943355249  0.6086884578141678  0.21777435882798105  1.0000
  H   H4        1.0  0.9597685983499602  0.38792771942929966  0.7753154715086554  1.0000
  H   H5        1.0  0.720979653399496  0.6610381253376545  0.32362905038578305  1.0000
  H   H6        1.0  0.2799942331185576  0.3345065741287242  0.6674480401318662  1.0000
  H   H7        1.0  0.7155774120364384  0.8218921135860242  0.6448758386887763  1.0000
  H   H8        1.0  0.2858549291442145  0.17468643857237243  0.34821101950870315  1.0000
  Pd  Pd1       1.0  0.4969545853473107  0.49957772950448737  0.9989134233858865  1.0000
  C   C1        1.0  0.18361064343451966  0.8284102217614444  0.6561555981981402  1.0000
  C   C2        1.0  0.8169755495183891  0.1677469917873466  0.3366358804685633  1.0000
  C   C3        1.0  0.19493651672454596  0.7402192170801667  0.4800940789405318  1.0000
  C   C4        1.0  0.8066341832348769  0.2558270627717362  0.5125373221610944  1.0000
  C   C5        1.0  0.031149934992157582  0.6774520166367849  0.3553856192390797  1.0000
  C   C6        1.0  0.9698787481622586  0.31888632082675633  0.6376129454797593  1.0000
  C   C7        1.0  0.8547943494983912  0.7070844352714258  0.41517835277245757  1.0000
  C   C8        1.0  0.14555605977067637  0.28865786205104627  0.5765072237229207  1.0000
  C   C9        1.0  0.8503417421035805  0.796243173106191  0.5930073141469734  1.0000
  C   C10       1.0  0.1508975329253772  0.19976780069036687  0.3991676000080205  1.0000
  C   C11       1.0  0.6899668963733561  0.6863560211419395  0.9814436156692354  1.0000
  C   C12       1.0  0.30705699324175834  0.7088471892490272  0.02590040892815888  1.0000
  C   C13       1.0  0.30653488680603397  0.3176349465317898  0.025727932050124032  1.0000
  C   C14       1.0  0.6895843805913627  0.2948561460526449  0.9812059469595555  1.0000
  N   N1        1.0  0.012022643374059798  0.8546581064433383  0.7090103977376218  1.0000
  N   N2        1.0  0.988856336274324  0.14012715426005679  0.28069223548246924  1.0000
  N   N3        1.0  0.8077568317112309  0.8060369312821792  0.9881480504787633  1.0000
  N   N4        1.0  0.1926400641385583  0.8306495097184977  0.037369623320167016  1.0000
  N   N5        1.0  0.19208654965370192  0.20713310168790136  0.037023631265554996  1.0000
  N   N6        1.0  0.8073128747106822  0.18176647958593856  0.9878214109303232  1.0000
  F   F1        1.0  0.3723232603296013  0.7163854837819273  0.4317760160058201  1.0000
  F   F2        1.0  0.6288409778092472  0.2794485304598169  0.559982970223871  1.0000
