data_image0
_chemical_formula_structural       Ni2H40C48N4O12
_chemical_formula_sum              "Ni2 H40 C48 N4 O12"
_cell_length_a       7.486419353234045
_cell_length_b       10.767504798459267
_cell_length_c       14.243573260647107
_cell_angle_alpha    106.80982132477895
_cell_angle_beta     95.74248908886571
_cell_angle_gamma    105.1576433602908

_space_group_name_H-M_alt    "P 1"
_space_group_IT_number       1

loop_
  _space_group_symop_operation_xyz
  'x, y, z'

loop_
  _atom_site_type_symbol
  _atom_site_label
  _atom_site_symmetry_multiplicity
  _atom_site_fract_x
  _atom_site_fract_y
  _atom_site_fract_z
  _atom_site_occupancy
  Ni  Ni1       1.0  0.29280074889688734  0.06582720715314849  0.27111872232662654  1.0000
  Ni  Ni2       1.0  0.707203957391826  0.9341669510172393  0.7288758884096397  1.0000
  H   H1        1.0  0.29798801248249857  0.6374272283778877  0.16692862266172173  1.0000
  H   H2        1.0  0.7019972118597337  0.36255146771565444  0.8330658792920433  1.0000
  H   H3        1.0  0.9491696513711788  0.3123063129907066  0.07664373544810842  1.0000
  H   H4        1.0  0.05080259929024312  0.6876792598730572  0.9233622949475732  1.0000
  H   H5        1.0  0.608812032372839  0.29655904204431477  0.06534209652100742  1.0000
  H   H6        1.0  0.39116225731459037  0.7034346425077513  0.934669361850233  1.0000
  H   H7        1.0  0.5122442030369782  0.5060354782890425  0.11907095687609369  1.0000
  H   H8        1.0  0.48774759945622054  0.4939655441507185  0.88093728907311  1.0000
  H   H9        1.0  0.7592136334280113  0.7334008322280636  0.18268572801134306  1.0000
  H   H10       1.0  0.24078003842431164  0.2665992784294246  0.8173097527564935  1.0000
  H   H11       1.0  0.30649181731503466  0.4305943166012298  0.35740418122060197  1.0000
  H   H12       1.0  0.6935177187691082  0.5694079683529621  0.6425987892189938  1.0000
  H   H13       1.0  0.27164523038145205  0.6631986518805063  0.4172903388761569  1.0000
  H   H14       1.0  0.7283720667737654  0.3368068056361508  0.5827073597649318  1.0000
  H   H15       1.0  0.9528532841585002  0.6923361374218968  0.4241313062730967  1.0000
  H   H16       1.0  0.047164445209936894  0.3076703344784021  0.5758673418800485  1.0000
  H   H17       1.0  0.6690883658406576  0.4866787079005517  0.3702199875172242  1.0000
  H   H18       1.0  0.33092784053830826  0.5133338151574874  0.6297820668876215  1.0000
  H   H19       1.0  0.21975657177092967  0.8633885361389205  0.3755798847163448  1.0000
  H   H20       1.0  0.7801850440118444  0.1366048214240649  0.6244209719168625  1.0000
  H   H21       1.0  0.21816667576110393  0.8706531296589758  0.5512747032560201  1.0000
  H   H22       1.0  0.7817791745381796  0.1293473694727965  0.4487286477694283  1.0000
  H   H23       1.0  0.3147531433343644  0.09621820935626599  0.6871106439693906  1.0000
  H   H24       1.0  0.6852666288525454  0.9037862280375247  0.312892548172421  1.0000
  H   H25       1.0  0.3918098802846898  0.3088560445806934  0.6380925547911576  1.0000
  H   H26       1.0  0.6082705932200483  0.6911460885515409  0.3619092063947208  1.0000
  H   H27       1.0  0.3799488628390221  0.2844313383020278  0.4570480299449145  1.0000
  H   H28       1.0  0.6201018422338151  0.7155633348424641  0.5429528802291159  1.0000
  H   H29       1.0  0.25207259739640614  0.2661671621752362  0.1838544415754626  1.0000
  H   H30       1.0  0.7479096992145317  0.7338307426585046  0.8161470764533051  1.0000
  H   H31       1.0  0.21683103687018243  0.2839502112477844  0.012703017621674919  1.0000
  H   H32       1.0  0.7831520449248118  0.7160628999842656  0.9873033683473837  1.0000
  H   H33       1.0  0.21941407233098428  0.08379436253733988  0.867453840562284  1.0000
  H   H34       1.0  0.78055906757605  0.9162247628998441  0.13254575196118176  1.0000
  H   H35       1.0  0.27103442171011227  0.880570382571065  0.9024930544265432  1.0000
  H   H36       1.0  0.7289657535788763  0.1194501415537061  0.09749747849441094  1.0000
  H   H37       1.0  0.3090814628767262  0.8795987299960756  0.07964586344121476  1.0000
  H   H38       1.0  0.690926692496326  0.12041176405845984  0.9203406423070819  1.0000
  H   H39       1.0  0.895446795928862  0.13959863057180394  0.27846344304365545  1.0000
  H   H40       1.0  0.10456786062117371  0.8604056932920725  0.7215479307826983  1.0000
  C   C1        1.0  0.13997793649082974  0.7844412770092999  0.19999216824216862  1.0000
  C   C2        1.0  0.8600215022245907  0.2155467589290295  0.7999973249790244  1.0000
  C   C3        1.0  0.9909820203565616  0.6514935283930184  0.16396250815787283  1.0000
  C   C4        1.0  0.009008087708110677  0.34849739447448497  0.8360342585995115  1.0000
  C   C5        1.0  0.04448583507149803  0.5305456226923082  0.13451803330815443  1.0000
  C   C6        1.0  0.9554952851677216  0.46943907196096996  0.8654832634825738  1.0000
  C   C7        1.0  0.9048696798943893  0.4034151267450665  0.09916296860558302  1.0000
  C   C8        1.0  0.09510727192114385  0.596572560033408  0.9008388245508031  1.0000
  C   C9        1.0  0.7162841289579872  0.39582517223623626  0.09348753274402102  1.0000
  C   C10       1.0  0.283692602072385  0.6041685899155167  0.9065163234999289  1.0000
  C   C11       1.0  0.66100456025611  0.5139764901743148  0.12362056706776062  1.0000
  C   C12       1.0  0.33898551338418764  0.48602047473089977  0.8763838808332239  1.0000
  C   C13       1.0  0.798469731050382  0.6401820341469956  0.15848234059579622  1.0000
  C   C14       1.0  0.20152239830982668  0.35981398564037187  0.8415149601798435  1.0000
  C   C15       1.0  0.6607012305727122  0.222189965851335  0.3018065261043645  1.0000
  C   C16       1.0  0.33930457486561494  0.7778133066763004  0.6981936985126398  1.0000
  C   C17       1.0  0.8265887364167169  0.34528004247188443  0.3343593435573099  1.0000
  C   C18       1.0  0.1734188966195588  0.6547242519871402  0.6656432964356328  1.0000
  C   C19       1.0  0.008781626068142085  0.3296889605878873  0.3310586918590205  1.0000
  C   C20       1.0  0.9912283366645906  0.6703173576853202  0.6689494197929308  1.0000
  C   C21       1.0  0.1682064066217066  0.4451164112833013  0.3612433188858405  1.0000
  C   C22       1.0  0.8318039938888974  0.5548879024381674  0.6387615505778613  1.0000
  C   C23       1.0  0.1468512226780588  0.5740720748910346  0.394318333563426  1.0000
  C   C24       1.0  0.8531665066903854  0.42593439700926417  0.6056803145897192  1.0000
  C   C25       1.0  0.9680140382027459  0.5908190775486374  0.3981385940580823  1.0000
  C   C26       1.0  0.03200371446079226  0.4091873901847122  0.6018607563520675  1.0000
  C   C27       1.0  0.8099542751740642  0.47686845268589184  0.3683518580523427  1.0000
  C   C28       1.0  0.1900589700329646  0.5231399761212286  0.6316498482394195  1.0000
  C   C29       1.0  0.254377834783419  0.9598664082674232  0.4354471628777503  1.0000
  C   C30       1.0  0.7456022951967469  0.04012944358350979  0.5645537992910407  1.0000
  C   C31       1.0  0.2548991918329975  0.9650120578188035  0.5339408930191852  1.0000
  C   C32       1.0  0.7450794673125215  0.034986817920596984  0.46606068821500923  1.0000
  C   C33       1.0  0.3061878565251703  0.09086789712458199  0.6092964250042883  1.0000
  C   C34       1.0  0.6938316287837407  0.9091324819485104  0.3907058394671949  1.0000
  C   C35       1.0  0.351277745451128  0.20800911151975038  0.58198841075086  1.0000
  C   C36       1.0  0.6487750275074402  0.7919906502107209  0.41801443795542786  1.0000
  C   C37       1.0  0.3453806819209291  0.1958245027721333  0.4816999283149174  1.0000
  C   C38       1.0  0.6546583162144941  0.8041710418212347  0.5183013792222937  1.0000
  C   C39       1.0  0.2540240490337666  0.18289951199626836  0.119328072003853  1.0000
  C   C40       1.0  0.7459597434790907  0.817102492041485  0.8806702215031026  1.0000
  C   C41       1.0  0.23326870659095533  0.19111412958908147  0.023420117916423105  1.0000
  C   C42       1.0  0.7667152740548673  0.8088949683725273  0.9765804859331555  1.0000
  C   C43       1.0  0.2365590583147963  0.08098475028669579  0.9434768940664287  1.0000
  C   C44       1.0  0.7634289704867427  0.919031522579267  0.05652058611936173  1.0000
  C   C45       1.0  0.2633040733309215  0.9668750586865185  0.9628090858584671  1.0000
  C   C46       1.0  0.736687984123705  0.03313824705593049  0.03718368441964511  1.0000
  C   C47       1.0  0.2836279707943773  0.964967649680659  0.060329303177638786  1.0000
  C   C48       1.0  0.7163718692542459  0.035041697197883095  0.9396622052723842  1.0000
  N   N1        1.0  0.2994488818989182  0.0733644614980662  0.40887585623698913  1.0000
  N   N2        1.0  0.7005532432762606  0.9266296440743103  0.5911221430845545  1.0000
  N   N3        1.0  0.27706927229230166  0.07089458002790387  0.13736326887745076  1.0000
  N   N4        1.0  0.7229251941011796  0.9291075718976954  0.8626320041434854  1.0000
  O   O1        1.0  0.08883107782476424  0.8941780650621209  0.2251214635307974  1.0000
  O   O2        1.0  0.9111803724365258  0.1058161725164695  0.7748734539548465  1.0000
  O   O3        1.0  0.31261054416343365  0.7880415221819846  0.2060646477655227  1.0000
  O   O4        1.0  0.6873867390504883  0.21193842290276876  0.7939159061950889  1.0000
  O   O5        1.0  0.22660761759687628  0.5347005967223666  0.1396804338454487  1.0000
  O   O6        1.0  0.7733715046418936  0.4652789968440985  0.8603210311840217  1.0000
  O   O7        1.0  0.49711790199110345  0.23738563409927588  0.3136439730733969  1.0000
  O   O8        1.0  0.502885812266392  0.7626125540093296  0.6863536107543384  1.0000
  O   O9        1.0  0.6825640654760006  0.10567021613654497  0.2644232181816477  1.0000
  O   O10       1.0  0.3174479296815491  0.894335161185765  0.7355770440879611  1.0000
  O   O11       1.0  0.031302246880535706  0.20478420713048  0.299350366228623  1.0000
  O   O12       1.0  0.9687109854250479  0.7952231322879796  0.7006630311771433  1.0000
