data_image0
_chemical_formula_structural       Mg6H42C78N12O18
_chemical_formula_sum              "Mg6 H42 C78 N12 O18"
_cell_length_a       6.881502507516789
_cell_length_b       41.8785335102436
_cell_length_c       41.88596069966385
_cell_angle_alpha    119.70545038436978
_cell_angle_beta     93.14599316288964
_cell_angle_gamma    93.12332113690455

_space_group_name_H-M_alt    "P 1"
_space_group_IT_number       1

loop_
  _space_group_symop_operation_xyz
  'x, y, z'

loop_
  _atom_site_type_symbol
  _atom_site_label
  _atom_site_symmetry_multiplicity
  _atom_site_fract_x
  _atom_site_fract_y
  _atom_site_fract_z
  _atom_site_occupancy
  Mg  Mg1       1.0  0.6214818138266055  0.639015935371667  0.3273719870042129  1.0000
  Mg  Mg2       1.0  0.294040865380353  0.672611624353358  0.31162431183548017  1.0000
  Mg  Mg3       1.0  0.9823101115061379  0.6883825275742481  0.3609544124612967  1.0000
  Mg  Mg4       1.0  0.3692997279933579  0.3593630265607004  0.6684948707111502  1.0000
  Mg  Mg5       1.0  0.7008941327878163  0.33152694661620785  0.6908988328183412  1.0000
  Mg  Mg6       1.0  0.010031399148594732  0.3091164151314629  0.6406447421232714  1.0000
  H   H1        1.0  0.03171887004051403  0.39440678872077933  0.7940708163604314  1.0000
  H   H2        1.0  0.23799651039911401  0.20593376508015376  0.6003391053044567  1.0000
  H   H3        1.0  0.6373461533098564  0.3997368003747042  0.6056888287784618  1.0000
  H   H4        1.0  0.4625487111671944  0.456203013024904  0.9482447222429401  1.0000
  H   H5        1.0  0.5140284479947539  0.051656997654134784  0.5079234482699775  1.0000
  H   H6        1.0  0.006039945497704547  0.49206188160052716  0.5438103548038669  1.0000
  H   H7        1.0  0.2976582701116541  0.485428959533813  0.005933279747836135  1.0000
  H   H8        1.0  0.2913239240240275  0.9940130053655666  0.47950854674665794  1.0000
  H   H9        1.0  0.8118644441055167  0.5204692313736172  0.5145219229629419  1.0000
  H   H10       1.0  0.8464692923600127  0.513864055545376  0.9510281924827524  1.0000
  H   H11       1.0  0.8954619594106817  0.049023061766284605  0.562883794028707  1.0000
  H   H12       1.0  0.3327325057290268  0.4370679555246609  0.48608077016959333  1.0000
  H   H13       1.0  0.005170150602161491  0.4819149918160404  0.8930105367221801  1.0000
  H   H14       1.0  0.11223845932233438  0.10703130463915035  0.5888841572423474  1.0000
  H   H15       1.0  0.523424420068345  0.41106080459299205  0.5180894799963766  1.0000
  H   H16       1.0  0.2240553659382982  0.5310809477075223  0.05423850815752468  1.0000
  H   H17       1.0  0.16932481077957107  0.9457575361766071  0.4768311075480795  1.0000
  H   H18       1.0  0.692840046424884  0.5231401072229146  0.46890556755519  1.0000
  H   H19       1.0  0.060034514557024465  0.5603750935902948  0.1115042876841271  1.0000
  H   H20       1.0  0.9481772098811377  0.8884826386177592  0.4488411033235307  1.0000
  H   H21       1.0  0.4995264614353375  0.5511363442219307  0.4396239675398165  1.0000
  H   H22       1.0  0.5133750143543878  0.5448596343925587  0.04868042661335882  1.0000
  H   H23       1.0  0.4644541820389776  0.9512881518371897  0.4962841067187825  1.0000
  H   H24       1.0  0.9684825918951886  0.5037276841455165  0.45501353192439337  1.0000
  H   H25       1.0  0.673517284730764  0.514788523214179  0.9907982834019294  1.0000
  H   H26       1.0  0.6822671933035382  0.009195733548352798  0.5240650338781307  1.0000
  H   H27       1.0  0.15861839394852956  0.47591026822149013  0.4850803219770228  1.0000
  H   H28       1.0  0.3866544207869112  0.578875157302228  0.15580241152479588  1.0000
  H   H29       1.0  0.2307251580494168  0.8442264844599022  0.4230085805743045  1.0000
  H   H30       1.0  0.8081492822646866  0.577001400514291  0.4211627733356523  1.0000
  H   H31       1.0  0.2639407086703259  0.6012768168276139  0.217797572166937  1.0000
  H   H32       1.0  0.0457902672736737  0.7822355824949768  0.38347956203200795  1.0000
  H   H33       1.0  0.6628346027868305  0.6165991540863373  0.39876743252558805  1.0000
  H   H34       1.0  0.9677311473837948  0.6232187860020416  0.2080600580439764  1.0000
  H   H35       1.0  0.7593446550930808  0.7919054068587315  0.4151660497188915  1.0000
  H   H36       1.0  0.3445814576077737  0.5848325840963112  0.3767031720425392  1.0000
  H   H37       1.0  0.618632690896668  0.4387147541568196  0.8426469165732442  1.0000
  H   H38       1.0  0.7764227799084653  0.15734337779426258  0.5960845634724308  1.0000
  H   H39       1.0  0.1797477325911103  0.40393481612714766  0.5612975317844758  1.0000
  H   H40       1.0  0.7350683986790684  0.4095893396612594  0.7795680407017613  1.0000
  H   H41       1.0  0.9558396253304124  0.2204286865896704  0.6300436346655829  1.0000
  H   H42       1.0  0.3255700024172157  0.3700216488790885  0.5904578693723508  1.0000
  C   C1        1.0  0.09959919927440104  0.3574832658137339  0.7242215934919116  1.0000
  C   C2        1.0  0.37552443585500583  0.2757844366590091  0.6332903341267554  1.0000
  C   C3        1.0  0.7420685034514918  0.3667302223247119  0.642529467776086  1.0000
  C   C4        1.0  0.24832075822589422  0.380535326417437  0.7551765864335707  1.0000
  C   C5        1.0  0.49341139649106935  0.24482124222783588  0.6253620716251974  1.0000
  C   C6        1.0  0.8678732102103979  0.37470452769417756  0.6195397765153318  1.0000
  C   C7        1.0  0.1859772102610009  0.39785232865377634  0.7907207960019845  1.0000
  C   C8        1.0  0.3955895157703607  0.20927177466147376  0.6071280365620736  1.0000
  C   C9        1.0  0.7881841875105807  0.3929472514871718  0.6022368812451476  1.0000
  C   C10       1.0  0.3151707643422697  0.4189414548595919  0.8221638297374766  1.0000
  C   C11       1.0  0.49336121767191804  0.17781955327917837  0.596765886620375  1.0000
  C   C12       1.0  0.8962423463416871  0.40329131014392755  0.5811407071830175  1.0000
  C   C13       1.0  0.24277509642558923  0.46686418871436763  0.9170326858691239  1.0000
  C   C14       1.0  0.3256229387351227  0.08295153741782  0.5497985465827641  1.0000
  C   C15       1.0  0.7758181244967305  0.45016846762493407  0.533148906447444  1.0000
  C   C16       1.0  0.32722319940538824  0.46898880653414193  0.949359738228189  1.0000
  C   C17       1.0  0.37757895774246475  0.0505861893510797  0.5196055725441441  1.0000
  C   C18       1.0  0.8580274616219584  0.48036827625609385  0.5310074778062628  1.0000
  C   C19       1.0  0.2344099404739026  0.4856969453787484  0.981649648550757  1.0000
  C   C20       1.0  0.252417326163453  0.01831384523969599  0.5040524960024229  1.0000
  C   C21       1.0  0.7485053390148124  0.4959145989924565  0.5142633202399338  1.0000
  C   C22       1.0  0.05882331508305328  0.5020999207328598  0.9832165086236273  1.0000
  C   C23       1.0  0.07529702806186832  0.016781431244190497  0.5189019815157607  1.0000
  C   C24       1.0  0.5566207800240051  0.48104577478969907  0.4978380950720265  1.0000
  C   C25       1.0  0.978885547475194  0.500556946276532  0.9506244615689922  1.0000
  C   C26       1.0  0.028155027146929995  0.04940400192434418  0.5499513958758584  1.0000
  C   C27       1.0  0.47834595629232984  0.44999783015033745  0.4993945899942532  1.0000
  C   C28       1.0  0.0674834791772696  0.4830216765043785  0.9180499145847493  1.0000
  C   C29       1.0  0.1493603794114335  0.08196835237038158  0.564957309795112  1.0000
  C   C30       1.0  0.5844828535394555  0.434991440158356  0.5169672864316937  1.0000
  C   C31       1.0  0.9622770430366784  0.5203988897977536  0.0176361487968818  1.0000
  C   C32       1.0  0.9442178790458655  0.9823645569323102  0.5027923812567393  1.0000
  C   C33       1.0  0.44175581842000605  0.49716335596156086  0.47952104746543256  1.0000
  C   C34       1.0  0.06764578820607887  0.5336470978080426  0.05244462808721543  1.0000
  C   C35       1.0  0.014746944614302003  0.9475472032843867  0.4811971649885931  1.0000
  C   C36       1.0  0.5338843300717855  0.5187609275108327  0.46631027357768323  1.0000
  C   C37       1.0  0.9774228221674903  0.5503166875347458  0.08485005464135736  1.0000
  C   C38       1.0  0.8921862133430236  0.9151393903935341  0.46546052578702296  1.0000
  C   C39       1.0  0.4270223869849872  0.5345076639954199  0.44964879139624975  1.0000
  C   C40       1.0  0.7756897074173139  0.5543677199508891  0.08376541867402654  1.0000
  C   C41       1.0  0.6916040089422707  0.9162271319672539  0.47063324653365146  1.0000
  C   C42       1.0  0.22126036580721123  0.5293482208328512  0.445562461184636  1.0000
  C   C43       1.0  0.6692020579929762  0.5414929744845265  0.04943519952911386  1.0000
  C   C44       1.0  0.6194417592620244  0.9505561178124752  0.4921334882145134  1.0000
  C   C45       1.0  0.12762611657627335  0.5078570161468576  0.45839490623433926  1.0000
  C   C46       1.0  0.7609760495333335  0.5250019181173825  0.01704307553690404  1.0000
  C   C47       1.0  0.743553207490095  0.9829538502755141  0.5080244277031626  1.0000
  C   C48       1.0  0.2358673117012557  0.49194842646061687  0.4748815568921998  1.0000
  C   C49       1.0  0.6875806389932536  0.599184474690496  0.17802466667586714  1.0000
  C   C50       1.0  0.5092664394621026  0.8219590824144374  0.4211284294762762  1.0000
  C   C51       1.0  0.08861098795339471  0.5788904299668756  0.4008195865203986  1.0000
  C   C52       1.0  0.48613590081496477  0.593543939112919  0.1809529115573979  1.0000
  C   C53       1.0  0.3049166345724146  0.8190594614302639  0.41255523673476086  1.0000
  C   C54       1.0  0.892867487014094  0.5874938800023202  0.40650057541353135  1.0000
  C   C55       1.0  0.41844577909436953  0.6059174981399944  0.21527086530554124  1.0000
  C   C56       1.0  0.20283607853131977  0.7847448727616353  0.3906314808290077  1.0000
  C   C57       1.0  0.8127492878599014  0.6094465277799869  0.39414095192704923  1.0000
  C   C58       1.0  0.5455847054552622  0.6241819007901768  0.24840250754365917  1.0000
  C   C59       1.0  0.2968103272526507  0.7515989843035911  0.375774411315426  1.0000
  C   C60       1.0  0.9215025808980927  0.6243052422105889  0.3758605614347417  1.0000
  C   C61       1.0  0.7483287940323464  0.6309918977785925  0.24532585033663418  1.0000
  C   C62       1.0  0.5026556467665556  0.7546537239142096  0.38566281909501743  1.0000
  C   C63       1.0  0.11744155116582523  0.61439950350298  0.3690273915034366  1.0000
  C   C64       1.0  0.8133194309702816  0.6182773849693318  0.21029227806387496  1.0000
  C   C65       1.0  0.602716056671504  0.7896855108918358  0.4079803358055329  1.0000
  C   C66       1.0  0.19518712601090735  0.592058917386538  0.38171803806877597  1.0000
  C   C67       1.0  0.8956250402032779  0.6507600031147831  0.2772997772157382  1.0000
  C   C68       1.0  0.6180897081973314  0.7226863654748001  0.3734492749284755  1.0000
  C   C69       1.0  0.24486355929154513  0.6265553951833025  0.34920872825716015  1.0000
  C   C70       1.0  0.5165243426474504  0.422567798194045  0.8180589929688509  1.0000
  C   C71       1.0  0.6988285885152481  0.18193118722809484  0.6045136793610625  1.0000
  C   C72       1.0  0.09394934789114728  0.39553773594649744  0.5774934506722432  1.0000
  C   C73       1.0  0.5808967465309252  0.4063445504921575  0.7831617934707041  1.0000
  C   C74       1.0  0.7980768126972038  0.2168355217111824  0.6231916838303634  1.0000
  C   C75       1.0  0.174642302371339  0.3768780334357159  0.5937279606082342  1.0000
  C   C76       1.0  0.45089711791730025  0.38553134770560854  0.7506961883667742  1.0000
  C   C77       1.0  0.7005070529260208  0.24930917435106173  0.6348397879335508  1.0000
  C   C78       1.0  0.0654927322410899  0.365227826972223  0.6145474113277701  1.0000
  N   N1        1.0  0.22712965659281548  0.43541416481804157  0.8554154825452187  1.0000
  N   N2        1.0  0.37200554133534774  0.14457786611578877  0.579984838452603  1.0000
  N   N3        1.0  0.7916622004038842  0.42004979251226615  0.5646526776953493  1.0000
  N   N4        1.0  0.34096600859217574  0.44873871314139535  0.8848768945770618  1.0000
  N   N5        1.0  0.4561862872872808  0.11509372281868475  0.5638245722860731  1.0000
  N   N6        1.0  0.8921615474564036  0.43616780992870463  0.5513139540957326  1.0000
  N   N7        1.0  0.6706163601350709  0.5694239957522311  0.1152912950587107  1.0000
  N   N8        1.0  0.5550203727210886  0.8846987750566556  0.45415898178162456  1.0000
  N   N9        1.0  0.10121045677669824  0.5458565880287052  0.4305196154529938  1.0000
  N   N10       1.0  0.7801873942405705  0.586205739996174  0.14541777147821472  1.0000
  N   N11       1.0  0.6345271677446364  0.8545651672717298  0.44076386400902823  1.0000
  N   N12       1.0  0.19411913867972436  0.5592087176676231  0.4137570637631285  1.0000
  O   O1        1.0  0.06933830227833232  0.6593208159974109  0.273353743119955  1.0000
  O   O2        1.0  0.795796870450765  0.7266535892709668  0.38593306032430513  1.0000
  O   O3        1.0  0.4100157377837021  0.614030298038024  0.3406413158157164  1.0000
  O   O4        1.0  0.8443214373636821  0.6588319116793212  0.30955044236969087  1.0000
  O   O5        1.0  0.5346236278625939  0.690423430400159  0.3492729930932512  1.0000
  O   O6        1.0  0.18539402261936297  0.6507127148228944  0.34110952053161003  1.0000
  O   O7        1.0  0.4725357205270698  0.633833936404116  0.2806056962693119  1.0000
  O   O8        1.0  0.19164378303374022  0.7193859859306002  0.35319925006732694  1.0000
  O   O9        1.0  0.838676378564294  0.6468452479253057  0.36619531222023466  1.0000
  O   O10       1.0  0.9270215014945935  0.35039866339665326  0.7299292381777605  1.0000
  O   O11       1.0  0.1972182274241874  0.2700730808955711  0.6205166649255532  1.0000
  O   O12       1.0  0.5764102133017418  0.3794760207117632  0.6495588230697393  1.0000
  O   O13       1.0  0.14875903350601055  0.3446859841490663  0.6909398734074514  1.0000
  O   O14       1.0  0.4579413612558626  0.30907671372929  0.6537887885331486  1.0000
  O   O15       1.0  0.8040566623685025  0.34623305219237455  0.6553188968256549  1.0000
  O   O16       1.0  0.5213865908548457  0.3718451428146707  0.7177063031222134  1.0000
  O   O17       1.0  0.8039085545027689  0.28230740540215027  0.6541444523749007  1.0000
  O   O18       1.0  0.1496327230575716  0.3458995562520783  0.6282120864393334  1.0000
