data_image0
_chemical_formula_structural       Zn4H52C92N12O16
_chemical_formula_sum              "Zn4 H52 C92 N12 O16"
_cell_length_a       11.674435100008287
_cell_length_b       15.717451055818989
_cell_length_c       17.964354052517315
_cell_angle_alpha    90.0635457363119
_cell_angle_beta     90.00012184221796
_cell_angle_gamma    90.00006182226299

_space_group_name_H-M_alt    "P 1"
_space_group_IT_number       1

loop_
  _space_group_symop_operation_xyz
  'x, y, z'

loop_
  _atom_site_type_symbol
  _atom_site_label
  _atom_site_symmetry_multiplicity
  _atom_site_fract_x
  _atom_site_fract_y
  _atom_site_fract_z
  _atom_site_occupancy
  Zn  Zn1       1.0  0.25493903847804933  0.5058501889504753  0.7825273796024914  1.0000
  Zn  Zn2       1.0  0.257504727140045  0.5054348757806082  0.9378091586401065  1.0000
  Zn  Zn3       1.0  0.7549383143036438  0.49415009754326883  0.2174729968094978  1.0000
  Zn  Zn4       1.0  0.7575043514585147  0.4945654127710243  0.062191221315934776  1.0000
  H   H1        1.0  0.07198017553685791  0.4904756998999317  0.19468005658293205  1.0000
  H   H2        1.0  0.4432555332789647  0.4968246819762783  0.19542652100246724  1.0000
  H   H3        1.0  0.9672010829874437  0.0020667318462698992  0.8500384854673794  1.0000
  H   H4        1.0  0.5449716556203795  0.009698303392944798  0.844185841457431  1.0000
  H   H5        1.0  0.3986021184694764  0.7638620472954757  0.9453026839275293  1.0000
  H   H6        1.0  0.09695033911921058  0.2560632301938596  0.9553122727367974  1.0000
  H   H7        1.0  0.5190868346783262  0.8953420249544733  0.9392046882931663  1.0000
  H   H8        1.0  0.977161559473778  0.1243882438100457  0.9492723804603639  1.0000
  H   H9        1.0  0.5749306077191179  0.6638531092805308  0.7545957449767469  1.0000
  H   H10       1.0  0.948002807482652  0.34196620257457505  0.750266553126181  1.0000
  H   H11       1.0  0.7039450776576714  0.790405530323845  0.7536322129300499  1.0000
  H   H12       1.0  0.8199005813540907  0.21466539904986345  0.7479621414614923  1.0000
  H   H13       1.0  0.08018077894128339  0.4977691742490577  0.05611137056539658  1.0000
  H   H14       1.0  0.43608922449730875  0.5022233437326662  0.05670549728240098  1.0000
  H   H15       1.0  0.1074622427464718  0.7512944988054783  0.7634479251761231  1.0000
  H   H16       1.0  0.41740320850090024  0.2667120219986003  0.7532296324830977  1.0000
  H   H17       1.0  0.9241101525411681  0.6688060129765532  0.958142051446863  1.0000
  H   H18       1.0  0.5790413973195143  0.33764161451548347  0.9594167643339657  1.0000
  H   H19       1.0  0.9845403099774542  0.8810463737008049  0.7567367359311702  1.0000
  H   H20       1.0  0.539849284939187  0.1364737922043204  0.7468815231427112  1.0000
  H   H21       1.0  0.7970291335482571  0.7946741753800237  0.9488570878477984  1.0000
  H   H22       1.0  0.70540629240098  0.21148857121794856  0.9509364060239772  1.0000
  H   H23       1.0  0.07704132614212969  0.45929277892416565  0.5261871137273315  1.0000
  H   H24       1.0  0.43508353787924386  0.5284108827481832  0.5249861110726497  1.0000
  H   H25       1.0  0.0823625899944673  0.4700419612348695  0.6652003956657493  1.0000
  H   H26       1.0  0.4263158943895888  0.5348814396979619  0.6641008530196045  1.0000
  H   H27       1.0  0.5719796863000183  0.5095250764459038  0.8053206240860715  1.0000
  H   H28       1.0  0.9432550323590335  0.5031744830807979  0.8045741149035235  1.0000
  H   H29       1.0  0.467202163979735  0.9979343586453594  0.14995828782968346  1.0000
  H   H30       1.0  0.04497360126408269  0.9903011802369901  0.15581702792567134  1.0000
  H   H31       1.0  0.898602198851968  0.23613771818439486  0.05469789060968109  1.0000
  H   H32       1.0  0.5969494123091507  0.7439375640542137  0.044685102472456585  1.0000
  H   H33       1.0  0.019087180610100105  0.10465807202596268  0.060794805694385376  1.0000
  H   H34       1.0  0.4771629940124739  0.8756128567946035  0.050727746543763885  1.0000
  H   H35       1.0  0.0749310386070547  0.3361457610787325  0.24540549550347615  1.0000
  H   H36       1.0  0.44800372082911377  0.6580329645202526  0.249731306046982  1.0000
  H   H37       1.0  0.20394618416517568  0.20959471527213216  0.24636809304863042  1.0000
  H   H38       1.0  0.3199042571696821  0.785334939546516  0.2520383246805976  1.0000
  H   H39       1.0  0.5801798764542879  0.5022303362021673  0.9438893208150527  1.0000
  H   H40       1.0  0.9360891701552986  0.4977745431054783  0.9432951281103353  1.0000
  H   H41       1.0  0.6074620805716365  0.24870503281839257  0.23655169057055042  1.0000
  H   H42       1.0  0.9174037847758995  0.7332871233868232  0.2467726376900784  1.0000
  H   H43       1.0  0.42411247914418493  0.3311931353103574  0.04185633138412469  1.0000
  H   H44       1.0  0.07903649237719888  0.6623591671378152  0.04058336942701148  1.0000
  H   H45       1.0  0.48454041787548624  0.11895345964161659  0.2432622873322429  1.0000
  H   H46       1.0  0.039850508332087  0.8635244144914508  0.2531207818913045  1.0000
  H   H47       1.0  0.2970304508819197  0.2053255072199249  0.05114111976152458  1.0000
  H   H48       1.0  0.205401598767871  0.7885116759016882  0.04906445862714998  1.0000
  H   H49       1.0  0.5770406528668488  0.5407092735982603  0.4738130178892204  1.0000
  H   H50       1.0  0.9350810548388182  0.4715895478714387  0.4750139575015807  1.0000
  H   H51       1.0  0.5823597325469265  0.5299600959085281  0.3348002999573793  1.0000
  H   H52       1.0  0.9263120896406177  0.4651177117717609  0.3358997594865085  1.0000
  C   C1        1.0  0.4802529813298123  0.7054821474383034  0.8509131888315478  1.0000
  C   C2        1.0  0.029761518865306903  0.3068913585854744  0.8531716867674245  1.0000
  C   C3        1.0  0.40590415014818143  0.6280610118248404  0.8536884984121113  1.0000
  C   C4        1.0  0.10514252766088822  0.38370934485256214  0.8554004417806379  1.0000
  C   C5        1.0  0.6209571053359824  0.8510352382910823  0.8471466151475011  1.0000
  C   C6        1.0  0.8901028194154108  0.1610039089827069  0.8487787401939924  1.0000
  C   C7        1.0  0.8821166419364416  0.8468012318233348  0.8522058829889188  1.0000
  C   C8        1.0  0.6309493832495435  0.1650901413620858  0.8484565619421357  1.0000
  C   C9        1.0  0.1542916084289061  0.49332900473793734  0.16628636793794974  1.0000
  C   C10       1.0  0.3612104027660266  0.4966708323707961  0.16665663412647544  1.0000
  C   C11       1.0  0.8140628658635904  0.9263226846493493  0.8486827855422019  1.0000
  C   C12       1.0  0.6981559994829993  0.08512797474453038  0.8462887309057192  1.0000
  C   C13       1.0  0.1023879805399091  0.6266260796271227  0.8635354319144494  1.0000
  C   C14       1.0  0.41032561086149133  0.38476859336346086  0.8600782052036775  1.0000
  C   C15       1.0  0.0238805920706469  0.7019476392719068  0.8608586434672173  1.0000
  C   C16       1.0  0.4898900000101136  0.31015116801412995  0.8564717792211025  1.0000
  C   C17       1.0  0.8737764330398077  0.003705393083357899  0.8486542481091559  1.0000
  C   C18       1.0  0.6384040143548616  0.0079106631456156  0.8454130292334197  1.0000
  C   C19       1.0  0.6930188922252967  0.9285617073506601  0.846930868437553  1.0000
  C   C20       1.0  0.8190303713396646  0.08293776227105809  0.8477578892240626  1.0000
  C   C21       1.0  0.46441166217410773  0.7709977501220066  0.9027519012663345  1.0000
  C   C22       1.0  0.03770370646005009  0.24556599439016222  0.9093583779272122  1.0000
  C   C23       1.0  0.5323396218385738  0.8435998057699763  0.8996163261975523  1.0000
  C   C24       1.0  0.9702198604126339  0.17274457980273894  0.906085734018404  1.0000
  C   C25       1.0  0.5652171801331249  0.7139830783367955  0.7961366429676457  1.0000
  C   C26       1.0  0.9520707082633209  0.2946227775578976  0.7944929678134753  1.0000
  C   C27       1.0  0.6363864127271484  0.7849979164445101  0.7952987436564242  1.0000
  C   C28       1.0  0.8813854352196557  0.2233418228001014  0.7930623574112017  1.0000
  C   C29       1.0  0.158468131945888  0.4968160804296673  0.08905231477038457  1.0000
  C   C30       1.0  0.3576049654561899  0.5005262935968916  0.08943555682935768  1.0000
  C   C31       1.0  0.2576260096799388  0.4934154126418306  0.20604522264849826  1.0000
  C   C32       1.0  0.0396200622672467  0.7619746922645305  0.8040428740515888  1.0000
  C   C33       1.0  0.4804829812299189  0.253494975138942  0.7963781978812319  1.0000
  C   C34       1.0  0.9363453938241902  0.7145762480270219  0.9132519077129895  1.0000
  C   C35       1.0  0.571579685395676  0.29450081529758876  0.9120766305687195  1.0000
  C   C36       1.0  0.25771008555845043  0.49043703339366107  0.2878190707632554  1.0000
  C   C37       1.0  0.9708000679879589  0.8339851168891812  0.8004706324101745  1.0000
  C   C38       1.0  0.5489427666739174  0.1812266864211338  0.7930222827932452  1.0000
  C   C39       1.0  0.8651925296046699  0.7855552093935146  0.9081131530208492  1.0000
  C   C40       1.0  0.6423924740612108  0.2233800564578274  0.9073429866907641  1.0000
  C   C41       1.0  0.2569299841853904  0.49051599374855204  0.4319712662458385  1.0000
  C   C42       1.0  0.25597332947878465  0.49391410600545543  0.5139636232330529  1.0000
  C   C43       1.0  0.1558537635832025  0.4767944374931972  0.5542884896489111  1.0000
  C   C44       1.0  0.3553572336433817  0.5150916899200269  0.5536725534308927  1.0000
  C   C45       1.0  0.15816235687097444  0.48236094243124217  0.6314373026303881  1.0000
  C   C46       1.0  0.3512252569683625  0.5187291374532349  0.6308393556664739  1.0000
  C   C47       1.0  0.9802525992799929  0.2945170476458045  0.14908805483482715  1.0000
  C   C48       1.0  0.5297608527109432  0.6931093821295561  0.14682615229673243  1.0000
  C   C49       1.0  0.9059030150706704  0.3719387612812213  0.14631486950096925  1.0000
  C   C50       1.0  0.6051408858717194  0.6162914538412637  0.14459360479436603  1.0000
  C   C51       1.0  0.12095781729650672  0.14896494039214764  0.15285301954694563  1.0000
  C   C52       1.0  0.3901045298908983  0.8389971221526977  0.15122182322004107  1.0000
  C   C53       1.0  0.38211734348153215  0.1531985193728431  0.14779299880387947  1.0000
  C   C54       1.0  0.13095023226436098  0.8349094105157066  0.15154531287918616  1.0000
  C   C55       1.0  0.6542894949100599  0.5066724735049064  0.8337138700706813  1.0000
  C   C56       1.0  0.8612082831717417  0.5033289031190549  0.8333438887625204  1.0000
  C   C57       1.0  0.3140634632612205  0.07367637573008781  0.15131600194475675  1.0000
  C   C58       1.0  0.1981569719291869  0.9148722672705604  0.15371323705133474  1.0000
  C   C59       1.0  0.6023885284280794  0.3733740827468992  0.13646195049886956  1.0000
  C   C60       1.0  0.910325665365704  0.6152305466993866  0.13992461185150515  1.0000
  C   C61       1.0  0.5238827522966787  0.2980518249641548  0.13914030017709675  1.0000
  C   C62       1.0  0.9898910314557982  0.6898480362158992  0.14353170438994303  1.0000
  C   C63       1.0  0.3737766596122896  0.9962962594227706  0.15134350977001523  1.0000
  C   C64       1.0  0.13840510200459727  0.9920882584753129  0.15458885557704594  1.0000
  C   C65       1.0  0.1930194921093502  0.07143916607184761  0.1530699794149513  1.0000
  C   C66       1.0  0.31903134215518486  0.9170625749181979  0.15224146239783914  1.0000
  C   C67       1.0  0.9644118715668241  0.2290020681389038  0.09724876416931486  1.0000
  C   C68       1.0  0.5377038020338887  0.7544347526950189  0.09063947210749025  1.0000
  C   C69       1.0  0.032339316161014195  0.15640157466488347  0.10038374336814827  1.0000
  C   C70       1.0  0.4702196529310356  0.8272571511155462  0.09391382704590967  1.0000
  C   C71       1.0  0.0652174020103686  0.286016420821788  0.20386514106171202  1.0000
  C   C72       1.0  0.4520715456058184  0.7053776652710084  0.20550489759358465  1.0000
  C   C73       1.0  0.1363873906084478  0.2150016394399259  0.20470258201661545  1.0000
  C   C74       1.0  0.38138809409591085  0.776658564400236  0.20693708033877553  1.0000
  C   C75       1.0  0.6584688360788675  0.5031841283383897  0.9109473717355452  1.0000
  C   C76       1.0  0.8576048063623176  0.49947280205821454  0.9105638474570695  1.0000
  C   C77       1.0  0.757627192077841  0.5065848752995947  0.7939540441597824  1.0000
  C   C78       1.0  0.5396206081431316  0.23802478494841484  0.19595664798967494  1.0000
  C   C79       1.0  0.9804851485252826  0.7465029473050606  0.20362248883117923  1.0000
  C   C80       1.0  0.4363469443226222  0.2854229100725546  0.08674649201718407  1.0000
  C   C81       1.0  0.07157756801256449  0.7054986882548487  0.08792404893076618  1.0000
  C   C82       1.0  0.7577092912651652  0.5095632553225046  0.7121813094761433  1.0000
  C   C83       1.0  0.4708001010826237  0.16601534096083978  0.19952725886594885  1.0000
  C   C84       1.0  0.048942917237241104  0.818772800038957  0.20698003541547638  1.0000
  C   C85       1.0  0.3651939936778064  0.21444452822937873  0.09188570539632927  1.0000
  C   C86       1.0  0.14239133222567088  0.7766201404785421  0.09265834758419797  1.0000
  C   C87       1.0  0.7569312872723089  0.509484931286671  0.5680302265414807  1.0000
  C   C88       1.0  0.7559700761573894  0.5060868161363671  0.4860345282806761  1.0000
  C   C89       1.0  0.6558546859354876  0.5232057702403096  0.44571286322066317  1.0000
  C   C90       1.0  0.8553555325792459  0.48490804087559514  0.4463279613737966  1.0000
  C   C91       1.0  0.6581587355313303  0.5176399026796616  0.3685629404160052  1.0000
  C   C92       1.0  0.8512215846758621  0.48127058896547936  0.3691594834550854  1.0000
  N   N1        1.0  0.25815426703452  0.5007743985567856  0.05144369905089968  1.0000
  N   N2        1.0  0.3580190770472171  0.5053254904662765  0.3236233449169815  1.0000
  N   N3        1.0  0.1582517840290194  0.4714932464054655  0.3230930542488152  1.0000
  N   N4        1.0  0.3577022646574477  0.5046098597131702  0.3968580395969922  1.0000
  N   N5        1.0  0.15776537159442228  0.47236508331558014  0.3964220348748738  1.0000
  N   N6        1.0  0.2541533730401042  0.5029682049479974  0.6687478720435036  1.0000
  N   N7        1.0  0.7581525188928707  0.49922461804369783  0.94855668118614  1.0000
  N   N8        1.0  0.8580198569490991  0.49467615081847066  0.6763766178306978  1.0000
  N   N9        1.0  0.6582517583133196  0.5285069621887787  0.6769066319577843  1.0000
  N   N10       1.0  0.8577028056926607  0.4953917813173873  0.6031419227129361  1.0000
  N   N11       1.0  0.657765104394656  0.5276363973599987  0.603577651274932  1.0000
  N   N12       1.0  0.7541530257841202  0.49703080809018013  0.3312519460101554  1.0000
  O   O1        1.0  0.3566890096296831  0.6112259692190135  0.9153474557564817  1.0000
  O   O2        1.0  0.15544486009501668  0.4006461136328952  0.9166677656982355  1.0000
  O   O3        1.0  0.11322197959202641  0.5857733614707925  0.9244981291677657  1.0000
  O   O4        1.0  0.4001231057752008  0.4250164787471533  0.9215115088626643  1.0000
  O   O5        1.0  0.39694170262303885  0.5842895200639191  0.7940576065133836  1.0000
  O   O6        1.0  0.1139951379838493  0.4270606725125602  0.7956023813985735  1.0000
  O   O7        1.0  0.15437410976074517  0.6091184086813826  0.8028913595655494  1.0000
  O   O8        1.0  0.35683342972794213  0.4024304948654702  0.8000956739853533  1.0000
  O   O9        1.0  0.8566885536295672  0.3887744006512576  0.08465584448706658  1.0000
  O   O10       1.0  0.6554412798226679  0.5993547275282651  0.08332969030379186  1.0000
  O   O11       1.0  0.6132215306377873  0.4142255388907046  0.07550205088482187  1.0000
  O   O12       1.0  0.9001211873337878  0.5749826531322241  0.07849129409910918  1.0000
  O   O13       1.0  0.8969408265664  0.41570833714681743  0.20594574809781105  1.0000
  O   O14       1.0  0.6139936290208041  0.5729375901085233  0.2043944594645025  1.0000
  O   O15       1.0  0.6543740252151692  0.3908824337467252  0.19710943490900945  1.0000
  O   O16       1.0  0.8568336550341159  0.5975692388851356  0.19990762615054075  1.0000
