data_image0
_chemical_formula_structural       Zn4H72C80N20O8
_chemical_formula_sum              "Zn4 H72 C80 N20 O8"
_cell_length_a       19.95819754834598
_cell_length_b       19.812325454626098
_cell_length_c       20.745678156113996
_cell_angle_alpha    108.25397436715046
_cell_angle_beta     106.82545352260043
_cell_angle_gamma    111.5175540414071

_space_group_name_H-M_alt    "P 1"
_space_group_IT_number       1

loop_
  _space_group_symop_operation_xyz
  'x, y, z'

loop_
  _atom_site_type_symbol
  _atom_site_label
  _atom_site_symmetry_multiplicity
  _atom_site_fract_x
  _atom_site_fract_y
  _atom_site_fract_z
  _atom_site_occupancy
  Zn  Zn1       1.0  0.6001674663832334  0.6041797247465438  0.48894565423482544  1.0000
  Zn  Zn2       1.0  0.4027975250303301  0.4009900557980118  0.5004310939562726  1.0000
  Zn  Zn3       1.0  0.5042072811949441  0.6032416906665434  0.5949359060313526  1.0000
  Zn  Zn4       1.0  0.5019903970576037  0.3996205596128916  0.40062072709308433  1.0000
  H   H1        1.0  0.7667034306266629  0.6366474208782619  0.6135264622452679  1.0000
  H   H2        1.0  0.5434050814080535  0.799715756776571  0.6615388621646046  1.0000
  H   H3        1.0  0.37578968086978654  0.20510109481937633  0.2571844945659336  1.0000
  H   H4        1.0  0.23575351875376072  0.21441760861041811  0.38138950534791144  1.0000
  H   H5        1.0  0.3521094359457778  0.36268516176467364  0.25597386411465095  1.0000
  H   H6        1.0  0.3830339499783194  0.64405784731688  0.4961023795847409  1.0000
  H   H7        1.0  0.9785716200933054  0.6288910278512034  0.41378640831567975  1.0000
  H   H8        1.0  0.5038897218986663  0.3662453448288687  0.6273326336607852  1.0000
  H   H9        1.0  0.028553239646967588  0.6343802843041785  0.5026937160361837  1.0000
  H   H10       1.0  0.13648222915959002  0.6507157449526346  0.47339889103029975  1.0000
  H   H11       1.0  0.07623931698937272  0.6173735272551824  0.3760929607771501  1.0000
  H   H12       1.0  0.8708375101530805  0.39596611537793797  0.3055925379302521  1.0000
  H   H13       1.0  0.9005963356724039  0.4853285714789449  0.2942858242701334  1.0000
  H   H14       1.0  0.9890810167660078  0.3931990837103285  0.3115155851635335  1.0000
  H   H15       1.0  0.06590109839816455  0.4348421171156077  0.44857801620776167  1.0000
  H   H16       1.0  0.5864105816069486  0.12984949437746002  0.504843652250095  1.0000
  H   H17       1.0  0.5549161288408088  0.17248628423776322  0.6761596415396695  1.0000
  H   H18       1.0  0.5077810685424495  0.1324711256843329  0.5761300791271536  1.0000
  H   H19       1.0  0.49448986883219004  0.004708478950981001  0.5582076535239011  1.0000
  H   H20       1.0  0.5338600807165648  0.0420654817460218  0.6578818446319089  1.0000
  H   H21       1.0  0.6948166333553091  0.23784538019366855  0.7477065004395269  1.0000
  H   H22       1.0  0.751417711304477  0.12330495056669832  0.6964147345920465  1.0000
  H   H23       1.0  0.6928151316697253  0.1827739617327993  0.5498047095281107  1.0000
  H   H24       1.0  0.6948319879152579  0.0665566882726054  0.5556439540398443  1.0000
  H   H25       1.0  0.4358284802209625  0.621761632763686  0.8470608470163368  1.0000
  H   H26       1.0  0.4032726445131731  0.6082930007392805  0.9513589361972803  1.0000
  H   H27       1.0  0.3510144436654202  0.6243404874353331  0.13182007579087693  1.0000
  H   H28       1.0  0.3764892100208003  0.6113040956772978  0.2512825662280704  1.0000
  H   H29       1.0  0.3186019270230815  0.38461834356197494  0.01490700280616139  1.0000
  H   H30       1.0  0.2537449800542646  0.34680811201489803  0.8098547219481345  1.0000
  H   H31       1.0  0.28618601926753234  0.05058447664707441  0.19831422793786396  1.0000
  H   H32       1.0  0.3425555992661985  0.3648376208035415  0.6287533287210179  1.0000
  H   H33       1.0  0.8840655316999532  0.6902536080188142  0.7265869068597579  1.0000
  H   H34       1.0  0.11563518679144377  0.11085010926396419  0.2528842143097805  1.0000
  H   H35       1.0  0.8648468884575068  0.7600119294405515  0.9703912644573546  1.0000
  H   H36       1.0  0.003126787171865447  0.9752820256292837  0.14409401833655267  1.0000
  H   H37       1.0  0.7399915851171742  0.6683035547767631  0.847228874671643  1.0000
  H   H38       1.0  0.7737696705323388  0.6346077970014435  0.4747789683684117  1.0000
  H   H39       1.0  0.6460028674418085  0.3815835565710445  0.5034916177082706  1.0000
  H   H40       1.0  0.6247136941158615  0.6057977822977632  0.7366348109683681  1.0000
  H   H41       1.0  0.49267443156771423  0.628246374675527  0.35749790652978664  1.0000
  H   H42       1.0  0.23709728570021585  0.37809982039739504  0.38484733621660167  1.0000
  H   H43       1.0  0.6937671843834606  0.9058475127824862  0.5145268866743106  1.0000
  H   H44       1.0  0.5885097500871981  0.8447595108073144  0.4472039798228377  1.0000
  H   H45       1.0  0.662370631349184  0.8342984398030923  0.4182939827771576  1.0000
  H   H46       1.0  0.17834381973371896  0.48445459913444466  0.5610372507825614  1.0000
  H   H47       1.0  0.10875162781783129  0.49333781467019117  0.5978859934289388  1.0000
  H   H48       1.0  0.20745277507936075  0.5797629412296246  0.6378489984658485  1.0000
  H   H49       1.0  0.9327434182637974  0.4040255868339955  0.5423050262971855  1.0000
  H   H50       1.0  0.871272897479443  0.4482535027841124  0.5173339287214558  1.0000
  H   H51       1.0  0.9499877822087585  0.4971107279009531  0.6127584145107504  1.0000
  H   H52       1.0  0.9385371356524956  0.40910899227002784  0.43317058446639567  1.0000
  H   H53       1.0  0.0059696273975902  0.46705123535141274  0.27875852915045124  1.0000
  H   H54       1.0  0.5890686019628504  0.010677805306499998  0.49624006461496595  1.0000
  H   H55       1.0  0.346202918896168  0.6450066956819924  0.713344670659559  1.0000
  H   H56       1.0  0.3931891565192701  0.662201554319637  0.6538852310052404  1.0000
  H   H57       1.0  0.4361082355704369  0.7414379083932018  0.750076133836515  1.0000
  H   H58       1.0  0.804224857877955  0.21669115682038856  0.6278157554594656  1.0000
  H   H59       1.0  0.853710043790649  0.21134651486107708  0.7116666482420156  1.0000
  H   H60       1.0  0.8882451545965824  0.30744491324539786  0.7107704472395113  1.0000
  H   H61       1.0  0.7169741182528285  0.3352332693846024  0.3988787517926653  1.0000
  H   H62       1.0  0.7096817961183461  0.3416851012118869  0.31309914094036617  1.0000
  H   H63       1.0  0.6350520788989087  0.2520645393617826  0.3081174319742742  1.0000
  H   H64       1.0  0.6884832384736654  0.11758616489293419  0.7412245702974757  1.0000
  H   H65       1.0  0.2820473766285261  0.35929547160438347  0.703869719721041  1.0000
  H   H66       1.0  0.4674968572667383  0.39968747090047424  0.18593158335244192  1.0000
  H   H67       1.0  0.4204630976762048  0.3520728855434072  0.08339651821949454  1.0000
  H   H68       1.0  0.4011665584400036  0.2902773511397143  0.1304811903769546  1.0000
  H   H69       1.0  0.15153265371584715  0.9117587634712975  0.9821304111813302  1.0000
  H   H70       1.0  0.2219772818908155  0.8771237962110233  0.008009613167857232  1.0000
  H   H71       1.0  0.25472798625679616  0.9846674559153924  0.055287636150261034  1.0000
  H   H72       1.0  0.008615712761837804  0.7815231223192498  0.8508729351747559  1.0000
  C   C1        1.0  0.7209908062995041  0.6248843219473486  0.6334125866201245  1.0000
  C   C2        1.0  0.592994904139438  0.35954327114615836  0.5824426272950873  1.0000
  C   C3        1.0  0.38508486767947403  0.496216042646303  0.708279574644102  1.0000
  C   C4        1.0  0.7354326287596252  0.5008747536999747  0.41376983104753845  1.0000
  C   C5        1.0  0.46501648989963246  0.5639514831552149  0.3441627323470796  1.0000
  C   C6        1.0  0.2845853731225887  0.44226658269409563  0.4179451918246072  1.0000
  C   C7        1.0  0.5641029228366464  0.7824838932893315  0.6193297679391703  1.0000
  C   C8        1.0  0.352343175169139  0.2199373548749577  0.297543549425768  1.0000
  C   C9        1.0  0.28035525674670947  0.22531313891651913  0.36010886306483764  1.0000
  C   C10       1.0  0.6111572877739421  0.7746933815018195  0.534579931099337  1.0000
  C   C11       1.0  0.39415031872332656  0.42809613458555146  0.29180266132499344  1.0000
  C   C12       1.0  0.5314691203422371  0.3750241774116034  0.5903858464498553  1.0000
  C   C13       1.0  0.35905044552668386  0.5783326027299152  0.47463589881775886  1.0000
  C   C14       1.0  0.4016123589597243  0.4936398549803941  0.27547831526358374  1.0000
  C   C15       1.0  0.2786478829135248  0.513098837649778  0.4268382832033735  1.0000
  C   C16       1.0  0.5941325114723456  0.8272183546288545  0.5832329819444623  1.0000
  C   C17       1.0  0.2766468886351561  0.1737590940053337  0.29308492325299074  1.0000
  C   C18       1.0  0.9800131625226528  0.4762405597741122  0.460992040598782  1.0000
  C   C19       1.0  0.007326922009404699  0.6006757392128177  0.4410170311883446  1.0000
  C   C20       1.0  0.07812813591628753  0.6032224765960947  0.4235446625693483  1.0000
  C   C21       1.0  0.20718801420891  0.5175077049281497  0.40563149056519865  1.0000
  C   C22       1.0  0.9424901231625643  0.5106479094389371  0.41199654155182225  1.0000
  C   C23       1.0  0.42761783003040693  0.5646505662389956  0.6993582133736636  1.0000
  C   C24       1.0  0.0638549975362608  0.49244109963618843  0.4625494177655865  1.0000
  C   C25       1.0  0.07318618466364062  0.5186927433943821  0.4009415619133278  1.0000
  C   C26       1.0  0.9964788748338121  0.45446621642720697  0.32426211351084056  1.0000
  C   C27       1.0  0.9217810547706904  0.45799064036257414  0.32837662275629487  1.0000
  C   C28       1.0  0.145670802635827  0.5206082851184489  0.39764093546374096  1.0000
  C   C29       1.0  0.8695791236207384  0.5065932539526727  0.4155668003806169  1.0000
  C   C30       1.0  0.8062939860173586  0.5021537193800683  0.41313143039149475  1.0000
  C   C31       1.0  0.639715972259964  0.14405827463783544  0.553447734634183  1.0000
  C   C32       1.0  0.5566417363091319  0.13928606900953608  0.6236936798987215  1.0000
  C   C33       1.0  0.5460017901313066  0.0547020325543244  0.6132803601035304  1.0000
  C   C34       1.0  0.6563585564600629  0.434335394539346  0.3839413483086175  1.0000
  C   C35       1.0  0.6054811293495916  0.9057119082996223  0.5961782021114315  1.0000
  C   C36       1.0  0.6384732634622666  0.19359144940591477  0.6272160589340813  1.0000
  C   C37       1.0  0.6376745878025147  0.06460283440898  0.5506841478967671  1.0000
  C   C38       1.0  0.6236825207677725  0.0525145961200906  0.6169145248187604  1.0000
  C   C39       1.0  0.6964408838166707  0.12543561300578426  0.6933211952782016  1.0000
  C   C40       1.0  0.7058165603307105  0.2089796174676835  0.7002204632836493  1.0000
  C   C41       1.0  0.6152692209512268  0.9738639135415283  0.6089257756912047  1.0000
  C   C42       1.0  0.6399217238915968  0.2676414466717817  0.6273525841239048  1.0000
  C   C43       1.0  0.6234287644799323  0.3154886439748097  0.6111096320708354  1.0000
  C   C44       1.0  0.366651227046603  0.4925375453200189  0.20267087182013194  1.0000
  C   C45       1.0  0.3719522109892708  0.429910473156461  0.6449140710485108  1.0000
  C   C46       1.0  0.3456359132236813  0.426983739003866  0.13327219922461347  1.0000
  C   C47       1.0  0.3306988498670976  0.43382587474726353  0.06683095986191025  1.0000
  C   C48       1.0  0.3352075011625432  0.5062696179361909  0.0665625501693725  1.0000
  C   C49       1.0  0.34963135471184614  0.5692639427543611  0.13313540411705552  1.0000
  C   C50       1.0  0.36410570407029047  0.5616777820483705  0.19943935892028716  1.0000
  C   C51       1.0  0.37649886449435854  0.5545474326746173  0.896417746010428  1.0000
  C   C52       1.0  0.39427289162081547  0.5616771977827782  0.8381266454063477  1.0000
  C   C53       1.0  0.32619549591320424  0.47652524314185035  0.8866652165951833  1.0000
  C   C54       1.0  0.36194618640339365  0.4915454034374348  0.7678852171875332  1.0000
  C   C55       1.0  0.3090291888554901  0.41427434891311776  0.757880447837408  1.0000
  C   C56       1.0  0.7274738711978302  0.570104773043056  0.44603492748142753  1.0000
  C   C57       1.0  0.2923240585427608  0.4067279955919574  0.8163633221423933  1.0000
  C   C58       1.0  0.8020343715469666  0.6746780741572352  0.777117134216574  1.0000
  C   C59       1.0  0.7987466600579368  0.692604580992402  0.8473761388785234  1.0000
  C   C60       1.0  0.8681613601334632  0.7436698624122328  0.9165916851774083  1.0000
  C   C61       1.0  0.944463348191448  0.7786887264394052  0.9180769969904287  1.0000
  C   C62       1.0  0.9490289878476761  0.7555404951901749  0.8488614361556654  1.0000
  C   C63       1.0  0.8790713372155707  0.70457237294665  0.7796068539344031  1.0000
  C   C64       1.0  0.16140941941143455  0.9615518487018735  0.12375312288228461  1.0000
  C   C65       1.0  0.2242457291096969  0.036728061672384606  0.18565777731379274  1.0000
  C   C66       1.0  0.07979051491729193  0.9401244109479522  0.10638592533617694  1.0000
  C   C67       1.0  0.6044487395992492  0.3830807580318591  0.5272697545029387  1.0000
  C   C68       1.0  0.2098037751425181  0.0929414449042056  0.23219145619630405  1.0000
  C   C69       1.0  0.1290071240497426  0.0689772156332182  0.21765283559732038  1.0000
  C   C70       1.0  0.06603069981108706  0.9937145228412876  0.1569238787670457  1.0000
  C   C71       1.0  0.6487592159071411  0.6091624725312315  0.6963111550355305  1.0000
  C   C72       1.0  0.7283228824693851  0.6344874740060575  0.7058957222559527  1.0000
  C   C73       1.0  0.6465143473306298  0.8458078025877569  0.4653637927099011  1.0000
  C   C74       1.0  0.15683709405995216  0.5257055133593055  0.5848239197349155  1.0000
  C   C75       1.0  0.9326505976470756  0.462182131020299  0.5522442579292529  1.0000
  C   C76       1.0  0.40445001994125823  0.6750188810441883  0.712782706804198  1.0000
  C   C77       1.0  0.834030160492219  0.24900417339691222  0.6907387060547449  1.0000
  C   C78       1.0  0.6748619602103859  0.31887383950706283  0.3414261355876035  1.0000
  C   C79       1.0  0.41228817261472983  0.3497676422925835  0.13310226684213688  1.0000
  C   C80       1.0  0.20345929808088678  0.9217150153573215  0.029246708116303827  1.0000
  N   N1        1.0  0.643937337621665  0.5978174882451555  0.5860678655668179  1.0000
  N   N2        1.0  0.36202579755397585  0.46464434095722135  0.4588996979597438  1.0000
  N   N3        1.0  0.5642365030453648  0.711460247485796  0.5953978066091989  1.0000
  N   N4        1.0  0.3969624519849761  0.29258136869532353  0.3616754910712743  1.0000
  N   N5        1.0  0.3522982860779252  0.29571724509670366  0.4009023413066258  1.0000
  N   N6        1.0  0.5938167324644823  0.706611912928764  0.5426175455932947  1.0000
  N   N7        1.0  0.4498298577952796  0.45777657369976765  0.3635901868206942  1.0000
  N   N8        1.0  0.40772591871979114  0.5480058418073527  0.49355949604995425  1.0000
  N   N9        1.0  0.3340638451706753  0.5226780624833082  0.005070228990341209  1.0000
  N   N10       1.0  0.3127498820439314  0.4605250815270807  0.9443245942410667  1.0000
  N   N11       1.0  0.017502087589683364  0.8413828624087498  0.9835204747911203  1.0000
  N   N12       1.0  0.5078106557916797  0.40347406264386615  0.5423833045269999  1.0000
  N   N13       1.0  0.009207937078599578  0.8718684155714057  0.04262722655101912  1.0000
  N   N14       1.0  0.4386467240059206  0.5405456786254633  0.636921307616248  1.0000
  N   N15       1.0  0.6073489790554234  0.46219058161658216  0.39762891419565694  1.0000
  N   N16       1.0  0.40340428290911495  0.45640356513253977  0.6027211036897453  1.0000
  N   N17       1.0  0.651739591617833  0.547066529831497  0.4362499161208928  1.0000
  N   N18       1.0  0.5523940915697523  0.40834895584885794  0.5036305931193821  1.0000
  N   N19       1.0  0.5995203274408497  0.5881800834153594  0.6248209087950014  1.0000
  N   N20       1.0  0.49362782945258504  0.5411716905549896  0.39550742152734836  1.0000
  O   O1        1.0  0.6403205924329854  0.7803823227954966  0.4839932108178855  1.0000
  O   O2        1.0  0.13050247496831  0.5553006248828681  0.5341348688257168  1.0000
  O   O3        1.0  0.991555628177146  0.5125992211569469  0.5371142316156606  1.0000
  O   O4        1.0  0.4567209857817077  0.6462392271162614  0.743270456681152  1.0000
  O   O5        1.0  0.7858128058077086  0.27078703183421027  0.7218155870588275  1.0000
  O   O6        1.0  0.6218351028777391  0.3514916999989667  0.34532773548798446  1.0000
  O   O7        1.0  0.3426009399347977  0.3556722122920348  0.13262414976590967  1.0000
  O   O8        1.0  0.18016901921777878  0.9068478121934687  0.08483323203545706  1.0000
