data_image0
_chemical_formula_structural       Zr6H8C50Cl22O32
_chemical_formula_sum              "Zr6 H8 C50 Cl22 O32"
_cell_length_a       15.047317235150395
_cell_length_b       15.030002234743913
_cell_length_c       15.027634929257303
_cell_angle_alpha    59.90022646885662
_cell_angle_beta     59.94761533903948
_cell_angle_gamma    59.93378513993076

_space_group_name_H-M_alt    "P 1"
_space_group_IT_number       1

loop_
  _space_group_symop_operation_xyz
  'x, y, z'

loop_
  _atom_site_type_symbol
  _atom_site_label
  _atom_site_symmetry_multiplicity
  _atom_site_fract_x
  _atom_site_fract_y
  _atom_site_fract_z
  _atom_site_occupancy
  Zr  Zr1       1.0  0.8815967968177034  0.8818945492740015  0.6179833215893354  1.0000
  Zr  Zr2       1.0  0.11676674927804248  0.1185383029380915  0.3815771706877199  1.0000
  Zr  Zr3       1.0  0.11701052748644959  0.8825483308187786  0.6175287611929078  1.0000
  Zr  Zr4       1.0  0.881415873607736  0.11868599736270365  0.3811851520614553  1.0000
  Zr  Zr5       1.0  0.11697224908184725  0.8826642241432127  0.38188826011628413  1.0000
  Zr  Zr6       1.0  0.8815207710390639  0.11807969720884869  0.6173952424750837  1.0000
  H   H1        1.0  0.09200885112266387  0.7223209868133793  0.5929796512673917  1.0000
  H   H2        1.0  0.09177726785716799  0.09391203051126239  0.2214594833689461  1.0000
  H   H3        1.0  0.09176889547899955  0.09287086612647497  0.5919541850438818  1.0000
  H   H4        1.0  0.721626697804865  0.09300198559293447  0.5923303799708463  1.0000
  H   H5        1.0  0.7535394269869687  0.6274628094940339  0.9573168383924155  1.0000
  H   H6        1.0  0.8385014035943071  0.5435235318058741  0.8734738331703795  1.0000
  H   H7        1.0  0.8378097182147853  0.3763912682533004  0.04044481956864846  1.0000
  H   H8        1.0  0.7527567493983511  0.4601566786095858  0.12452345589861134  1.0000
  C   C1        1.0  0.9971164523126248  0.7020510320688017  0.4970876476590006  1.0000
  C   C2        1.0  0.3030119440624687  0.9973634945855707  0.20124701060939992  1.0000
  C   C3        1.0  0.9962716257539415  0.30404387847941194  0.49767332734128195  1.0000
  C   C4        1.0  0.7022388337116255  0.9966517336682729  0.8037896885703828  1.0000
  C   C5        1.0  0.996603396332482  0.7015525745485149  0.8033357779329082  1.0000
  C   C6        1.0  0.7012360556718779  0.9977873299291031  0.4972362862157667  1.0000
  C   C7        1.0  0.9958818928592025  0.3043572334553985  0.2004319378093627  1.0000
  C   C8        1.0  0.3032047242004906  0.99776191764375  0.49682370208825677  1.0000
  C   C9        1.0  0.30308336875870623  0.701964188219634  0.4964939836565988  1.0000
  C   C10       1.0  0.9962940956963706  0.99847538429772  0.8033116103370969  1.0000
  C   C11       1.0  0.7022557318907302  0.3044523967180128  0.4960440090192504  1.0000
  C   C12       1.0  0.9970900038478734  0.9976260830181685  0.20146516436324902  1.0000
  C   C13       1.0  0.9973287406624747  0.40486282329728596  0.49877733843391087  1.0000
  C   C14       1.0  0.9984471206413588  0.5987270161371114  0.4989801052238858  1.0000
  C   C15       1.0  0.0782434999519808  0.45391481153004765  0.4194011727053065  1.0000
  C   C16       1.0  0.9199458668405073  0.5472443280484  0.5807815554712263  1.0000
  C   C17       1.0  0.07834792795738821  0.5484986121374646  0.4190972263678745  1.0000
  C   C18       1.0  0.918417658384115  0.45408310691575343  0.5798398461713248  1.0000
  C   C19       1.0  0.4046217170905566  0.9975887662818649  0.09896702381331579  1.0000
  C   C20       1.0  0.600136279017548  0.9967949635213953  0.9052438617386827  1.0000
  C   C21       1.0  0.45417901805272015  0.07804822571321782  0.04854128353235862  1.0000
  C   C22       1.0  0.5503719667860099  0.9165241212137187  0.9554236721449666  1.0000
  C   C23       1.0  0.5487007912730136  0.07807847705029054  0.9540215247969072  1.0000
  C   C24       1.0  0.4547105306346638  0.9176614570801505  0.048639988672285125  1.0000
  C   C25       1.0  0.9972568693431612  0.9994515771437308  0.9042521975139265  1.0000
  C   C26       1.0  0.9984890584323763  0.9995812755445074  0.09809508353719562  1.0000
  C   C27       1.0  0.9183264740356377  0.08045986467553914  0.9535455390943142  1.0000
  C   C28       1.0  0.07822942660283154  0.9195363100438599  0.04803093795324997  1.0000
  C   C29       1.0  0.9201316819397505  0.08161118125515533  0.04646274415732417  1.0000
  C   C30       1.0  0.07823980722798052  0.9200517622756549  0.9532749115841239  1.0000
  C   C31       1.0  0.40460274947711394  0.5995927597633041  0.49687102132278244  1.0000
  C   C32       1.0  0.6001957223833188  0.40592469743952364  0.49614545713824737  1.0000
  C   C33       1.0  0.45470497872077703  0.549211995863665  0.41699666133897034  1.0000
  C   C34       1.0  0.5485709165130217  0.4545525777352211  0.5775896588748778  1.0000
  C   C35       1.0  0.5506116069700725  0.4562301365293492  0.4156760128445073  1.0000
  C   C36       1.0  0.45415088089961847  0.5492059334153793  0.5773821368851769  1.0000
  C   C37       1.0  0.0012644812217744877  0.6006219222950052  0.9028541452816866  1.0000
  C   C38       1.0  0.0007671068260322667  0.40390874672237936  0.09942942699543518  1.0000
  C   C39       1.0  0.9243878148644171  0.5486522533089869  0.9537680630257982  1.0000
  C   C40       1.0  0.08142681405674074  0.45403873288169194  0.04818833170859447  1.0000
  C   C41       1.0  0.9240693995863793  0.4553203466959986  0.04705080341753415  1.0000
  C   C42       1.0  0.08163735985381503  0.5489873460971921  0.9533745967678797  1.0000
  C   C43       1.0  0.8245850069503572  0.5543756652099034  0.9469140429238934  1.0000
  C   C44       1.0  0.8241472307972726  0.4494459757946885  0.051776500227589416  1.0000
  C   C45       1.0  0.4043427240723431  0.9985181329502737  0.4976819511166894  1.0000
  C   C46       1.0  0.5988415491912349  0.998495692889051  0.49785067560596735  1.0000
  C   C47       1.0  0.4538547972839878  0.9189766643473193  0.5784215800218746  1.0000
  C   C48       1.0  0.5482625485591299  0.07924156675719014  0.41822442951458066  1.0000
  C   C49       1.0  0.5482311476982816  0.918927889107728  0.5785209961250429  1.0000
  C   C50       1.0  0.45387001735667104  0.07923679342302144  0.4182159358708333  1.0000
  Cl  Cl1       1.0  0.18196110611226157  0.4031668395106605  0.31841849522982096  1.0000
  Cl  Cl2       1.0  0.8221698012134195  0.5924488518524312  0.6878892912785234  1.0000
  Cl  Cl3       1.0  0.18158417873758745  0.5968599368360614  0.3170458721425931  1.0000
  Cl  Cl4       1.0  0.816124975787723  0.4046535746228271  0.682829726112857  1.0000
  Cl  Cl5       1.0  0.4037351582492549  0.18165258956743463  0.0965718522345682  1.0000
  Cl  Cl6       1.0  0.6014528076307994  0.8124413772038465  0.9071535106263511  1.0000
  Cl  Cl7       1.0  0.5957814632927738  0.1826309861106239  0.9028765906156478  1.0000
  Cl  Cl8       1.0  0.4031555271560094  0.817510495851664  0.09550403028772077  1.0000
  Cl  Cl9       1.0  0.8156336315634223  0.18313064987342612  0.904508834028661  1.0000
  Cl  Cl10      1.0  0.18104971333934827  0.8170106165469804  0.09687399166433144  1.0000
  Cl  Cl11      1.0  0.8230481754613309  0.1892927349352788  0.09105389208527018  1.0000
  Cl  Cl12      1.0  0.18224627869762605  0.8193806989361717  0.9022269662300458  1.0000
  Cl  Cl13      1.0  0.40280774795471785  0.595623675364159  0.317218560690165  1.0000
  Cl  Cl14      1.0  0.5952887133693566  0.40302474918652115  0.6825436312234388  1.0000
  Cl  Cl15      1.0  0.6023017087015745  0.4085359241817556  0.3110066581741224  1.0000
  Cl  Cl16      1.0  0.403728727525902  0.5973341984660294  0.6809120973969199  1.0000
  Cl  Cl17      1.0  0.4034226712039909  0.8175868413339132  0.6823463945188449  1.0000
  Cl  Cl18      1.0  0.596403428858963  0.18315516666506676  0.3166881422188155  1.0000
  Cl  Cl19      1.0  0.5963324569055501  0.8173817749071263  0.6824718488052709  1.0000
  Cl  Cl20      1.0  0.40339512778474074  0.1832454584301715  0.3168379561561919  1.0000
  Cl  Cl21      1.0  0.18501052813925864  0.4022519504067433  0.09711333813046245  1.0000
  Cl  Cl22      1.0  0.18523438280931254  0.5976311801022547  0.902242009039348  1.0000
  O   O1        1.0  0.9215271436756682  0.7433158887962037  0.5705141066576046  1.0000
  O   O2        1.0  0.2624702532908643  0.07222113209117251  0.24115743085337024  1.0000
  O   O3        1.0  0.07080691362811113  0.2638623562232567  0.42313790408579877  1.0000
  O   O4        1.0  0.7423312899294249  0.9222477468284465  0.7634274207509223  1.0000
  O   O5        1.0  0.06823098853048767  0.7461473750836164  0.7611830655838431  1.0000
  O   O6        1.0  0.7412618318493572  0.07256834399677814  0.4226902538237595  1.0000
  O   O7        1.0  0.9201111406465188  0.266881220220057  0.235166403754846  1.0000
  O   O8        1.0  0.26305952069212435  0.9230733358703418  0.5714670687521631  1.0000
  O   O9        1.0  0.2628342159542429  0.7420734984805719  0.42199507903322336  1.0000
  O   O10       1.0  0.9215132508216187  0.0729024745396386  0.7632852716492804  1.0000
  O   O11       1.0  0.7419968492344395  0.26402440581004066  0.570964469057614  1.0000
  O   O12       1.0  0.07204871340947956  0.923346088673  0.24120862777927246  1.0000
  O   O13       1.0  0.07100795825410719  0.9241237854794946  0.762959211835678  1.0000
  O   O14       1.0  0.742207453230499  0.26399248950645665  0.4217463310738907  1.0000
  O   O15       1.0  0.9212380600984674  0.07079626471308843  0.24295869031836761  1.0000
  O   O16       1.0  0.26272950050631766  0.7420809453357008  0.5711455727788958  1.0000
  O   O17       1.0  0.9207956672192738  0.7363659784794123  0.765854974100307  1.0000
  O   O18       1.0  0.26299025577834106  0.07243711910711433  0.42217636399629294  1.0000
  O   O19       1.0  0.06737212347086809  0.262222453046256  0.2452456684799244  1.0000
  O   O20       1.0  0.741397066803437  0.9231454121175203  0.5719105789842943  1.0000
  O   O21       1.0  0.7418857080273044  0.07162795961790638  0.7633171030293368  1.0000
  O   O22       1.0  0.07186989219042066  0.7419626944020337  0.42263300626060374  1.0000
  O   O23       1.0  0.26283847244722836  0.922821995607606  0.24144227167268176  1.0000
  O   O24       1.0  0.9215755853592286  0.26396370607155706  0.5721287728546471  1.0000
  O   O25       1.0  0.8005954862867314  0.06662100335340435  0.5659898145938412  1.0000
  O   O26       1.0  0.06534499869874119  0.06659887697784225  0.5657094129533461  1.0000
  O   O27       1.0  0.06507377352904345  0.06693189430700393  0.3005652909564559  1.0000
  O   O28       1.0  0.06529324698078653  0.8014231158617877  0.5660449166007595  1.0000
  O   O29       1.0  0.1451181032536083  0.9517856093229895  0.4508243948954131  1.0000
  O   O30       1.0  0.9506269012429839  0.9518790628718178  0.45116046360062956  1.0000
  O   O31       1.0  0.9502457849536228  0.14652899302754455  0.45076780811450584  1.0000
  O   O32       1.0  0.950394746019683  0.9515285065720388  0.6457770799850094  1.0000
