data_image0
_chemical_formula_structural       Cd4H40C24N12O28
_chemical_formula_sum              "Cd4 H40 C24 N12 O28"
_cell_length_a       8.70337292354841
_cell_length_b       10.167884214781987
_cell_length_c       14.242334171751931
_cell_angle_alpha    70.54174108557268
_cell_angle_beta     72.21327053295947
_cell_angle_gamma    64.66398458078218

_space_group_name_H-M_alt    "P 1"
_space_group_IT_number       1

loop_
  _space_group_symop_operation_xyz
  'x, y, z'

loop_
  _atom_site_type_symbol
  _atom_site_label
  _atom_site_symmetry_multiplicity
  _atom_site_fract_x
  _atom_site_fract_y
  _atom_site_fract_z
  _atom_site_occupancy
  Cd  Cd1       1.0  0.43157860245128143  0.5326426163134101  0.8081251842155625  1.0000
  Cd  Cd2       1.0  0.7721367853996597  0.9674676232076109  0.691880601367906  1.0000
  Cd  Cd3       1.0  0.5684215779044021  0.46735736964045327  0.19187540987979185  1.0000
  Cd  Cd4       1.0  0.2278643116809818  0.03253350525581308  0.3081184137278328  1.0000
  H   H1        1.0  0.4405082357204719  0.15931919950709528  0.0972486129304784  1.0000
  H   H2        1.0  0.6973440833230169  0.3405481033598931  0.4025568255068564  1.0000
  H   H3        1.0  0.5594942848235218  0.8406785704835898  0.9027509135453757  1.0000
  H   H4        1.0  0.30265528275209874  0.6594518292674252  0.5974470351522498  1.0000
  H   H5        1.0  0.7267587262897091  0.9934147849826831  0.9770903041477227  1.0000
  H   H6        1.0  0.6973075461365278  0.506390305142986  0.5228374961761447  1.0000
  H   H7        1.0  0.2732399604088299  0.006584088769550099  0.022910010923077102  1.0000
  H   H8        1.0  0.302693432269926  0.49361078150320736  0.4771640812135659  1.0000
  H   H9        1.0  0.8999731161587475  0.5997700757803129  0.13891558452712624  1.0000
  H   H10       1.0  0.6385937892687035  0.9001460351235837  0.36097390525973333  1.0000
  H   H11       1.0  0.10002743624032445  0.4002277014996451  0.8610834924641325  1.0000
  H   H12       1.0  0.36140847790609587  0.09985398535824429  0.639024576026259  1.0000
  H   H13       1.0  0.8502648831143915  0.6767716204067824  0.015718306434564507  1.0000
  H   H14       1.0  0.5425713581229056  0.823283006092794  0.4841654589383069  1.0000
  H   H15       1.0  0.14973519479689615  0.3232272763640863  0.9842806000966606  1.0000
  H   H16       1.0  0.4574275847911195  0.17671923399685602  0.5158338652248844  1.0000
  H   H17       1.0  0.09761883583578869  0.7283814709811837  0.10103069608194908  1.0000
  H   H18       1.0  0.9268350712243529  0.7717061469266682  0.3989733449886543  1.0000
  H   H19       1.0  0.9023807324908192  0.2716163099434111  0.8989681561670153  1.0000
  H   H20       1.0  0.0731663143223853  0.22829496638279784  0.6010265991191731  1.0000
  H   H21       1.0  0.0021603805391022307  0.8645067698168492  0.001026926539651541  1.0000
  H   H22       1.0  0.8675320651389454  0.6356102608442669  0.49900633102282654  1.0000
  H   H23       1.0  0.9978390017658113  0.13549211544469836  0.9989726842613539  1.0000
  H   H24       1.0  0.13246735226286407  0.3643908597544653  0.5009931636004056  1.0000
  H   H25       1.0  0.6012588589176173  0.324375820027754  0.9635421667445032  1.0000
  H   H26       1.0  0.889165817037245  0.17556621694519947  0.5365357630183497  1.0000
  H   H27       1.0  0.39874201704443385  0.6756241774354379  0.03645772308107102  1.0000
  H   H28       1.0  0.11083556850949354  0.8244348963642593  0.46346418108947773  1.0000
  H   H29       1.0  0.656646723757603  0.23648652353543304  0.8769929144237453  1.0000
  H   H30       1.0  0.7702146368888448  0.26351801520532797  0.6230646555059709  1.0000
  H   H31       1.0  0.3433531681319905  0.7635134775723955  0.12300675065952758  1.0000
  H   H32       1.0  0.2297870371239766  0.7364830829501798  0.3769362176139525  1.0000
  H   H33       1.0  0.49160700944921076  0.8004521146047666  0.661367030339946  1.0000
  H   H34       1.0  0.953578908228742  0.6996332711139602  0.8385910476760687  1.0000
  H   H35       1.0  0.5083928824403827  0.199547886503062  0.33863263474332683  1.0000
  H   H36       1.0  0.046421169682545706  0.30036562565690866  0.16140785885514936  1.0000
  H   H37       1.0  0.28446052289118  0.8395433750156299  0.6983364056973543  1.0000
  H   H38       1.0  0.8224567855740472  0.6604444896471477  0.8017077746162542  1.0000
  H   H39       1.0  0.7155398434861908  0.16045550660128066  0.30166342984595224  1.0000
  H   H40       1.0  0.17754351345583055  0.33955553812395334  0.19829025718513554  1.0000
  C   C1        1.0  0.6225377095277409  0.8156015738313869  0.20792951226129472  1.0000
  C   C2        1.0  0.6460633811334446  0.6843619825405654  0.29201959695008384  1.0000
  C   C3        1.0  0.37746265684963703  0.1843973077855239  0.792070323282012  1.0000
  C   C4        1.0  0.3539369852439333  0.3156368990763526  0.7079802385932227  1.0000
  C   C5        1.0  0.5257957997879145  0.0436960593510705  0.11592504242083379  1.0000
  C   C6        1.0  0.685570106054456  0.4562170168643788  0.3839178511239681  1.0000
  C   C7        1.0  0.4742040921016793  0.9563039417567583  0.8840746226624391  1.0000
  C   C8        1.0  0.31442944604235373  0.5437818114259799  0.6160852509830904  1.0000
  C   C9        1.0  0.6663675499477149  0.962913605860642  0.05560560543572988  1.0000
  C   C10       1.0  0.6848910135144449  0.5369596192357592  0.44431731898446714  1.0000
  C   C11       1.0  0.33363446101159855  0.037083048283769  0.9443938667578708  1.0000
  C   C12       1.0  0.3151107278458837  0.46304033276556555  0.5556853578773657  1.0000
  C   C13       1.0  0.8794470398623059  0.7003522841209674  0.0767996746944063  1.0000
  C   C14       1.0  0.6564675159707604  0.7996422477894001  0.4231390961297167  1.0000
  C   C15       1.0  0.12055234244260742  0.29964660114058017  0.9231999361066061  1.0000
  C   C16       1.0  0.3435343440637553  0.20035774602914816  0.5768610184381516  1.0000
  C   C17       1.0  0.039524301931677934  0.7443401526695225  0.038082887754690396  1.0000
  C   C18       1.0  0.8217309716718616  0.7557649836140357  0.4619144325936304  1.0000
  C   C19       1.0  0.9604747919071456  0.25565874774598285  0.9619157940342266  1.0000
  C   C20       1.0  0.17826971826850257  0.2442361181861088  0.5380862157839844  1.0000
  C   C21       1.0  0.1754524237171532  0.6651670898545986  0.9590617168636871  1.0000
  C   C22       1.0  0.7994942952500991  0.8350389679718971  0.5409040637903503  1.0000
  C   C23       1.0  0.8245471797063502  0.3348329264071809  0.04093701920749032  1.0000
  C   C24       1.0  0.20050541061779376  0.1649621374728838  0.4590963598449705  1.0000
  N   N1        1.0  0.8047327057201842  0.4789451747086417  0.7185334140617244  1.0000
  N   N2        1.0  0.0022138809769526803  0.021031532406666997  0.7814534243566629  1.0000
  N   N3        1.0  0.19526579495666146  0.5210548033805438  0.28146765956112324  1.0000
  N   N4        1.0  0.9977848408184827  0.9789695766827505  0.21854677453635682  1.0000
  N   N5        1.0  0.4982717729914366  0.9516015964155857  0.2100630756949471  1.0000
  N   N6        1.0  0.6600390770694484  0.548358476706099  0.2898048824583128  1.0000
  N   N7        1.0  0.5017290678737254  0.04839616571042169  0.7899369303084003  1.0000
  N   N8        1.0  0.33995920248881356  0.45164037038285443  0.7101970658943558  1.0000
  N   N9        1.0  0.7268729382716116  0.8200614342972373  0.1138017444996322  1.0000
  N   N10       1.0  0.6606957933747919  0.6798565100546341  0.3861700192853094  1.0000
  N   N11       1.0  0.2731279025935505  0.17993632782876287  0.8861982615037152  1.0000
  N   N12       1.0  0.33930460809947477  0.32014460689946844  0.6138297000802242  1.0000
  O   O1        1.0  0.3348540165043229  0.6362840771032336  0.9556043296126548  1.0000
  O   O2        1.0  0.9265240904335096  0.8640134242030086  0.5442999111213923  1.0000
  O   O3        1.0  0.6651455869191807  0.36371593915854555  0.04439440645852949  1.0000
  O   O4        1.0  0.073476311040764  0.13598769275108677  0.4556998082441411  1.0000
  O   O5        1.0  0.13084932835270957  0.6332797859939278  0.8944290460497515  1.0000
  O   O6        1.0  0.6583816787439928  0.8668983283988467  0.605546403320318  1.0000
  O   O7        1.0  0.8691498005830096  0.3667213497587696  0.10556951956139227  1.0000
  O   O8        1.0  0.3416189760994753  0.1331005380641059  0.394454361235077  1.0000
  O   O9        1.0  0.7200892452789063  0.548892298712694  0.7900441462607264  1.0000
  O   O10       1.0  0.05910113883618324  0.9511711547047669  0.7098948090888586  1.0000
  O   O11       1.0  0.2799111561953608  0.4511088182414015  0.2099555731048  1.0000
  O   O12       1.0  0.9408997371258679  0.04882884275842509  0.29010508073671554  1.0000
  O   O13       1.0  0.7224069976523918  0.42726664787569046  0.6878314295740467  1.0000
  O   O14       1.0  0.8375003536112899  0.0727109030790203  0.8120857001447207  1.0000
  O   O15       1.0  0.2775931827032918  0.5727333380781802  0.3121691645213148  1.0000
  O   O16       1.0  0.16249807971805538  0.9272902211643483  0.18791356973621018  1.0000
  O   O17       1.0  0.958443028618674  0.46341443921951964  0.6816952542368357  1.0000
  O   O18       1.0  0.10345513409146878  0.036508198594482594  0.8184110945935218  1.0000
  O   O19       1.0  0.04155664215232936  0.5365844308880696  0.3183052855762654  1.0000
  O   O20       1.0  0.8965434016822724  0.9634940148318879  0.1815898628515455  1.0000
  O   O21       1.0  0.5562973783067018  0.3045094651686853  0.9139969406181127  1.0000
  O   O22       1.0  0.7747580651956839  0.19558273079730532  0.586026578779844  1.0000
  O   O23       1.0  0.4437025135828917  0.6954905359391432  0.0860027244651604  1.0000
  O   O24       1.0  0.22524332035104777  0.8044183825121607  0.4139733653279906  1.0000
  O   O25       1.0  0.39849314157514426  0.7581066245647607  0.6880252973529155  1.0000
  O   O26       1.0  0.8448175770853722  0.7419288564779053  0.811896471648865  1.0000
  O   O27       1.0  0.6015060547080752  0.2418933650337394  0.3119750720001448  1.0000
  O   O28       1.0  0.15518301041059598  0.2580711561392448  0.18810248916462066  1.0000
