data_image0
_chemical_formula_structural       Tb4Cu6H60C48N12O48
_chemical_formula_sum              "Tb4 Cu6 H60 C48 N12 O48"
_cell_length_a       13.389527200965734
_cell_length_b       13.389527438103668
_cell_length_c       14.39960464901335
_cell_angle_alpha    90.00009643242667
_cell_angle_beta     89.99984570692403
_cell_angle_gamma    120.00013753414873

_space_group_name_H-M_alt    "P 1"
_space_group_IT_number       1

loop_
  _space_group_symop_operation_xyz
  'x, y, z'

loop_
  _atom_site_type_symbol
  _atom_site_label
  _atom_site_symmetry_multiplicity
  _atom_site_fract_x
  _atom_site_fract_y
  _atom_site_fract_z
  _atom_site_occupancy
  Tb  Tb1       1.0  0.6666666284069367  0.333333232835635  0.1684686353178009  1.0000
  Tb  Tb2       1.0  0.33333361406952383  0.6666660581259549  0.3315335119972432  1.0000
  Tb  Tb3       1.0  0.3333336966442247  0.6666669257751467  0.831531961642753  1.0000
  Tb  Tb4       1.0  0.6666667109825611  0.33333410048466305  0.6684663904998018  1.0000
  Cu  Cu1       1.0  6.357352119841988e-07  0.5000005282372798  0.9999993735588077  1.0000
  Cu  Cu2       1.0  0.5000003028675196  0.5000001423327021  0.9999994425885959  1.0000
  Cu  Cu3       1.0  0.5000004139862143  3.609493220095144e-07  6.902943989999995e-08  1.0000
  Cu  Cu4       1.0  0.5000001808993559  5.055002114769151e-08  0.5000006020649508  1.0000
  Cu  Cu5       1.0  0.4999997890995474  0.499999705878274  0.49999960401694205  1.0000
  Cu  Cu6       1.0  1.2196631623120268e-07  0.500000091783022  0.5000002294506629  1.0000
  H   H1        1.0  0.03700643773277087  0.6768220749906321  0.9169214901565398  1.0000
  H   H2        1.0  0.32317738260019985  0.36018398252052464  0.9169215791238372  1.0000
  H   H3        1.0  0.6398154355555479  0.962993287994664  0.9169216543022785  1.0000
  H   H4        1.0  0.6768227036002372  0.037007688358833946  0.5830783851588635  1.0000
  H   H5        1.0  0.3601839689626516  0.32317626663834903  0.5830783104829678  1.0000
  H   H6        1.0  0.96299167568926  0.6398144347639844  0.5830784984480885  1.0000
  H   H7        1.0  0.9629931404654001  0.32317733676608645  0.08307841234084631  1.0000
  H   H8        1.0  0.6768229424518853  0.6398161760900937  0.08307832337320062  1.0000
  H   H9        1.0  0.3601837114475046  0.03700655495714501  0.08307824819598858  1.0000
  H   H10       1.0  0.3231768745979409  0.9629917233978773  0.4169215173385227  1.0000
  H   H11       1.0  0.6398151780404074  0.6768235763134597  0.4169215920152993  1.0000
  H   H12       1.0  0.0370079025089183  0.360184976992727  0.4169214040493046  1.0000
  H   H13       1.0  0.9165220208621963  0.6043569732860449  0.7946329481793413  1.0000
  H   H14       1.0  0.3956420790604582  0.3121639494850683  0.7946333713071142  1.0000
  H   H15       1.0  0.687835014382877  0.0834775047830761  0.794632827035052  1.0000
  H   H16       1.0  0.6043583192784185  0.9165222545559929  0.7053672430023497  1.0000
  H   H17       1.0  0.31216336982010523  0.3956412590929191  0.7053665068333927  1.0000
  H   H18       1.0  0.08347754758959522  0.6878365409179638  0.705367715778486  1.0000
  H   H19       1.0  0.0834783041898888  0.39564318532457327  0.20536695431769664  1.0000
  H   H20       1.0  0.6043582459916266  0.6878362091255497  0.20536653118992382  1.0000
  H   H21       1.0  0.31216413262017534  0.9165223381687398  0.2053670754632151  1.0000
  H   H22       1.0  0.3956420057736664  0.0834779040546252  0.2946326594946882  1.0000
  H   H23       1.0  0.6878365240368611  0.6043593307127965  0.2946333956645191  1.0000
  H   H24       1.0  0.9165215994125403  0.3121633020340155  0.29463288118329695  1.0000
  H   H25       1.0  0.7964371280237188  0.5378731983760688  0.8680170056114065  1.0000
  H   H26       1.0  0.4621261074112936  0.25856456709391307  0.868016510975103  1.0000
  H   H27       1.0  0.7414354708495878  0.20356232451492676  0.8680168130611392  1.0000
  H   H28       1.0  0.5378722678823349  0.796436812217351  0.6319839675574599  1.0000
  H   H29       1.0  0.25856394960673884  0.4621269742519092  0.6319847500494689  1.0000
  H   H30       1.0  0.20356256482605772  0.7414354680577729  0.6319843427369491  1.0000
  H   H31       1.0  0.20356276583232366  0.4621273914298173  0.1319835913500214  1.0000
  H   H32       1.0  0.5378737864456726  0.7414360227118026  0.1319833915228088  1.0000
  H   H33       1.0  0.25856485420157327  0.7964378340958549  0.1319837838994076  1.0000
  H   H34       1.0  0.46212805716974986  0.20356334639326704  0.36801593493957796  1.0000
  H   H35       1.0  0.7414363754444225  0.5378731843588798  0.36801584691107797  1.0000
  H   H36       1.0  0.7964370133721205  0.2585639436989453  0.368015559760444  1.0000
  H   H37       1.0  0.8630919757724911  0.6949308530237772  0.9740324556617567  1.0000
  H   H38       1.0  0.3050692177816856  0.1681602605474595  0.9740327418674894  1.0000
  H   H39       1.0  0.8318398774774353  0.13690925337373036  0.9740327529798947  1.0000
  H   H40       1.0  0.6949319655887367  0.8630928379934846  0.5259698014867027  1.0000
  H   H41       1.0  0.1681603047460882  0.3050681620613318  0.5259686352413055  1.0000
  H   H42       1.0  0.13690725018156497  0.8318393556843304  0.5259697806056209  1.0000
  H   H43       1.0  0.13690834927959364  0.3050693055868408  0.0259674468352813  1.0000
  H   H44       1.0  0.6949311072703921  0.8318398980631585  0.025967160629555498  1.0000
  H   H45       1.0  0.16816044757464974  0.8630909052368878  0.0259671495171432  1.0000
  H   H46       1.0  0.3050676126094345  0.1369065737632269  0.4740301010106904  1.0000
  H   H47       1.0  0.831838842256971  0.6949316808904767  0.4740312672569615  1.0000
  H   H48       1.0  0.8630923280166058  0.16816005607238096  0.47403012189176513  1.0000
  H   H49       1.0  0.9723613299118342  0.7130518775456595  0.054156383571744  1.0000
  H   H50       1.0  0.2869486879761993  0.25930916330084847  0.0541568862154591  1.0000
  H   H51       1.0  0.7406898917502505  0.027639006005010597  0.05415613753535101  1.0000
  H   H52       1.0  0.7130520243497003  0.9723622418818536  0.4458447477469107  1.0000
  H   H53       1.0  0.25930973867016155  0.286949179582038  0.44584547395513147  1.0000
  H   H54       1.0  0.027638392506240617  0.7406900542521698  0.44584472953367543  1.0000
  H   H55       1.0  0.027637817091218292  0.28694796540615647  0.9458435189265231  1.0000
  H   H56       1.0  0.7130516370758784  0.7406909953097696  0.9458430162815786  1.0000
  H   H57       1.0  0.25930968644792773  0.972360405751701  0.9458437649620351  1.0000
  H   H58       1.0  0.28694786950726575  0.027638347923861818  0.5541551547510011  1.0000
  H   H59       1.0  0.7406905863809995  0.7130509790287507  0.5541551230054225  1.0000
  H   H60       1.0  0.9723607544968119  0.25930978869964594  0.5541551729645917  1.0000
  C   C1        1.0  0.8721698875930601  0.43440381284902707  0.8392584015422244  1.0000
  C   C2        1.0  0.5655964431206825  0.4377665153516547  0.8392580931903454  1.0000
  C   C3        1.0  0.5622340994380366  0.1278296254044023  0.8392578551006764  1.0000
  C   C4        1.0  0.4344034790800466  0.8721718936163116  0.6607405012487106  1.0000
  C   C5        1.0  0.43776716320445536  0.5655959847863485  0.6607402573731491  1.0000
  C   C6        1.0  0.12782759422169931  0.5622318281613161  0.6607413369000951  1.0000
  C   C7        1.0  0.12783043745902506  0.5655963457615913  0.1607415009548205  1.0000
  C   C8        1.0  0.4344038819314022  0.5622336432589634  0.1607418093066997  1.0000
  C   C9        1.0  0.43776622561404094  0.8721705332062156  0.1607420473963614  1.0000
  C   C10       1.0  0.5655964147769195  0.12782869618940398  0.3392594012492082  1.0000
  C   C11       1.0  0.562231983798597  0.4344038581654673  0.339259645125118  1.0000
  C   C12       1.0  0.8721727308294617  0.43776833044946517  0.3392592600604587  1.0000
  C   C13       1.0  0.883829265394937  0.5516439287127358  0.8578735730206901  1.0000
  C   C14       1.0  0.44835622192122315  0.3321858404428824  0.8578732517133076  1.0000
  C   C15       1.0  0.667813690592638  0.11616988228239225  0.857872808328942  1.0000
  C   C16       1.0  0.5516441645369456  0.8838292523210002  0.6421273526904301  1.0000
  C   C17       1.0  0.3321860762219019  0.44835621653932384  0.6421272867691172  1.0000
  C   C18       1.0  0.11617042603198502  0.6678148555308638  0.6421277285395632  1.0000
  C   C19       1.0  0.11617062846202934  0.44835666109297995  0.14212632947722878  1.0000
  C   C20       1.0  0.5516441031308617  0.6678143181677283  0.1421266507837302  1.0000
  C   C21       1.0  0.3321858876055332  0.883829529474319  0.142127094168444  1.0000
  C   C22       1.0  0.44835659170932735  0.11617047509468388  0.3578732442692427  1.0000
  C   C23       1.0  0.667814995684097  0.5516446889251938  0.3578726157275725  1.0000
  C   C24       1.0  0.8838298990191761  0.3321853030799177  0.3578728684209906  1.0000
  C   C25       1.0  0.8160153906753109  0.553928204350946  0.0688492192436314  1.0000
  C   C26       1.0  0.44607089525540283  0.2620869453122551  0.068848759382611  1.0000
  C   C27       1.0  0.7379123870996196  0.18398459217811342  0.0688483332704166  1.0000
  C   C28       1.0  0.5539302901110403  0.8160173829440254  0.4311555323809841  1.0000
  C   C29       1.0  0.26209193137213305  0.44607148369429694  0.4311576916146791  1.0000
  C   C30       1.0  0.18398313597923982  0.737913429871753  0.431155239614057  1.0000
  C   C31       1.0  0.1839841875228601  0.4460712074057653  0.9311506832537617  1.0000
  C   C32       1.0  0.5539275048937428  0.7379121507856611  0.9311511431160043  1.0000
  C   C33       1.0  0.2620867599034327  0.8160152507737026  0.9311515692278505  1.0000
  C   C34       1.0  0.44606885689108816  0.18398246000796084  0.5688450645807919  1.0000
  C   C35       1.0  0.7379083936799521  0.5539286749163141  0.5688422108823659  1.0000
  C   C36       1.0  0.8160171890746923  0.2620867287385237  0.568843273955963  1.0000
  C   C37       1.0  0.9048136972253218  0.6510786626721341  0.0074599986809787  1.0000
  C   C38       1.0  0.3489215018413035  0.2537343273053311  0.0074596889381056  1.0000
  C   C39       1.0  0.7462648966908604  0.09518702302936077  0.00745906796854  1.0000
  C   C40       1.0  0.6510784423932138  0.9048133812525169  0.4925411933967112  1.0000
  C   C41       1.0  0.25373528225067327  0.34892150996439847  0.4925412558477475  1.0000
  C   C42       1.0  0.09518710715509847  0.7462657559532887  0.4925417647974086  1.0000
  C   C43       1.0  0.09518619663072761  0.34892192713375175  0.9925405982804492  1.0000
  C   C44       1.0  0.6510780763568749  0.7462650844513804  0.9925402135592876  1.0000
  C   C45       1.0  0.2537349971661056  0.9048135667763547  0.9925408345293788  1.0000
  C   C46       1.0  0.34892145146375236  0.09518720855319883  0.5074587091012006  1.0000
  C   C47       1.0  0.7462642959474975  0.6510779017923198  0.5074586466496456  1.0000
  C   C48       1.0  0.9048143959469357  0.2537347183159612  0.5074574432348911  1.0000
  N   N1        1.0  0.95754667530273  0.6102644620536283  0.9389924204172714  1.0000
  N   N2        1.0  0.38973497946719954  0.34728184143963864  0.9389922306224037  1.0000
  N   N3        1.0  0.6527183778724036  0.04245372239658702  0.9389923578267911  1.0000
  N   N4        1.0  0.6102659646144204  0.9575470650126052  0.5610091376750218  1.0000
  N   N5        1.0  0.3472818507796873  0.38973388577257856  0.5610097172046054  1.0000
  N   N6        1.0  0.04245242785368928  0.6527185679599087  0.5610096096326345  1.0000
  N   N7        1.0  0.04245364974935487  0.3897356965569899  0.0610074820797664  1.0000
  N   N8        1.0  0.6102649143897664  0.6527187483660769  0.0610076718755153  1.0000
  N   N9        1.0  0.34728194717875754  0.9575464362142018  0.0610082391337627  1.0000
  N   N10       1.0  0.38973436043765736  0.042453093598013004  0.4389907648220159  1.0000
  N   N11       1.0  0.6527184742723976  0.6102662728380395  0.43899018529243256  1.0000
  N   N12       1.0  0.9575471503444817  0.3472808437968098  0.43899029286475166  1.0000
  O   O1        1.0  0.8088549552811983  0.4551474221140453  0.0620211857386721  1.0000
  O   O2        1.0  0.5448530166325937  0.3537077664743435  0.0620207422054335  1.0000
  O   O3        1.0  0.6462926532336225  0.19114561081689635  0.0620204882336779  1.0000
  O   O4        1.0  0.4551456484024499  0.8088548141060842  0.43798083773315  1.0000
  O   O5        1.0  0.353713377434552  0.5448559524948992  0.4379807582283918  1.0000
  O   O6        1.0  0.19114555757027327  0.6462907880015721  0.4379810408766716  1.0000
  O   O7        1.0  0.19114536977088672  0.5448527364965728  0.9379787167583659  1.0000
  O   O8        1.0  0.4551465615655772  0.6462916452823678  0.9379791602919595  1.0000
  O   O9        1.0  0.35370767181846224  0.8088545477937219  0.9379794142633671  1.0000
  O   O10       1.0  0.544854676649628  0.19114534450453396  0.5620190647638879  1.0000
  O   O11       1.0  0.6462869476175258  0.4551442061157119  0.5620191442686462  1.0000
  O   O12       1.0  0.8088551986778472  0.353708939413771  0.5620181671559763  1.0000
  O   O13       1.0  0.9206521225798383  0.39692566478405666  0.8945146897696716  1.0000
  O   O14       1.0  0.6030738406220735  0.5237275769330197  0.8945137972194104  1.0000
  O   O15       1.0  0.476273068668938  0.07934643627707785  0.8945129139685691  1.0000
  O   O16       1.0  0.3969291238882634  0.9206579213483935  0.6054855967843764  1.0000
  O   O17       1.0  0.5237295800209126  0.6030721488926005  0.6054838009716761  1.0000
  O   O18       1.0  0.07934199338973266  0.47627183683697183  0.605486341105177  1.0000
  O   O19       1.0  0.07934702442321394  0.603074178167759  0.10548521272859548  1.0000
  O   O20       1.0  0.3969264844290876  0.47627258167776176  0.1054867997411364  1.0000
  O   O21       1.0  0.523727256383147  0.9206537223335334  0.10548698852847589  1.0000
  O   O22       1.0  0.603072694868878  0.07934373097052837  0.394516389102499  1.0000
  O   O23       1.0  0.47627106069180775  0.39692918776668773  0.3945147125988626  1.0000
  O   O24       1.0  0.9206579004672335  0.5237287529687437  0.394513561392742  1.0000
  O   O25       1.0  0.7555830309112964  0.5745442269399349  0.12429041641828321  1.0000
  O   O26       1.0  0.4254563733926986  0.1810396541929506  0.1242898272743531  1.0000
  O   O27       1.0  0.8189605414613866  0.24441739459884101  0.12429077352575751  1.0000
  O   O28       1.0  0.5745454271905928  0.7555815509649477  0.37571088156541776  1.0000
  O   O29       1.0  0.18103613684984057  0.4254536339635281  0.37571181017698047  1.0000
  O   O30       1.0  0.2444186708948878  0.8189634526632618  0.3757106495960798  1.0000
  O   O31       1.0  0.24441611609175606  0.42545561601188114  0.8757094860799839  1.0000
  O   O32       1.0  0.5745432048063964  0.8189597575635904  0.8757093807595239  1.0000
  O   O33       1.0  0.18103978358976763  0.7555827640119405  0.8757098234347892  1.0000
  O   O34       1.0  0.42545489786148477  0.2444186076456702  0.62428902093162  1.0000
  O   O35       1.0  0.8189637570071256  0.5745469558421874  0.6242880923209383  1.0000
  O   O36       1.0  0.7555815386236376  0.18103831519095348  0.624287169511831  1.0000
  O   O37       1.0  0.8135190623909737  0.37705336431618247  0.7701794501805708  1.0000
  O   O38       1.0  0.6229463140836984  0.4364651188008183  0.7701790405439368  1.0000
  O   O39       1.0  0.5635341509553129  0.18648110476263474  0.7701789194337961  1.0000
  O   O40       1.0  0.37705114543328483  0.8135183222785543  0.7298181181009227  1.0000
  O   O41       1.0  0.4364663221800171  0.6229481353906722  0.7298172003372017  1.0000
  O   O42       1.0  0.18648124042603356  0.5635340458141374  0.7298188555150701  1.0000
  O   O43       1.0  0.18648126266018764  0.6229467942945989  0.2298211467799831  1.0000
  O   O44       1.0  0.3770528329193609  0.5635347241509977  0.22982086195433032  1.0000
  O   O45       1.0  0.4364649960477395  0.8135187381891812  0.2298209830644709  1.0000
  O   O46       1.0  0.6229484327630388  0.18648108947849812  0.2701831733234883  1.0000
  O   O47       1.0  0.563534434068103  0.37705159202467814  0.2701820076954462  1.0000
  O   O48       1.0  0.8135186534300092  0.436466543991749  0.2701817414463576  1.0000
