data_image0
_chemical_formula_structural       Zn2H48C72N12O16
_chemical_formula_sum              "Zn2 H48 C72 N12 O16"
_cell_length_a       7.917502887429931
_cell_length_b       14.643836999773846
_cell_length_c       15.141719877015701
_cell_angle_alpha    90.00013695867624
_cell_angle_beta     90.00005435925507
_cell_angle_gamma    104.34445992658924

_space_group_name_H-M_alt    "P 1"
_space_group_IT_number       1

loop_
  _space_group_symop_operation_xyz
  'x, y, z'

loop_
  _atom_site_type_symbol
  _atom_site_label
  _atom_site_symmetry_multiplicity
  _atom_site_fract_x
  _atom_site_fract_y
  _atom_site_fract_z
  _atom_site_occupancy
  Zn  Zn1       1.0  0.9494283165581763  0.5267300451101917  0.6956014778679674  1.0000
  Zn  Zn2       1.0  0.050569578857313474  0.47327002463713086  0.19560251385896527  1.0000
  H   H1        1.0  0.02390007064012418  0.5814233271718551  0.3649110082625739  1.0000
  H   H2        1.0  0.9761024722974341  0.418580764785446  0.8649117164575488  1.0000
  H   H3        1.0  0.344002823632529  0.4968912753529011  0.8101886752466145  1.0000
  H   H4        1.0  0.6559960681868234  0.5031049048202902  0.31018809395367  1.0000
  H   H5        1.0  0.9946537949346635  0.6569115747258252  0.519158671120934  1.0000
  H   H6        1.0  0.005343224120878212  0.3430900947374128  0.019158723615674906  1.0000
  H   H7        1.0  0.014404196549314529  0.4078139476426444  0.3811553271106548  1.0000
  H   H8        1.0  0.9856018760886731  0.5921894979840802  0.8811577622442645  1.0000
  H   H9        1.0  0.9622797449645406  0.2888784165741852  0.5195485500424583  1.0000
  H   H10       1.0  0.03772043710937809  0.7111246713581352  0.0195514506420125  1.0000
  H   H11       1.0  0.8457327647370932  0.3231985304135918  0.6086500643922079  1.0000
  H   H12       1.0  0.15426738399804657  0.6768041107223937  0.1086542632717027  1.0000
  H   H13       1.0  0.23554000531395766  0.3986098462804081  0.6137868038020431  1.0000
  H   H14       1.0  0.7644595274554148  0.6013914000345648  0.11378650263286973  1.0000
  H   H15       1.0  0.8567029984213193  0.9965561489059382  0.6753922731472459  1.0000
  H   H16       1.0  0.1432957812471116  0.0034459768503581002  0.17539358874158495  1.0000
  H   H17       1.0  0.9389108842957016  0.8453217852355479  0.6498230282041251  1.0000
  H   H18       1.0  0.0610837038185537  0.1546795501572831  0.1498246534568821  1.0000
  H   H19       1.0  0.2296729696342369  0.8445134979931482  0.5943000996756214  1.0000
  H   H20       1.0  0.7703214422579736  0.15548767659615959  0.09429943067480913  1.0000
  H   H21       1.0  0.5276993115094442  0.9337129220040695  0.5448111813061303  1.0000
  H   H22       1.0  0.4722952596785533  0.06628599854455791  0.044809500392148004  1.0000
  H   H23       1.0  0.7398392882902132  0.086473355622573  0.5165439795935356  1.0000
  H   H24       1.0  0.26015614181098107  0.913524782038941  0.0165428336298064  1.0000
  H   H25       1.0  0.6506733517472655  0.2374234268671458  0.5361277729907599  1.0000
  H   H26       1.0  0.349324986157207  0.7625754800038181  0.0361283026969588  1.0000
  H   H27       1.0  0.5577909631958775  0.414274137988528  0.7426923362563402  1.0000
  H   H28       1.0  0.4422092952912493  0.5857225553752983  0.24269118141175036  1.0000
  H   H29       1.0  0.8220162005279551  0.7005184726712772  0.7772376844899328  1.0000
  H   H30       1.0  0.17798195421367788  0.29947901793905635  0.2772357389817373  1.0000
  H   H31       1.0  0.554771428185127  0.7503853983615869  0.8797101842956607  1.0000
  H   H32       1.0  0.44523052992479256  0.2496116956415122  0.3797082536932096  1.0000
  H   H33       1.0  0.3587596826002226  0.6621263309287855  0.8950867553623924  1.0000
  H   H34       1.0  0.6412369491527345  0.3378700874727513  0.3950857847860264  1.0000
  H   H35       1.0  0.46852062994450705  0.7588252798871765  0.7180303889812054  1.0000
  H   H36       1.0  0.5314801825320856  0.24117275174396718  0.21802914131679785  1.0000
  H   H37       1.0  0.7023135714978396  0.0838917467297762  0.7558272212466195  1.0000
  H   H38       1.0  0.2976883095692033  0.9161056933458342  0.25582874124614113  1.0000
  H   H39       1.0  0.6465687560638431  0.23999746849784032  0.781757731815411  1.0000
  H   H40       1.0  0.3534322586814795  0.7600007477045593  0.28176354098488343  1.0000
  H   H41       1.0  0.3529457348214251  0.2526621418724702  0.8347311816652836  1.0000
  H   H42       1.0  0.6470560803125309  0.7473376374377735  0.33473710462236284  1.0000
  H   H43       1.0  0.0526336571043231  0.17483770856320996  0.8814304691584098  1.0000
  H   H44       1.0  0.9473698871302576  0.825162914659515  0.3814353975566291  1.0000
  H   H45       1.0  0.8250309724931243  0.02787703629863361  0.9136963068903159  1.0000
  H   H46       1.0  0.17497457115928947  0.9721250938769616  0.4136972362030207  1.0000
  H   H47       1.0  0.8923850334730545  0.870904489125806  0.8969455682219448  1.0000
  H   H48       1.0  0.10762077314359429  0.1290982973805512  0.3969445152836713  1.0000
  C   C1        1.0  0.9931807064321987  0.5840052070135756  0.5060061835948347  1.0000
  C   C2        1.0  0.006818800397290671  0.41599643200564884  0.0060077262519087  1.0000
  C   C3        1.0  0.006394872330332635  0.45361095392087253  0.435983363751518  1.0000
  C   C4        1.0  0.9936069477833841  0.5463912293323361  0.9359837156025393  1.0000
  C   C5        1.0  0.9822091297275367  0.43379360441513637  0.5243348366161344  1.0000
  C   C6        1.0  0.017794229544136887  0.5662080991515736  0.024335411118507004  1.0000
  C   C7        1.0  0.967310035874995  0.3426532987400891  0.5706405637818436  1.0000
  C   C8        1.0  0.03269505125119568  0.657349247602028  0.07064201672691442  1.0000
  C   C9        1.0  0.12088268378457914  0.34288339244780275  0.6336655628777096  1.0000
  C   C10       1.0  0.8791169120772513  0.6571179114393575  0.13366610686675534  1.0000
  C   C11       1.0  0.08670740842323708  0.3630213110416777  0.7313605564780661  1.0000
  C   C12       1.0  0.9132909166142014  0.6369795671124264  0.23136107055135827  1.0000
  C   C13       1.0  0.05732734831574502  0.17209864434705938  0.6489502714508292  1.0000
  C   C14       1.0  0.9426697665424015  0.8279026961620346  0.1489512413333642  1.0000
  C   C15       1.0  0.10370900444834773  0.08264344129534609  0.631342536189834  1.0000
  C   C16       1.0  0.8962890031534061  0.917357147197059  0.13134369032956533  1.0000
  C   C17       1.0  0.9847997682546819  0.9973648796815058  0.6487407753933141  1.0000
  C   C18       1.0  0.015196713444197504  0.0026378660908506005  0.1487426871278288  1.0000
  C   C19       1.0  0.031239582571927806  0.91187583855222  0.6342572810398508  1.0000
  C   C20       1.0  0.9687568531572168  0.088126865272514  0.1342578738145193  1.0000
  C   C21       1.0  0.19493146731306882  0.9115244330572099  0.60263937989113  1.0000
  C   C22       1.0  0.8050623387834722  0.088475355991342  0.10263791243250613  1.0000
  C   C23       1.0  0.3191001283954833  0.9971309089406547  0.5839018754640223  1.0000
  C   C24       1.0  0.6808945668614401  0.0028681248215108005  0.08390213082478942  1.0000
  C   C25       1.0  0.48996894037639993  0.9998976087019713  0.5539165551096303  1.0000
  C   C26       1.0  0.5100269244705588  0.0001013420418444999  0.0539167208147617  1.0000
  C   C27       1.0  0.6079814882570249  0.08504297764480383  0.5378182794189001  1.0000
  C   C28       1.0  0.3920155902548785  0.9149559302992357  0.0378185218674432  1.0000
  C   C29       1.0  0.5592474121130736  0.17023323152773878  0.5495825514496034  1.0000
  C   C30       1.0  0.4407500198688227  0.829766415334035  0.04958394150375511  1.0000
  C   C31       1.0  0.3940703920711144  0.17048371392098724  0.5800050793255096  1.0000
  C   C32       1.0  0.6059265039688669  0.8295174269153878  0.08000588885973063  1.0000
  C   C33       1.0  0.3487431196595808  0.26117742612952816  0.5944586171230883  1.0000
  C   C34       1.0  0.6512550870111582  0.7388237603888896  0.09445989944908462  1.0000
  C   C35       1.0  0.2715712755192996  0.08409111031181742  0.5980313034164766  1.0000
  C   C36       1.0  0.7284259940977125  0.9159079720166189  0.09803237241359142  1.0000
  C   C37       1.0  0.5870023449025653  0.48797879371244335  0.7612583512395688  1.0000
  C   C38       1.0  0.41299923726539595  0.5120179572416746  0.2612563512987336  1.0000
  C   C39       1.0  0.7159579227299133  0.6373750469388639  0.7787922307033244  1.0000
  C   C40       1.0  0.2840402369427011  0.3626224481710096  0.2787885016065986  1.0000
  C   C41       1.0  0.5485167922663194  0.6247797330521648  0.8103645465093836  1.0000
  C   C42       1.0  0.451482100107441  0.3752164476269257  0.3103615885517854  1.0000
  C   C43       1.0  0.4573921862451513  0.6947483919483091  0.8460679469932232  1.0000
  C   C44       1.0  0.5426068194468456  0.3052478921342611  0.34606685292143885  1.0000
  C   C45       1.0  0.2058535516778762  0.6789817854577438  0.7326236871663598  1.0000
  C   C46       1.0  0.794147307116397  0.32101628843852137  0.23262341254852714  1.0000
  C   C47       1.0  0.37348443799424313  0.741827785386903  0.772322725552897  1.0000
  C   C48       1.0  0.6265162304291183  0.2581725141938308  0.2723209030770661  1.0000
  C   C49       1.0  0.48158764706516893  0.913722791973818  0.779550663267216  1.0000
  C   C50       1.0  0.5184152576794718  0.08627683133649099  0.27954706976926513  1.0000
  C   C51       1.0  0.44915070511732585  0.0061344898648841  0.8000948282444187  1.0000
  C   C52       1.0  0.5508544782177367  0.9938644957458251  0.30009334927599707  1.0000
  C   C53       1.0  0.5771382969009977  0.0880338582661793  0.7828439415444068  1.0000
  C   C54       1.0  0.42286651555523513  0.9119643725411495  0.28284419210662304  1.0000
  C   C55       1.0  0.5440752051185456  0.1770295462429274  0.7969890609771755  1.0000
  C   C56       1.0  0.4559245932086641  0.8229687102469684  0.2969937448420197  1.0000
  C   C57       1.0  0.38287874541885714  0.18425705098027834  0.8271969591283653  1.0000
  C   C58       1.0  0.6171258914426332  0.8157434189948489  0.3271990631211637  1.0000
  C   C59       1.0  0.24937747606178826  0.1019764058259653  0.8458103048589651  1.0000
  C   C60       1.0  0.7506269037432176  0.898023413209259  0.34581200374154264  1.0000
  C   C61       1.0  0.0809595205227041  0.10592448040450358  0.8748188621030054  1.0000
  C   C62       1.0  0.9190468483697103  0.8940768361570192  0.3748212943489905  1.0000
  C   C63       1.0  0.9544222929057258  0.0241348144797158  0.8924087919442627  1.0000
  C   C64       1.0  0.04558191842695431  0.975867250222535  0.3924096668625482  1.0000
  C   C65       1.0  0.991260924312421  0.9355360340301005  0.8827933777519663  1.0000
  C   C66       1.0  0.008746102144151297  0.064466715311184  0.3827914667532184  1.0000
  C   C67       1.0  0.15391716402326952  0.9289762710928428  0.8530402712711622  1.0000
  C   C68       1.0  0.8460872387241597  0.0710235688774574  0.35303944387092673  1.0000
  C   C69       1.0  0.1908377852918335  0.8360216021048998  0.8420922751053441  1.0000
  C   C70       1.0  0.8091621561732084  0.16397678499900792  0.3420903238085131  1.0000
  C   C71       1.0  0.28444658290165853  0.011694440314791202  0.8330613270173121  1.0000
  C   C72       1.0  0.7155558591803628  0.9883067438378674  0.3330585945941351  1.0000
  N   N1        1.0  0.9745682501696963  0.516353774849847  0.5672844765828347  1.0000
  N   N2        1.0  0.02543018638735361  0.48364803781555576  0.0672861847474664  1.0000
  N   N3        1.0  0.012385767201003277  0.5477729372152425  0.4259456447446653  1.0000
  N   N4        1.0  0.9876176019429368  0.45222992563527237  0.925945775935759  1.0000
  N   N5        1.0  0.178789917308066  0.2555240256422735  0.6250713399731964  1.0000
  N   N6        1.0  0.8212096512798298  0.7444772533572818  0.1250733786115248  1.0000
  N   N7        1.0  0.7378702818877657  0.5518193329466143  0.7484111761912828  1.0000
  N   N8        1.0  0.2621303108809769  0.44817808182544644  0.24841027596645665  1.0000
  N   N9        1.0  0.4714942852506  0.529850490240264  0.7987323179717407  1.0000
  N   N10       1.0  0.5285045702084047  0.47014565675392106  0.29873159834136237  1.0000
  N   N11       1.0  0.3459244083110562  0.8336423090690701  0.7987207509406888  1.0000
  N   N12       1.0  0.6540760277641697  0.1663573621182479  0.29871939000637593  1.0000
  O   O1        1.0  0.9545528153755923  0.39833423500917314  0.747977811436485  1.0000
  O   O2        1.0  0.04544493014236644  0.6016652815813471  0.24797980226169616  1.0000
  O   O3        1.0  0.19067676390213967  0.3495956797473241  0.7888824334891071  1.0000
  O   O4        1.0  0.8093201628096837  0.6504046563282059  0.2888829279466948  1.0000
  O   O5        1.0  0.9176275240869459  0.17736717306062394  0.6825444252203853  1.0000
  O   O6        1.0  0.08237159441155469  0.8226356782544001  0.18254562415661726  1.0000
  O   O7        1.0  0.4514552313789367  0.3384849560754688  0.5806881690256562  1.0000
  O   O8        1.0  0.5485435640869197  0.6615147846971609  0.08069186424274481  1.0000
  O   O9        1.0  0.1714601152764956  0.5911773911159203  0.7553653795717354  1.0000
  O   O10       1.0  0.8285420804519961  0.4088207524644218  0.2553646643265425  1.0000
  O   O11       1.0  0.11684275230226152  0.7120841253825034  0.6790260935356045  1.0000
  O   O12       1.0  0.883159517272418  0.28791450195740254  0.17902578574394576  1.0000
  O   O13       1.0  0.6185737188788138  0.9035826206638474  0.7463193212354116  1.0000
  O   O14       1.0  0.3814268672496156  0.0964147880488966  0.24631766571528865  1.0000
  O   O15       1.0  0.0915415455778685  0.7618243459789371  0.8685270749812022  1.0000
  O   O16       1.0  0.9084587959179942  0.2381748225296931  0.3685260040708585  1.0000
