data_image0
_chemical_formula_structural       Gd4H24C28S4O32
_chemical_formula_sum              "Gd4 H24 C28 S4 O32"
_cell_length_a       7.992431571234936
_cell_length_b       8.258588415407475
_cell_length_c       18.159627635264357
_cell_angle_alpha    90.00051605489413
_cell_angle_beta     89.9994988372763
_cell_angle_gamma    108.88316310443749

_space_group_name_H-M_alt    "P 1"
_space_group_IT_number       1

loop_
  _space_group_symop_operation_xyz
  'x, y, z'

loop_
  _atom_site_type_symbol
  _atom_site_label
  _atom_site_symmetry_multiplicity
  _atom_site_fract_x
  _atom_site_fract_y
  _atom_site_fract_z
  _atom_site_occupancy
  Gd  Gd1       1.0  0.2500426236664738  0.2282853236863076  0.480009830195094  1.0000
  Gd  Gd2       1.0  0.24995904341667358  0.77171401968851  0.9800101967748277  1.0000
  Gd  Gd3       1.0  0.7499531295618241  0.7717137245123382  0.5199909822177062  1.0000
  Gd  Gd4       1.0  0.7500478962580105  0.2282848125318822  0.019990615615796504  1.0000
  H   H1        1.0  0.009962124603468717  0.22794839448670254  0.35221362266387507  1.0000
  H   H2        1.0  0.4900322676265604  0.7720479268598196  0.8522125070550219  1.0000
  H   H3        1.0  0.9900181508848719  0.7720457996520907  0.6477882911131021  1.0000
  H   H4        1.0  0.5099726375434983  0.2279522328455315  0.1477855519818831  1.0000
  H   H5        1.0  0.8818066647463567  0.1606795068081723  0.4213762029693272  1.0000
  H   H6        1.0  0.6181927637437639  0.8393159301787351  0.9213746086911531  1.0000
  H   H7        1.0  0.11818434582816204  0.8393131918502235  0.5786268121278582  1.0000
  H   H8        1.0  0.38181214142224473  0.16068422953073747  0.0786240010178361  1.0000
  H   H9        1.0  0.2804510304062904  0.609260309096513  0.5122915096761815  1.0000
  H   H10       1.0  0.21955275697698803  0.3907398631489869  0.0122891822215223  1.0000
  H   H11       1.0  0.719548902993637  0.39073994661563927  0.4877087520589214  1.0000
  H   H12       1.0  0.7804529397875227  0.6092589930401786  0.9877077754669727  1.0000
  H   H13       1.0  0.11546163196062054  0.5209556782851194  0.45964464243754594  1.0000
  H   H14       1.0  0.3845514026807281  0.4790534527494544  0.9596465758310943  1.0000
  H   H15       1.0  0.8845395443899308  0.4790445534171043  0.5403539672788327  1.0000
  H   H16       1.0  0.615460730987728  0.5209530085339082  0.04035368589317301  1.0000
  H   H17       1.0  0.867942432242238  0.5423181024959759  0.38405907578249554  1.0000
  H   H18       1.0  0.6320712166691325  0.4576765126574287  0.8840591482625513  1.0000
  H   H19       1.0  0.1320577233975088  0.457689878269477  0.6159406352961128  1.0000
  H   H20       1.0  0.3679290569609962  0.5423211600405083  0.11594166413861728  1.0000
  H   H21       1.0  0.8185023734890464  0.37609621499242957  0.25604078355328147  1.0000
  H   H22       1.0  0.6815008374630838  0.6239005888674924  0.7560424549181591  1.0000
  H   H23       1.0  0.18149846262322464  0.6239065997322442  0.7439583768412066  1.0000
  H   H24       1.0  0.3184974016462335  0.3760984113318671  0.24395780681763315  1.0000
  C   C1        1.0  0.047861230268885974  0.7600635758374068  0.3267752545889239  1.0000
  C   C2        1.0  0.45214393044816603  0.2399334527571355  0.8267753825855806  1.0000
  C   C3        1.0  0.9521451400592582  0.2399442849442437  0.6732250071494478  1.0000
  C   C4        1.0  0.5478530657105338  0.7600655714521592  0.17322653116892892  1.0000
  C   C5        1.0  0.9314827090881225  0.5941928535965674  0.3324952273083639  1.0000
  C   C6        1.0  0.5685284197322604  0.4058023421980081  0.8324942301379822  1.0000
  C   C7        1.0  0.06851936996263673  0.4058099371305203  0.6675039330836585  1.0000
  C   C8        1.0  0.43147309684444235  0.5941953064941147  0.1675054809165459  1.0000
  C   C9        1.0  0.9056137335246393  0.5064252351647341  0.2650140862745545  1.0000
  C   C10       1.0  0.5943943174001518  0.49357160683329937  0.7650133527267827  1.0000
  C   C11       1.0  0.09438461669447665  0.4935776275715682  0.7349872768132002  1.0000
  C   C12       1.0  0.405610927987965  0.5064259698701861  0.2349869089924397  1.0000
  C   C13       1.0  0.0014450330394453646  0.606170943414  0.20810519136399114  1.0000
  C   C14       1.0  0.4985529410021457  0.3938309246554966  0.7081057774983037  1.0000
  C   C15       1.0  0.9985559141826245  0.39383573384760945  0.7918950703824593  1.0000
  C   C16       1.0  0.5014490269266789  0.6061680035469976  0.29189393355800775  1.0000
  C   C17       1.0  0.09192456269671821  0.8899655022439531  0.3858790732586571  1.0000
  C   C18       1.0  0.408075889978882  0.11002861938466423  0.8858788335362534  1.0000
  C   C19       1.0  0.9080750304892008  0.11003733646595751  0.6141184351220446  1.0000
  C   C20       1.0  0.5919243836512394  0.8899690533132729  0.1141219788649153  1.0000
  C   C21       1.0  0.9961094068669214  0.5527213749055518  0.130305847862104  1.0000
  C   C22       1.0  0.5038796037808027  0.4472777237805232  0.6303080272942553  1.0000
  C   C23       1.0  0.0038893947164524243  0.4472827673287726  0.8696938632111755  1.0000
  C   C24       1.0  0.49611185816201714  0.5527162543717878  0.36969278511637077  1.0000
  C   C25       1.0  0.5744884606268528  0.0674741670990784  0.4788645696337285  1.0000
  C   C26       1.0  0.9255184906896121  0.9325103737475119  0.9788638198323625  1.0000
  C   C27       1.0  0.4255009667628047  0.932521138587589  0.5211400974881927  1.0000
  C   C28       1.0  0.0744821231747537  0.06748471593209619  0.021136992562787806  1.0000
  S   S1        1.0  0.1268784915040158  0.8063240246600855  0.23826236888466215  1.0000
  S   S2        1.0  0.3731167828056385  0.19367189671864082  0.7382664667250795  1.0000
  S   S3        1.0  0.8731244902429011  0.19368132509598718  0.7617378928550806  1.0000
  S   S4        1.0  0.6268799911091991  0.8063194024414743  0.26173654835800164  1.0000
  O   O1        1.0  0.22360858465487612  0.0258055161350939  0.3785811703147246  1.0000
  O   O2        1.0  0.27639412084444365  0.9741910314266989  0.8785822742304605  1.0000
  O   O3        1.0  0.7763947373262854  0.9741972506026428  0.6214190914189999  1.0000
  O   O4        1.0  0.7236040071469817  0.025804106243953108  0.1214179874975372  1.0000
  O   O5        1.0  0.9921868837139629  0.8611398446718256  0.442919733506379  1.0000
  O   O6        1.0  0.5078168598606395  0.13885840141436032  0.9429189660602048  1.0000
  O   O7        1.0  0.007807508601644007  0.13886953557545206  0.5570777748979978  1.0000
  O   O8        1.0  0.4921875939532472  0.8611404787847405  0.05707964364700761  1.0000
  O   O9        1.0  0.8869573914060214  0.4067910448796255  0.11473109865382008  1.0000
  O   O10       1.0  0.613040437472435  0.5932037904406541  0.6147307059952426  1.0000
  O   O11       1.0  0.1130441251625882  0.5932066038207251  0.8852697137448831  1.0000
  O   O12       1.0  0.38696096799446883  0.40678999571452584  0.3852679037073302  1.0000
  O   O13       1.0  0.09803441219604997  0.6535192186652168  0.0842385752902786  1.0000
  O   O14       1.0  0.4019591664757058  0.3464809176655166  0.5842415430098884  1.0000
  O   O15       1.0  0.9019602092278236  0.34648371604325234  0.9157600344444534  1.0000
  O   O16       1.0  0.5980364756266143  0.6535142680126497  0.4157603707392852  1.0000
  O   O17       1.0  0.5524520692665933  0.2095759065694835  0.4658657420079636  1.0000
  O   O18       1.0  0.9475480598168532  0.7904240340504741  0.9658648677311137  1.0000
  O   O19       1.0  0.447540524484694  0.7904141850688831  0.5341367224086468  1.0000
  O   O20       1.0  0.052461365767165126  0.20957475014182592  0.0341315392779009  1.0000
  O   O21       1.0  0.707642723381696  0.024534112590586698  0.46116562105742537  1.0000
  O   O22       1.0  0.792347531230803  0.9754659497434589  0.9611644655498921  1.0000
  O   O23       1.0  0.29234964128154683  0.9754624245660111  0.5388329886684176  1.0000
  O   O24       1.0  0.20765669345865234  0.024539376010906708  0.03883524551530121  1.0000
  O   O25       1.0  0.9994363692081053  0.24165208508388503  0.4049694183149626  1.0000
  O   O26       1.0  0.5005651056627018  0.7583482246803684  0.9049690465361452  1.0000
  O   O27       1.0  0.0005518152713718743  0.7583432445715488  0.5950313941048293  1.0000
  O   O28       1.0  0.4994436394447491  0.2416557255568321  0.0950284618290809  1.0000
  O   O29       1.0  0.18763557770088823  0.49939276306515273  0.4993308439211647  1.0000
  O   O30       1.0  0.31237427706030735  0.5006131467029747  0.9993298432022756  1.0000
  O   O31       1.0  0.8123685358706754  0.5006087001605053  0.5006688671362342  1.0000
  O   O32       1.0  0.6876323223963184  0.49938826851929013  0.0006687665060312  1.0000
