data_image0
_chemical_formula_structural       Cd2H30C32S2N10O10
_chemical_formula_sum              "Cd2 H30 C32 S2 N10 O10"
_cell_length_a       8.612061771393389
_cell_length_b       11.323431751196297
_cell_length_c       11.221608922854088
_cell_angle_alpha    67.50081868220182
_cell_angle_beta     67.54307102885564
_cell_angle_gamma    71.15596958250073

_space_group_name_H-M_alt    "P 1"
_space_group_IT_number       1

loop_
  _space_group_symop_operation_xyz
  'x, y, z'

loop_
  _atom_site_type_symbol
  _atom_site_label
  _atom_site_symmetry_multiplicity
  _atom_site_fract_x
  _atom_site_fract_y
  _atom_site_fract_z
  _atom_site_occupancy
  Cd  Cd1       1.0  7.1371388196481e-09  0.49999914855998656  0.5000006392643711  1.0000
  Cd  Cd2       1.0  0.9999985822268518  0.499999821443332  0.999998727125927  1.0000
  H   H1        1.0  0.23445788630265696  0.599920470183754  0.08991239842836042  1.0000
  H   H2        1.0  0.765537221320244  0.400073266470379  0.9100953655410251  1.0000
  H   H3        1.0  0.3000524720583115  0.6014965460970103  0.9360329825419954  1.0000
  H   H4        1.0  0.6999412386013261  0.3985069700846895  0.06396967664991848  1.0000
  H   H5        1.0  0.22004749472962704  0.7358284044565337  0.5392262249799842  1.0000
  H   H6        1.0  0.7799467313616545  0.26417806776898095  0.460769813958869  1.0000
  H   H7        1.0  0.3829698664808205  0.593433833820079  0.5508254925329864  1.0000
  H   H8        1.0  0.6170243084555339  0.40657261854318705  0.4491750245436562  1.0000
  H   H9        1.0  0.06260553328782234  0.8083083201826115  0.13388852150341526  1.0000
  H   H10       1.0  0.9373872795113416  0.1916893355533134  0.8661157350363665  1.0000
  H   H11       1.0  0.8341703484625214  0.15952880572474018  0.22730581569801697  1.0000
  H   H12       1.0  0.16583293652713138  0.8404717786950898  0.7726969963109482  1.0000
  H   H13       1.0  0.030717821967804995  0.1029533654423176  0.36594987336388124  1.0000
  H   H14       1.0  0.9692875621094857  0.8970443047562356  0.6340498813911137  1.0000
  H   H15       1.0  0.11553010478633755  0.26566030025892223  0.36764399380184887  1.0000
  H   H16       1.0  0.8844780690843663  0.7343363989567494  0.6323544393848051  1.0000
  H   H17       1.0  0.31208907938074043  0.0496561595919829  0.3712241659832713  1.0000
  H   H18       1.0  0.6879175505702833  0.9503415076831345  0.6287761237835595  1.0000
  H   H19       1.0  0.5329039181423029  0.12278188461745292  0.6194504421388912  1.0000
  H   H20       1.0  0.4671019097497367  0.8772187138177613  0.3805489617559487  1.0000
  H   H21       1.0  0.32385787607721983  0.3296194196532838  0.6091151204004106  1.0000
  H   H22       1.0  0.6761409396615361  0.6703792144086479  0.3908879333976499  1.0000
  H   H23       1.0  0.09355355349507731  0.2630937837596221  0.8979362428160228  1.0000
  H   H24       1.0  0.9064426042654571  0.7369009548315973  0.10206549148163196  1.0000
  H   H25       1.0  0.2809430671716697  0.0471955835216988  0.896802402975247  1.0000
  H   H26       1.0  0.7190558087653754  0.9527981562794853  0.10320427914696483  1.0000
  H   H27       1.0  0.5535531827293311  0.12185038806246955  0.10761579817567936  1.0000
  H   H28       1.0  0.44644830240625316  0.8781570635380688  0.8923786774057305  1.0000
  H   H29       1.0  0.34357952052047835  0.33172931914262455  0.10607667745455976  1.0000
  H   H30       1.0  0.6564197811445924  0.6682771771412136  0.8939134408836079  1.0000
  C   C1        1.0  0.13906987693579964  0.5653641672954423  0.689000681566874  1.0000
  C   C2        1.0  0.8609250398612504  0.4346442481684676  0.3109970930576083  1.0000
  C   C3        1.0  0.24816818679775568  0.6307008697121789  0.5492035033223956  1.0000
  C   C4        1.0  0.7518259983695827  0.36930558662353974  0.4507961181266893  1.0000
  C   C5        1.0  0.1640471351142664  0.8436184960400868  0.26371968182581174  1.0000
  C   C6        1.0  0.8359537092828618  0.15638211408886352  0.736277582021685  1.0000
  C   C7        1.0  0.05292682784622116  0.8747231614540851  0.18666101157141668  1.0000
  C   C8        1.0  0.9470719981235263  0.12527547658029192  0.8133411465990861  1.0000
  C   C9        1.0  0.9277116175056719  0.06705130432402479  0.23781736237538817  1.0000
  C   C10       1.0  0.0722919552989437  0.9329483109873424  0.7621839536691225  1.0000
  C   C11       1.0  0.03912885301907921  0.03620982809026431  0.3137221951844253  1.0000
  C   C12       1.0  0.9608737412648053  0.9637888130911704  0.6862788811389108  1.0000
  C   C13       1.0  0.2089473215927029  0.22833204872726043  0.42384212654317105  1.0000
  C   C14       1.0  0.7910545819854136  0.7716646492157795  0.576157214094536  1.0000
  C   C15       1.0  0.320691723984794  0.1084411526483464  0.4249275710695244  1.0000
  C   C16       1.0  0.6793139069835236  0.8915555325519404  0.575074270231255  1.0000
  C   C17       1.0  0.44079384499341506  0.06423487889385632  0.497129756926732  1.0000
  C   C18       1.0  0.5592105503321604  0.9357618132023122  0.5028706537346534  1.0000
  C   C19       1.0  0.44260368483630697  0.14680288809262987  0.5631022289436699  1.0000
  C   C20       1.0  0.5573994339225761  0.8531937950096236  0.4369003335885537  1.0000
  C   C21       1.0  0.32527984757896183  0.2652936393329952  0.5571041632438352  1.0000
  C   C22       1.0  0.6747215008311968  0.7347050047718753  0.44289637806766535  1.0000
  C   C23       1.0  0.195472649777372  0.22574060555157163  0.9457232592420154  1.0000
  C   C24       1.0  0.804525752839595  0.7742551121910496  0.05427745853351937  1.0000
  C   C25       1.0  0.3043612450221644  0.10508921845858053  0.9441234278926487  1.0000
  C   C26       1.0  0.6956381156535656  0.8949074654690746  0.05587932085918364  1.0000
  C   C27       1.0  0.4386724932385633  0.0629573089948465  0.0017696468763687887  1.0000
  C   C28       1.0  0.5613268072388848  0.9370442691935497  0.9982294735513049  1.0000
  C   C29       1.0  0.4523200104106238  0.14677623648035623  0.06125912606129444  1.0000
  C   C30       1.0  0.5476800216965287  0.8532273008362311  0.9387381475417693  1.0000
  C   C31       1.0  0.33586934720953115  0.2651378067400146  0.06031780631809612  1.0000
  C   C32       1.0  0.6641289452418491  0.7348677034965405  0.9396747591815781  1.0000
  S   S1        1.0  0.30761948281325874  0.6849894490098621  0.29417161531136304  1.0000
  S   S2        1.0  0.6923825972266116  0.31501115422320675  0.7058270791755346  1.0000
  N   N1        1.0  0.21949965048357706  0.6064958426996726  0.44147586672004013  1.0000
  N   N2        1.0  0.780499372409885  0.3935067085696318  0.5585238540445231  1.0000
  N   N3        1.0  0.15832863228374797  0.925118966763833  0.3269683224251025  1.0000
  N   N4        1.0  0.841676237549528  0.07488066548635432  0.6730290504934473  1.0000
  N   N5        1.0  0.9342452174641737  0.9859894466238686  0.17383633926252867  1.0000
  N   N6        1.0  0.06575207481687782  0.014010163442407006  0.8261667798605926  1.0000
  N   N7        1.0  0.20912726248996447  0.3053148213295387  0.48970800594663183  1.0000
  N   N8        1.0  0.7908736318744618  0.6946808905662182  0.5102937818525816  1.0000
  N   N9        1.0  0.2088974099293494  0.3048042546247913  0.0033521124115622903  1.0000
  N   N10       1.0  0.7911009427203199  0.6951963613510159  0.9966440814122635  1.0000
  O   O1        1.0  0.047223171144366874  0.4897829352382317  0.7045947149295841  1.0000
  O   O2        1.0  0.9527752965811372  0.5102215621929035  0.29540620650877253  1.0000
  O   O3        1.0  0.14942756971570495  0.59526760213992  0.7840886761578785  1.0000
  O   O4        1.0  0.8505698592907793  0.4047408154220307  0.21590837723515915  1.0000
  O   O5        1.0  0.3038214137963422  0.6266693117069054  0.199901068658633  1.0000
  O   O6        1.0  0.6961802326597635  0.37332836726194785  0.800097081060855  1.0000
  O   O7        1.0  0.47129561597174785  0.7093556415127154  0.27797261437113713  1.0000
  O   O8        1.0  0.5287085324628081  0.2906420355817261  0.7220257097444645  1.0000
  O   O9        1.0  0.2001749846495571  0.5998584518429979  0.015213013768260486  1.0000
  O   O10       1.0  0.7998221811370456  0.40013235470005537  0.9847952754573938  1.0000
