data_image0
_chemical_formula_structural       CoH14C18N8O4
_chemical_formula_sum              "Co1 H14 C18 N8 O4"
_cell_length_a       8.027173643894072
_cell_length_b       7.97060808900577
_cell_length_c       9.261571885551044
_cell_angle_alpha    81.86342830079889
_cell_angle_beta     69.2590672633843
_cell_angle_gamma    64.80818618401234

_space_group_name_H-M_alt    "P 1"
_space_group_IT_number       1

loop_
  _space_group_symop_operation_xyz
  'x, y, z'

loop_
  _atom_site_type_symbol
  _atom_site_label
  _atom_site_symmetry_multiplicity
  _atom_site_fract_x
  _atom_site_fract_y
  _atom_site_fract_z
  _atom_site_occupancy
  Co  Co1       1.0  0.9999995395518227  0.9999991703352722  0.9999985062502427  1.0000
  H   H1        1.0  0.1738197934535251  0.9391485791361235  0.21603373201424592  1.0000
  H   H2        1.0  0.82617540923021  0.0608574757720106  0.7839630436290429  1.0000
  H   H3        1.0  0.9464413469453918  0.020665243910933405  0.3071382511387879  1.0000
  H   H4        1.0  0.05355566599362762  0.9793366518103072  0.6928585158283835  1.0000
  H   H5        1.0  0.8768588699046377  0.6570121810040562  0.30429237684383276  1.0000
  H   H6        1.0  0.12313921989659345  0.3429842083024824  0.6957080263785753  1.0000
  H   H7        1.0  0.9115266216776092  0.4753568321969865  0.18740231338423993  1.0000
  H   H8        1.0  0.08847400155064375  0.5246367970943312  0.8125976719650292  1.0000
  H   H9        1.0  0.5924610247216934  0.5750746801375614  0.4008789267699056  1.0000
  H   H10       1.0  0.40753970122432276  0.42492182129419137  0.5991260451649011  1.0000
  H   H11       1.0  0.7434751416382143  0.33807064100645323  0.42172766235763226  1.0000
  H   H12       1.0  0.2565223277090354  0.6619272212688402  0.5782781366473484  1.0000
  H   H13       1.0  0.713697233188654  0.5137754442546979  0.5401463124626743  1.0000
  H   H14       1.0  0.2863030159064692  0.48622519451075163  0.4598560989029678  1.0000
  C   C1        1.0  0.5793087437130993  0.08861961229631281  0.18744874942994727  1.0000
  C   C2        1.0  0.4206975417286642  0.9113824421157661  0.8125494472261888  1.0000
  C   C3        1.0  0.3119388932619954  0.07322743540792231  0.4100451743192861  1.0000
  C   C4        1.0  0.688059306071217  0.9267717914097989  0.589958058332449  1.0000
  C   C5        1.0  0.1787260522906494  0.5905097779118123  0.05347459991984489  1.0000
  C   C6        1.0  0.8212756533692841  0.4094936072531254  0.9465237573174218  1.0000
  C   C7        1.0  0.4397955890568994  0.3074002345883856  0.9473797891476888  1.0000
  C   C8        1.0  0.5601983693117846  0.6926087835718776  0.052628856638840135  1.0000
  C   C9        1.0  0.3804728711063349  0.15909113200088854  0.2714262167232916  1.0000
  C   C10       1.0  0.6195266650383785  0.8409080556490098  0.7285733681050598  1.0000
  C   C11       1.0  0.2836006255919514  0.4032862279865272  0.07746615780386888  1.0000
  C   C12       1.0  0.7164042066921041  0.5967130627114443  0.9225350144025338  1.0000
  C   C13       1.0  0.2435785567709985  0.32055711112196417  0.22567900441585909  1.0000
  C   C14       1.0  0.7564224189029785  0.6794449095005394  0.7743219191746461  1.0000
  C   C15       1.0  0.8942047060509992  0.5130053611474211  0.3029557165844494  1.0000
  C   C16       1.0  0.10579603011635183  0.48699108834046007  0.6970460196160386  1.0000
  C   C17       1.0  0.727063863841302  0.48153429174302437  0.4242671721010394  1.0000
  C   C18       1.0  0.27293819210199644  0.5184622051501578  0.5757363091665936  1.0000
  N   N1        1.0  0.7445257283663269  0.0340223494549363  0.11382872550012718  1.0000
  N   N2        1.0  0.25546476796805007  0.9659822852679981  0.886170774185494  1.0000
  N   N3        1.0  0.24905672365687082  0.006494661919987298  0.5256037666913256  1.0000
  N   N4        1.0  0.7509460759008204  0.993503130257132  0.4743928339106417  1.0000
  N   N5        1.0  0.0935058378849405  0.7462800545197084  0.029448954626595008  1.0000
  N   N6        1.0  0.9064961153405876  0.2537135702330389  0.9705495400555005  1.0000
  N   N7        1.0  0.5662812770178505  0.23425062846646236  0.834998345200212  1.0000
  N   N8        1.0  0.4337256322849966  0.7657499356622426  0.16499337709524295  1.0000
  O   O1        1.0  0.0477041522796497  0.0392062080209286  0.215344079083735  1.0000
  O   O2        1.0  0.9522922606480503  0.9607970567813243  0.7846516121973719  1.0000
  O   O3        1.0  0.0730155383626823  0.3934350670660153  0.33741494776703707  1.0000
  O   O4        1.0  0.9269859209764137  0.606562781593546  0.6625863792364225  1.0000
