data_image0
_chemical_formula_structural       Hg2H32C44N12Cl8O4
_chemical_formula_sum              "Hg2 H32 C44 N12 Cl8 O4"
_cell_length_a       3.809367213
_cell_length_b       14.846773173654835
_cell_length_c       20.955
_cell_angle_alpha    90.70279407149465
_cell_angle_beta     90.0
_cell_angle_gamma    90.0

_space_group_name_H-M_alt    "P 1"
_space_group_IT_number       1

loop_
  _space_group_symop_operation_xyz
  'x, y, z'

loop_
  _atom_site_type_symbol
  _atom_site_label
  _atom_site_symmetry_multiplicity
  _atom_site_fract_x
  _atom_site_fract_y
  _atom_site_fract_z
  _atom_site_occupancy
  Hg  Hg1       1.0  0.0  0.0  0.0  1.0000
  Hg  Hg2       1.0  0.4999938030390112  0.4999974305278769  0.5000063484648578  1.0000
  H   H1        1.0  0.376550728715479  0.1750835361570182  0.7694451890965864  1.0000
  H   H2        1.0  0.876552407078222  0.3249172623593779  0.7305549848674033  1.0000
  H   H3        1.0  0.6234500029020964  0.8249160400826625  0.23055466405685368  1.0000
  H   H4        1.0  0.1234535747551746  0.6750836610757176  0.2694458344198267  1.0000
  H   H5        1.0  0.2814115678692417  0.0469713151329501  0.8474575903261723  1.0000
  H   H6        1.0  0.7814158713398882  0.4530281361880384  0.6525420947170986  1.0000
  H   H7        1.0  0.7185917888562443  0.9530282611067378  0.15254178561419  1.0000
  H   H8        1.0  0.2185901104935013  0.5469707664539383  0.3474587070086699  1.0000
  H   H9        1.0  0.8131271748833626  0.2253797295595774  0.9757071451401061  1.0000
  H   H10       1.0  0.3131254965206196  0.2746217425545296  0.5242920802515556  1.0000
  H   H11       1.0  0.1868735567342128  0.7746211938755179  0.024292242507904398  1.0000
  H   H12       1.0  0.6868752350969558  0.7253778336851582  0.47570777290187743  1.0000
  H   H13       1.0  0.1059362296768924  0.71440560067591  0.7689734316736933  1.0000
  H   H14       1.0  0.6059379080396354  0.7855941004824629  0.7310265895899094  1.0000
  H   H15       1.0  0.8940618768327724  0.2855953227591783  0.2310259559743102  1.0000
  H   H16       1.0  0.3940549482542082  0.214404802159514  0.2689723032835545  1.0000
  H   H17       1.0  0.8300066187397022  0.7956482198204213  0.861217996199798  1.0000
  H   H18       1.0  0.3300023152690486  0.7043535021310703  0.6387810881991243  1.0000
  H   H19       1.0  0.1699888626620591  0.2043520300169632  0.1387809083813067  1.0000
  H   H20       1.0  0.6699879159168916  0.29564674770632127  0.36121781638198774  1.0000
  H   H21       1.0  0.6127474379561733  0.7077342890101547  0.9542015446513403  1.0000
  H   H22       1.0  0.1127457595934303  0.7922681065390406  0.5457980228144805  1.0000
  H   H23       1.0  0.3872506685534916  0.2922666344249406  0.0457973657835922  1.0000
  H   H24       1.0  0.8872444715925027  0.20773349049375153  0.4542013706873433  1.0000
  H   H25       1.0  0.6786323962619747  0.5427271009153429  0.9559706229618924  1.0000
  H   H26       1.0  0.1786280927913282  0.9572746210361558  0.5440294158631858  1.0000
  H   H27       1.0  0.3213709604635042  0.45727314892204857  0.0440292360453682  1.0000
  H   H28       1.0  0.8213647635025225  0.0427269759966435  0.4559699776386452  1.0000
  H   H29       1.0  0.1219467628152771  0.4157599959889851  0.825101541664978  1.0000
  H   H30       1.0  0.6219458160701095  0.084241476125122  0.6748991153659104  1.0000
  H   H31       1.0  0.878056593910209  0.5842402538484064  0.1748987945553608  1.0000
  H   H32       1.0  0.378054915547466  0.9157581001145658  0.3251012150006005  1.0000
  C   C1        1.0  0.24820395281750512  0.1861891415117611  0.8155307251726712  1.0000
  C   C2        1.0  0.7482030060723375  0.3138103098092273  0.6844684826575218  1.0000
  C   C3        1.0  0.7517967788000703  0.8138097611302155  0.1844691221269485  1.0000
  C   C4        1.0  0.2518003506531485  0.6861885928327566  0.31553136464209086  1.0000
  C   C5        1.0  0.1959984318266876  0.1157254328352977  0.8581218998519374  1.0000
  C   C6        1.0  0.6960079855131553  0.3842746920834017  0.6418782682582318  1.0000
  C   C7        1.0  0.803994424467156  0.8842734698066863  0.141877947447675  1.0000
  C   C8        1.0  0.3040006214281448  0.6157255577539897  0.3581225451751777  1.0000
  C   C9        1.0  0.9369587651774651  0.2139757204217219  0.9293603663335189  1.0000
  C   C10       1.0  0.4369570868147221  0.2860250780946743  0.5706393304174  1.0000
  C   C11       1.0  0.0630445915480209  0.7860245294156696  0.0706390154606709  1.0000
  C   C12       1.0  0.5630462699107639  0.7139744981450065  0.42936147716218903  1.0000
  C   C13       1.0  0.9883977546587844  0.2843343478562801  0.8863898484889107  1.0000
  C   C14       1.0  0.4884013265118625  0.2156657770624122  0.6136098424081879  1.0000
  C   C15       1.0  0.0116029769587911  0.7156652283834006  0.1136090502383809  1.0000
  C   C16       1.0  0.5116020302136235  0.7843337991772756  0.3863909651714009  1.0000
  C   C17       1.0  0.8615000383267104  0.3774295922098716  0.9036904113933913  1.0000
  C   C18       1.0  0.3614983599639672  0.1225712063065316  0.5963092853575205  1.0000
  C   C19       1.0  0.1384980681829617  0.62257065762752  0.09630992482694012  1.0000
  C   C20       1.0  0.6385076218694294  0.8774290435308598  0.40369152807588893  1.0000
  C   C21       1.0  0.9273981221720575  0.5341144806650959  0.8637120489491962  1.0000
  C   C22       1.0  0.4273911935934933  0.965885894090988  0.6362884553813046  1.0000
  C   C23       1.0  0.0726052345534285  0.4658857691722886  0.1362873328449865  1.0000
  C   C24       1.0  0.5726016627003503  0.034114355746403584  0.3637114036259561  1.0000
  C   C25       1.0  0.0444010751766797  0.5845453936085576  0.811184910904025  1.0000
  C   C26       1.0  0.5444001284315121  0.915456328342934  0.6888156051341241  1.0000
  C   C27       1.0  0.9555996564408957  0.4154548562288269  0.1888144708901578  1.0000
  C   C28       1.0  0.4555979780781527  0.0845439214944577  0.3111842538731366  1.0000
  C   C29       1.0  0.0108259450176575  0.6777093449280114  0.810165860924684  1.0000
  C   C30       1.0  0.5108197480566687  0.8222910298280723  0.6898346434058169  1.0000
  C   C31       1.0  0.9891747865999181  0.3222909049093801  0.1898335208694988  1.0000
  C   C32       1.0  0.4891757333450855  0.1777092200093122  0.3101647383883659  1.0000
  C   C33       1.0  0.8572263626504864  0.7226645821312727  0.8619027572922064  1.0000
  C   C34       1.0  0.3572194340719221  0.7773378134179225  0.6380968101736144  1.0000
  C   C35       1.0  0.1427743689670891  0.2773356677061187  0.1380956700758276  1.0000
  C   C36       1.0  0.6427707971140109  0.22266378361486966  0.3619030605412945  1.0000
  C   C37       1.0  0.7389967526346766  0.6736967234020665  0.9140603621669572  1.0000
  C   C38       1.0  0.2389871989482018  0.8263056721471287  0.5859396825119418  1.0000
  C   C39       1.0  0.2610039789828988  0.3263035264353178  0.0859390196272258  1.0000
  C   C40       1.0  0.7610004071298206  0.17369525128796676  0.41406018234914654  1.0000
  C   C41       1.0  0.7723487486214182  0.5804162396797352  0.9153365717088704  1.0000
  C   C42       1.0  0.2723365698270399  0.9195854822717564  0.5846644215423566  1.0000
  C   C43       1.0  0.2276572332119784  0.4195840101576564  0.0846632872983903  1.0000
  C   C44       1.0  0.7276536613589002  0.0804161147610358  0.4153354491725523  1.0000
  N   N1        1.0  0.146625402269926  0.2704238816598376  0.8298032012320391  1.0000
  N   N2        1.0  0.6466244555247584  0.2295769168565585  0.6701969727319508  1.0000
  N   N3        1.0  0.8533805795634635  0.7295756945798502  0.1701961747083232  1.0000
  N   N4        1.0  0.3533789012007205  0.7704233329808261  0.3298038407014587  1.0000
  N   N5        1.0  0.042222235612023  0.1303613637595262  0.9148112487172569  1.0000
  N   N6        1.0  0.542223913974766  0.3696380875614622  0.5851893907521628  1.0000
  N   N7        1.0  0.9577784960055524  0.8696382124801543  0.0851890816492542  1.0000
  N   N8        1.0  0.4577820678586306  0.6303601414828179  0.414811405119778  1.0000
  N   N9        1.0  0.9744426810133291  0.4408959679315813  0.8619961938454851  1.0000
  N   N10       1.0  0.4744410026505861  0.0591048305848219  0.6380044573315828  1.0000
  N   N11       1.0  0.0255606757121498  0.5591036083081065  0.1380036593079552  1.0000
  N   N12       1.0  0.5255597289669822  0.9408954192525698  0.3619954016756779  1.0000
  Cl  Cl1       1.0  0.4005258392504558  0.9100203948672956  0.9353968544045869  1.0000
  Cl  Cl2       1.0  0.9005275176131988  0.589980653486492  0.5646046102058904  1.0000
  Cl  Cl3       1.0  0.5994748923671196  0.08998052856779279  0.0646025332434235  1.0000
  Cl  Cl4       1.0  0.0994784642201907  0.4100202699486033  0.43539907235979314  1.0000
  Cl  Cl5       1.0  0.2324113036355868  0.5295353634696411  0.7457252253130663  1.0000
  Cl  Cl6       1.0  0.7324103568904192  0.9704656848841466  0.7542748076581844  1.0000
  Cl  Cl7       1.0  0.7675946781978027  0.4704648863677505  0.2542741564811166  1.0000
  Cl  Cl8       1.0  0.2675877496192456  0.0295332177578302  0.24572456242835727  1.0000
  O   O1        1.0  0.670526063038281  0.3899261768244884  0.9507419845517974  1.0000
  O   O2        1.0  0.170524384675538  0.11007664248502637  0.5492572525475055  1.0000
  O   O3        1.0  0.329477293687205  0.6100733994151994  0.049256436962409104  1.0000
  O   O4        1.0  0.8294789720499409  0.8899249545477728  0.4507421409543255  1.0000
