data_image0
_chemical_formula_structural       Co2Ag2H68C52N4O16
_chemical_formula_sum              "Co2 Ag2 H68 C52 N4 O16"
_cell_length_a       11.84017357177374
_cell_length_b       11.84124227209394
_cell_length_c       12.615834456358918
_cell_angle_alpha    105.62231497052474
_cell_angle_beta     109.39668244740083
_cell_angle_gamma    111.06517682550327

_space_group_name_H-M_alt    "P 1"
_space_group_IT_number       1

loop_
  _space_group_symop_operation_xyz
  'x, y, z'

loop_
  _atom_site_type_symbol
  _atom_site_label
  _atom_site_symmetry_multiplicity
  _atom_site_fract_x
  _atom_site_fract_y
  _atom_site_fract_z
  _atom_site_occupancy
  Co  Co1       1.0  0.4534678881408993  0.45334277214043794  0.999993940976388  1.0000
  Co  Co2       1.0  0.1970217342019111  0.697240808860563  0.5000942698953492  1.0000
  Ag  Ag1       1.0  0.20143462544163526  0.662507408598735  0.7852395946811723  1.0000
  Ag  Ag2       1.0  0.8773763803876162  0.4163570362298754  0.21468923708824403  1.0000
  H   H1        1.0  0.2649261798061247  0.49756099119502295  0.3187298373301174  1.0000
  H   H2        1.0  0.17855463897788587  0.9459864064334981  0.6810137951072547  1.0000
  H   H3        1.0  0.1941092471433521  0.2919249180169956  0.35445314989310356  1.0000
  H   H4        1.0  0.9372507134273391  0.8396318444276787  0.6455009943214446  1.0000
  H   H5        1.0  0.243696474956721  0.11307715532069551  0.258897625992212  1.0000
  H   H6        1.0  0.854215053862127  0.984903400047223  0.7413122232387792  1.0000
  H   H7        1.0  0.36205148683795574  0.1401796413471885  0.13082216095597227  1.0000
  H   H8        1.0  0.009684355852847713  0.23135592471300012  0.8694744321148347  1.0000
  H   H9        1.0  0.3848369948868823  0.6388887892730751  0.2493956143029408  1.0000
  H   H10       1.0  0.38944471975053563  0.13525812594561876  0.7504237704736951  1.0000
  H   H11       1.0  0.4382765580430289  0.7609977249736134  0.14377827219896494  1.0000
  H   H12       1.0  0.6173927392459503  0.294426724017356  0.8562396356453589  1.0000
  H   H13       1.0  0.7020601475419139  0.7528617976282561  0.1760362792188487  1.0000
  H   H14       1.0  0.5765980584910508  0.5256840699352452  0.8237716673990647  1.0000
  H   H15       1.0  0.7989541543916372  0.9111949137941265  0.4002232274818736  1.0000
  H   H16       1.0  0.5108992105440109  0.3984348535400599  0.5996704382318254  1.0000
  H   H17       1.0  0.6557115982305601  0.7573842720218947  0.3562859824112719  1.0000
  H   H18       1.0  0.4010142442016401  0.2990384137945624  0.6435206757498688  1.0000
  H   H19       1.0  0.6361807218876476  0.9010946755334428  0.3674085988555048  1.0000
  H   H20       1.0  0.5337004273027971  0.2685091975839313  0.6324638743892449  1.0000
  H   H21       1.0  0.8103177763103773  0.0007626069216399998  0.2391778911993186  1.0000
  H   H22       1.0  0.7615897283197413  0.5710664692117858  0.7608575954882607  1.0000
  H   H23       1.0  0.6476858420230516  0.9912965851522915  0.2001075313245552  1.0000
  H   H24       1.0  0.7912970867506033  0.44761707254834693  0.8000402183211078  1.0000
  H   H25       1.0  0.6775560554150174  0.908245946383218  0.08135088947915398  1.0000
  H   H26       1.0  0.8267542176872168  0.5961694733981135  0.9186632449313235  1.0000
  H   H27       1.0  0.6824423793935779  0.5670143455677491  0.3026695414425475  1.0000
  H   H28       1.0  0.26431740806489046  0.3799188535595874  0.697136163450267  1.0000
  H   H29       1.0  0.5637228758712424  0.44050465498897734  0.39772066040403314  1.0000
  H   H30       1.0  0.042808519663338984  0.16599325190227177  0.6019897117201224  1.0000
  H   H31       1.0  0.7040956835519693  0.4160816497541758  0.5784463019659822  1.0000
  H   H32       1.0  0.8375230746355555  0.12556351069841298  0.4213199049067313  1.0000
  H   H33       1.0  0.9576017045809307  0.5303545964891329  0.6736131262196847  1.0000
  H   H34       1.0  0.8564024431096299  0.28398093916415945  0.3262972889349881  1.0000
  H   H35       1.0  0.8711382869136555  0.6865654284954629  0.2886562685527421  1.0000
  H   H36       1.0  0.3977516881253464  0.582588577814917  0.7112747609493296  1.0000
  H   H37       1.0  0.029536550380456123  0.6922053001423265  0.20503119832159902  1.0000
  H   H38       1.0  0.48722617198320967  0.8246836513479537  0.795109585434673  1.0000
  H   H39       1.0  0.17723771678657135  0.9199766663236276  0.2485980797032639  1.0000
  H   H40       1.0  0.6714072820547728  0.9285634364635841  0.7514162580256496  1.0000
  H   H41       1.0  0.015975555001304497  0.004336208272413  0.2543372395105123  1.0000
  H   H42       1.0  0.7498549619784638  0.7614956016990603  0.7457039550449376  1.0000
  H   H43       1.0  0.9534501155249087  0.9049940131333895  0.3251248277579889  1.0000
  H   H44       1.0  0.5796876715037697  0.6282117607043176  0.674931039190163  1.0000
  H   H45       1.0  0.9205750906516668  0.8251975893144702  0.1682389469234591  1.0000
  H   H46       1.0  0.6568452727213057  0.7522901886557989  0.8317921880940985  1.0000
  H   H47       1.0  0.2513903500929331  0.11894368782975556  0.44184766976772477  1.0000
  H   H48       1.0  0.6768538180430494  0.8093101700779567  0.5580969718236941  1.0000
  H   H49       1.0  0.3350979388851556  0.025649163218993496  0.47861992955455424  1.0000
  H   H50       1.0  0.5467901088871229  0.8562611303202985  0.5213845987702326  1.0000
  H   H51       1.0  0.1963528541054416  0.010675311399140196  0.5091467713399424  1.0000
  H   H52       1.0  0.5012336185920248  0.6869900609690305  0.4908677126742658  1.0000
  H   H53       1.0  0.1791731336008908  0.45097849480243457  0.874390695618956  1.0000
  H   H54       1.0  0.5767216696727359  0.3048382875564286  0.1255442526540235  1.0000
  H   H55       1.0  0.18818591746977378  0.6293060652748322  0.04625941155026677  1.0000
  H   H56       1.0  0.5829774235410595  0.1417637126482987  0.9535703452815197  1.0000
  H   H57       1.0  0.08295160135940456  0.4539447582013665  0.9970293856617399  1.0000
  H   H58       1.0  0.45694599503740096  0.0860565749853421  0.002953708684877655  1.0000
  H   H59       1.0  0.009305813057963592  0.544801122584616  0.9366204944437014  1.0000
  H   H60       1.0  0.6081577635290073  0.07268318995238589  0.06330232390333636  1.0000
  H   H61       1.0  0.28704395990221326  0.867848999108922  0.033454585986028414  1.0000
  H   H62       1.0  0.8346231970671596  0.253470975397498  0.9667376924791992  1.0000
  H   H63       1.0  0.11695216608350013  0.9525821799861018  0.993223954808421  1.0000
  H   H64       1.0  0.959512408749674  0.12353564093610457  0.007133182455810131  1.0000
  H   H65       1.0  0.07633261403761066  0.8025687347447742  0.01689008176978745  1.0000
  H   H66       1.0  0.7857916751563322  0.05945366742454889  0.9834036273165548  1.0000
  H   H67       1.0  0.015863104541025932  0.7902665910755785  0.8618697738446738  1.0000
  H   H68       1.0  0.9285264312426094  0.15404657843338038  0.13845644318547554  1.0000
  C   C1        1.0  0.3807896805610297  0.3330711214045365  0.15042323408426478  1.0000
  C   C2        1.0  0.1827437986729237  0.2303299820778051  0.8495240941579565  1.0000
  C   C3        1.0  0.35277183749760604  0.43527527514884656  0.205090224050238  1.0000
  C   C4        1.0  0.2301431038463377  0.1475466653418565  0.7947516751001372  1.0000
  C   C5        1.0  0.28538010070172243  0.4181656956328722  0.27809475918759563  1.0000
  C   C6        1.0  0.1399090308768862  0.007152672385060999  0.7217488754119117  1.0000
  C   C7        1.0  0.24588632056298818  0.3036614312753869  0.297919732898336  1.0000
  C   C8        1.0  0.0055933372830096785  0.9479416406545551  0.7020302272292297  1.0000
  C   C9        1.0  0.27398756489132126  0.20365497316377204  0.2443208299053835  1.0000
  C   C10       1.0  0.9593499412458255  0.029732005144509802  0.7557737769542071  1.0000
  C   C11       1.0  0.33967732476980217  0.21750963234621418  0.17198402456627082  1.0000
  C   C12       1.0  0.045673565154196176  0.16773480621962727  0.828140415390855  1.0000
  C   C13       1.0  0.39738989628288823  0.5595872683175287  0.19406687171541387  1.0000
  C   C14       1.0  0.36551561264969473  0.20315511549030416  0.8058075919323071  1.0000
  C   C15       1.0  0.49371858128233714  0.7117989978336751  0.11556263245950042  1.0000
  C   C16       1.0  0.5963303941325079  0.3780298266888522  0.8844237057007118  1.0000
  C   C17       1.0  0.45771068189578296  0.678237942891215  0.9791024724830916  1.0000
  C   C18       1.0  0.6992730418148128  0.4785702936655554  0.020869219120889654  1.0000
  C   C19       1.0  0.6514253852751751  0.80913441889588  0.201727970366491  1.0000
  C   C20       1.0  0.6073374558269932  0.44947064019385147  0.7981809983399726  1.0000
  C   C21       1.0  0.6872150395570243  0.846610010597409  0.33878089023268365  1.0000
  C   C22       1.0  0.5078021243893858  0.34814293476986785  0.6611134164181818  1.0000
  C   C23       1.0  0.6991881207328206  0.9340849029736518  0.1787459980519586  1.0000
  C   C24       1.0  0.7552879862797184  0.5203656748658217  0.8212572257013446  1.0000
  C   C25       1.0  0.967503421319506  0.6180957269669776  0.5453383984997514  1.0000
  C   C26       1.0  0.07243756950871479  0.4223635496927829  0.45472088602977573  1.0000
  C   C27       1.0  0.8861755995156526  0.6233638731728277  0.4358502609463456  1.0000
  C   C28       1.0  0.1872550553720984  0.45051669669266653  0.5641576152715116  1.0000
  C   C29       1.0  0.7415323083113563  0.5618028924760948  0.3866799543735055  1.0000
  C   C30       1.0  0.1749963416318039  0.354953253074946  0.6131871999844092  1.0000
  C   C31       1.0  0.6753359695711013  0.49026602582285517  0.4384137338316307  1.0000
  C   C32       1.0  0.051780838711756906  0.23697147529116344  0.5613869763612697  1.0000
  C   C33       1.0  0.7546282971383959  0.4784805317451344  0.5411058790484019  1.0000
  C   C34       1.0  0.9372250281132108  0.2135273245979405  0.45874190789287866  1.0000
  C   C35       1.0  0.8972111075251163  0.5423991598799843  0.594495719150167  1.0000
  C   C36       1.0  0.9476168934822907  0.30279379447673443  0.4054409417454392  1.0000
  C   C37       1.0  0.9430890755431702  0.6825621602474  0.36703421397536556  1.0000
  C   C38       1.0  0.3153259970688892  0.5762350763504713  0.6330104857858742  1.0000
  C   C39       1.0  0.11114864983114345  0.7670921326902868  0.30138038406650464  1.0000
  C   C40       1.0  0.46573545655873266  0.8099304012649143  0.6987611796620496  1.0000
  C   C41       1.0  0.24003403501425424  0.7565509523841313  0.31720064986369306  1.0000
  C   C42       1.0  0.4395471646360818  0.9230672795014954  0.6829901321536481  1.0000
  C   C43       1.0  0.1327742495654435  0.9071982772943058  0.31165286092248573  1.0000
  C   C44       1.0  0.5954600996504311  0.8210553930998684  0.68836760173955  1.0000
  C   C45       1.0  0.9976461335203124  0.9094577870009101  0.2613072045604594  1.0000
  C   C46       1.0  0.6479975527421827  0.7362501410448202  0.7387178361729878  1.0000
  C   C47       1.0  0.2352267179038208  0.022000720045625092  0.44270631710109126  1.0000
  C   C48       1.0  0.5790702665002527  0.7923209778455417  0.5572821896783536  1.0000
  C   C49       1.0  0.1015177910058469  0.5342857884247393  0.9662143550073522  1.0000
  C   C50       1.0  0.5680971163411499  0.13531152740895178  0.033679338211719215  1.0000
  C   C51       1.0  0.10147090868853335  0.8496719319396959  0.9577514607941919  1.0000
  C   C52       1.0  0.8920936215821483  0.1436722458545816  0.04255232304971914  1.0000
  N   N1        1.0  0.4500918987694931  0.583195476208516  0.12212059711542615  1.0000
  N   N2        1.0  0.4611472441374929  0.32779041021384353  0.8778460154624949  1.0000
  N   N3        1.0  0.06919231062104111  0.7238815755895304  0.3872094965188281  1.0000
  N   N4        1.0  0.33652181433195943  0.6822152960578549  0.6129400443556888  1.0000
  O   O1        1.0  0.4481023838605225  0.3423622456580802  0.08455459295519319  1.0000
  O   O2        1.0  0.2579479349173539  0.3635221188181815  0.9153687135496539  1.0000
  O   O3        1.0  0.4528097905481302  0.5683694328828892  0.9165486497888649  1.0000
  O   O4        1.0  0.6519185494397205  0.5360755700694141  0.08347478113474698  1.0000
  O   O5        1.0  0.4377720513689596  0.7556574241122717  0.9335727182804162  1.0000
  O   O6        1.0  0.8223252489348596  0.5043064568257734  0.06637378391344836  1.0000
  O   O7        1.0  0.10480901631451907  0.680316818781087  0.6014371757037293  1.0000
  O   O8        1.0  0.07847765888224258  0.5036971443497366  0.3987843166163855  1.0000
  O   O9        1.0  0.28176543409417576  0.7100617591359181  0.3961256911616004  1.0000
  O   O10       1.0  0.314181110296289  0.8859839469797848  0.603983373029834  1.0000
  O   O11       1.0  0.2976675382126999  0.7867690970577355  0.25472724189154394  1.0000
  O   O12       1.0  0.5323618726306876  0.04314694737541908  0.7455034867380231  1.0000
  O   O13       1.0  0.12634910161734333  0.49983069634260613  0.8609160928105196  1.0000
  O   O14       1.0  0.6390892008565386  0.26552993575405276  0.13890833964904192  1.0000
  O   O15       1.0  0.22155183795248942  0.8510913186013198  0.9520032150245824  1.0000
  O   O16       1.0  0.8994111126473924  0.26951760241265527  0.04818831123700547  1.0000
