data_image0
_chemical_formula_structural       Ag2H48C68N4O8F6
_chemical_formula_sum              "Ag2 H48 C68 N4 O8 F6"
_cell_length_a       10.356935433776643
_cell_length_b       13.194060712349287
_cell_length_c       14.439133641583583
_cell_angle_alpha    71.05172310008109
_cell_angle_beta     86.00075394251682
_cell_angle_gamma    75.49605802878678

_space_group_name_H-M_alt    "P 1"
_space_group_IT_number       1

loop_
  _space_group_symop_operation_xyz
  'x, y, z'

loop_
  _atom_site_type_symbol
  _atom_site_label
  _atom_site_symmetry_multiplicity
  _atom_site_fract_x
  _atom_site_fract_y
  _atom_site_fract_z
  _atom_site_occupancy
  Ag  Ag1       1.0  0.08292051881623047  0.09009751809480092  0.46520373999217657  1.0000
  Ag  Ag2       1.0  0.9170806739423153  0.9099004984427523  0.534794842046125  1.0000
  H   H1        1.0  0.9988199454088685  0.0626911972577844  0.6780011308862013  1.0000
  H   H2        1.0  0.0011795492129281116  0.9373092940337242  0.3219947240281941  1.0000
  H   H3        1.0  0.8008509621497379  0.1364565327610947  0.7694981486142326  1.0000
  H   H4        1.0  0.1991535910606572  0.8635431615979952  0.23050047769768872  1.0000
  H   H5        1.0  0.601835037690158  0.2704827922519967  0.6726881464369754  1.0000
  H   H6        1.0  0.39816879867691995  0.7295160694074808  0.3273107577803104  1.0000
  H   H7        1.0  0.8217575619217994  0.2597999914279328  0.41042479462524273  1.0000
  H   H8        1.0  0.17824144537298275  0.740198835426355  0.5895743424789401  1.0000
  H   H9        1.0  0.5597218372052452  0.32195385499118595  0.4145515668730368  1.0000
  H   H10       1.0  0.44027763309801315  0.6780466288015248  0.5854477542368954  1.0000
  H   H11       1.0  0.4921896494029453  0.37173822780113835  0.5137002246446372  1.0000
  H   H12       1.0  0.5078098412429881  0.628258943076723  0.48630145483284076  1.0000
  H   H13       1.0  0.3983405215228187  0.4487181807452388  0.3424725310849652  1.0000
  H   H14       1.0  0.6016599048674818  0.5512823070089964  0.6575281299258081  1.0000
  H   H15       1.0  0.2913438822554041  0.5832779159896049  0.1907029883256186  1.0000
  H   H16       1.0  0.7086592372683497  0.41672011297026745  0.8092961937970315  1.0000
  H   H17       1.0  0.2873163003260116  0.7509656596164405  0.047751137468317474  1.0000
  H   H18       1.0  0.7126868240614497  0.24903237084318858  0.9522473514152239  1.0000
  H   H19       1.0  0.3880252003205698  0.9053000482216615  0.9547314650312159  1.0000
  H   H20       1.0  0.6119749722348827  0.09470126377138402  0.04526965789067821  1.0000
  H   H21       1.0  0.6012980139929737  0.9211968628768119  0.013886110489281  1.0000
  H   H22       1.0  0.3987009389131727  0.0788052663940135  0.9861155209211105  1.0000
  H   H23       1.0  0.7106702697053464  0.785150742313071  0.16631770406845459  1.0000
  H   H24       1.0  0.28933041051979547  0.21484892120234628  0.8336824950311978  1.0000
  H   H25       1.0  0.7934368784555444  0.45367826560453756  0.25091104892392474  1.0000
  H   H26       1.0  0.20656235349183313  0.5463197280123848  0.74909178570379  1.0000
  H   H27       1.0  0.007678277799200788  0.3220065353712727  0.2526761379249649  1.0000
  H   H28       1.0  0.9923199931974265  0.6779914527843686  0.7473260500410177  1.0000
  H   H29       1.0  0.21246091892911778  0.3388662970890619  0.3243767917706109  1.0000
  H   H30       1.0  0.7875390395889993  0.6611325322269863  0.6756243784735219  1.0000
  H   H31       1.0  0.19474011925071716  0.4899064113955517  0.39704308772681435  1.0000
  H   H32       1.0  0.805259834403685  0.5100924164207399  0.6029587757564201  1.0000
  H   H33       1.0  0.061451001152562336  0.64788565903374  0.4405704123230834  1.0000
  H   H34       1.0  0.9385499085888892  0.35211317274406884  0.559432791060992  1.0000
  H   H35       1.0  0.8464535848196417  0.7784726363181559  0.4439496841411668  1.0000
  H   H36       1.0  0.15354516864029927  0.2215270147749421  0.5560499148741371  1.0000
  H   H37       1.0  0.6857713551532498  0.9067174416811167  0.38042662774108044  1.0000
  H   H38       1.0  0.31423080828346167  0.09328058331723099  0.6195712144807288  1.0000
  H   H39       1.0  0.5968352086409467  0.8414657703840829  0.48402520094033724  1.0000
  H   H40       1.0  0.403164271389734  0.1585347164081412  0.5159727336913845  1.0000
  H   H41       1.0  0.5439511648388089  0.9752610294275853  0.20989665533195986  1.0000
  H   H42       1.0  0.456050709829256  0.0247411282251448  0.790101370150758  1.0000
  H   H43       1.0  0.3318359156658063  0.11330473247688388  0.1370323279902905  1.0000
  H   H44       1.0  0.6681647645593429  0.8866949310385335  0.8629678711093618  1.0000
  H   H45       1.0  0.14532290882271331  0.1550883366703673  0.2498688891417302  1.0000
  H   H46       1.0  0.8546780301009843  0.8449105041059963  0.7501301548076923  1.0000
  H   H47       1.0  0.37147028595383347  0.9492137897179017  0.49532125161849905  1.0000
  H   H48       1.0  0.6285325845987798  0.050785064980544796  0.5046776991761632  1.0000
  C   C1        1.0  0.19069944353832818  0.8785807273457917  0.6849884034121843  1.0000
  C   C2        1.0  0.8092939780433354  0.12142053891950158  0.3150116590731499  1.0000
  C   C3        1.0  0.3127486246215056  0.7939966570048326  0.7481802173994224  1.0000
  C   C4        1.0  0.6872393271223699  0.20601282026716916  0.2518294566030193  1.0000
  C   C5        1.0  0.9119451643306249  0.1246342358879744  0.6402019278085334  1.0000
  C   C6        1.0  0.08805456953489708  0.8753654266654392  0.35979554491206045  1.0000
  C   C7        1.0  0.8015611517636998  0.1649149988697545  0.6897496601909268  1.0000
  C   C8        1.0  0.19844001092474872  0.8350863275831273  0.3102479499580466  1.0000
  C   C9        1.0  0.691574339025827  0.24048968395291576  0.6361237589470504  1.0000
  C   C10       1.0  0.3084258578481636  0.7595116355389206  0.3638738977793069  1.0000
  C   C11       1.0  0.6961984523749505  0.27572862726895403  0.5340436609884165  1.0000
  C   C12       1.0  0.30380514961210986  0.7242710646283752  0.4659529321835549  1.0000
  C   C13       1.0  0.811697867237896  0.2331697392954624  0.48980705882398473  1.0000
  C   C14       1.0  0.18830476407099894  0.7668299441410652  0.5101902741644723  1.0000
  C   C15       1.0  0.5819920190695669  0.3557538612170531  0.47036527684718277  1.0000
  C   C16       1.0  0.41800891499042353  0.6442449780595538  0.5296344603413488  1.0000
  C   C17       1.0  0.561630705149355  0.5269692625226908  0.3372560324659942  1.0000
  C   C18       1.0  0.4383687602901958  0.473031219770263  0.6627439818830537  1.0000
  C   C19       1.0  0.4436119935916165  0.5158514473865523  0.30175136025010113  1.0000
  C   C20       1.0  0.5563877256827822  0.48414821066758407  0.6982481921878191  1.0000
  C   C21       1.0  0.383853883469385  0.5913541386818721  0.21627516071801983  1.0000
  C   C22       1.0  0.6161472995617459  0.40864387485616055  0.7837248077984995  1.0000
  C   C23       1.0  0.439425402028931  0.680420380841596  0.16184458351749953  1.0000
  C   C24       1.0  0.5605770152426288  0.319576819917934  0.8381527967931887  1.0000
  C   C25       1.0  0.37883683125192386  0.7598328762760787  0.07412879876677886  1.0000
  C   C26       1.0  0.6211660393006893  0.2401659784223611  0.9258701520278833  1.0000
  C   C27       1.0  0.43528282077255637  0.8455264015994998  0.022310437176386734  1.0000
  C   C28       1.0  0.5647176104814448  0.15447408765449208  0.9776895305952849  1.0000
  C   C29       1.0  0.5560867695789257  0.8541019590844812  0.05583223851787984  1.0000
  C   C30       1.0  0.44391705219702954  0.1458968980757192  0.9441687454167322  1.0000
  C   C31       1.0  0.6172444944556118  0.7786712417192874  0.1409159324160071  1.0000
  C   C32       1.0  0.3827576495262689  0.2213267772800265  0.8590846827622372  1.0000
  C   C33       1.0  0.5604315522581941  0.6906185253814595  0.19723123091850442  1.0000
  C   C34       1.0  0.43956817187991254  0.3093811341724404  0.8027676282803142  1.0000
  C   C35       1.0  0.6203289958122012  0.6134221237227776  0.28668614867411424  1.0000
  C   C36       1.0  0.37967244105377046  0.3865750655764373  0.7133133579312768  1.0000
  C   C37       1.0  0.7431729225080799  0.6235393711159032  0.32661469585008973  1.0000
  C   C38       1.0  0.25682729470859295  0.37645863546109126  0.6733853192438062  1.0000
  C   C39       1.0  0.8679120658326623  0.5481162519253218  0.32408223688778287  1.0000
  C   C40       1.0  0.13208595619282443  0.4518825619688869  0.6759197197502118  1.0000
  C   C41       1.0  0.881065115617069  0.46188348403183704  0.2827754107816176  1.0000
  C   C42       1.0  0.11893606741406154  0.5381145295061955  0.7172245577349018  1.0000
  C   C43       1.0  0.0023357404716719834  0.38849904566630755  0.2831381039976506  1.0000
  C   C44       1.0  0.9976678615153883  0.6115006462310147  0.7168584891743208  1.0000
  C   C45       1.0  0.11743056924149899  0.3981019623111023  0.3239789450969539  1.0000
  C   C46       1.0  0.8825696382477587  0.6018960412663786  0.6760224564751596  1.0000
  C   C47       1.0  0.10825426914769308  0.4816099704490995  0.3636596888095056  1.0000
  C   C48       1.0  0.8917454403992832  0.5183896846055163  0.636341250106632  1.0000
  C   C49       1.0  0.9848938149025056  0.5581258920006744  0.3646950121416808  1.0000
  C   C50       1.0  0.015104211986695787  0.44187292339329787  0.6353062512572052  1.0000
  C   C51       1.0  0.9732876236203082  0.6427682130543673  0.40694047163800207  1.0000
  C   C52       1.0  0.026714256799309093  0.3572306271842435  0.5930619919295809  1.0000
  C   C53       1.0  0.8527293895686371  0.7157114791986954  0.40887284622465364  1.0000
  C   C54       1.0  0.1472717885987791  0.2842865328395732  0.5911278155309674  1.0000
  C   C55       1.0  0.7375098438056109  0.706375927877886  0.3682825690204865  1.0000
  C   C56       1.0  0.2624901244399282  0.29362290443767586  0.6317172147454287  1.0000
  C   C57       1.0  0.6008915353736342  0.8684597711187365  0.4033085019308018  1.0000
  C   C58       1.0  0.39910940841377135  0.1315390711573912  0.596689848779512  1.0000
  C   C59       1.0  0.47518565713395583  0.951450215067524  0.35832587351332995  1.0000
  C   C60       1.0  0.5248176861545488  0.048550299568859076  0.6416718748088784  1.0000
  C   C61       1.0  0.4624461154944014  0.9988944124429294  0.2565123621828107  1.0000
  C   C62       1.0  0.5375552466402594  0.0011093921876720984  0.7434872803612579  1.0000
  C   C63       1.0  0.34472341204128293  0.07436134813617197  0.2159188258054598  1.0000
  C   C64       1.0  0.655274584777828  0.9256407771731289  0.7840814657040979  1.0000
  C   C65       1.0  0.24159371893599507  0.10004662036831746  0.2778497218663318  1.0000
  C   C66       1.0  0.7584050345239387  0.8999530307247808  0.722149877148972  1.0000
  C   C67       1.0  0.3683053109367762  0.9831595740650838  0.41543439452229347  1.0000
  C   C68       1.0  0.6316951349083553  0.016840919688185397  0.5845634935320447  1.0000
  N   N1        1.0  0.9164404947196798  0.15818393848348214  0.5414321807837084  1.0000
  N   N2        1.0  0.0835604442040178  0.8418149022928816  0.4585668631657142  1.0000
  N   N3        1.0  0.253495377393861  0.0556475525984581  0.37604169446343866  1.0000
  N   N4        1.0  0.7465065273442942  0.9443512951389438  0.6239573029086073  1.0000
  O   O1        1.0  0.22068612662631176  0.9622811287020808  0.624045174534956  1.0000
  O   O2        1.0  0.7793263153778085  0.03771203300959059  0.3759404649153026  1.0000
  O   O3        1.0  0.08031615387705665  0.8540865409598978  0.7037981024134224  1.0000
  O   O4        1.0  0.9196830104028987  0.14592802772956046  0.2961880877028094  1.0000
  O   O5        1.0  0.623754271010391  0.45654489975197515  0.4230448603346062  1.0000
  O   O6        1.0  0.3762447119658532  0.5434539196035145  0.5769577429651207  1.0000
  O   O7        1.0  0.6137462640408058  0.7755883090004687  0.3685350533325291  1.0000
  O   O8        1.0  0.3862537090684341  0.22441052481485704  0.63146403719427  1.0000
  F   F1        1.0  0.3317868303634269  0.823674829433692  0.8279404883079949  1.0000
  F   F2        1.0  0.6681983866737935  0.17634705137624002  0.17206081652350494  1.0000
  F   F3        1.0  0.29786781880545016  0.6885080418400732  0.7826235319084134  1.0000
  F   F4        1.0  0.7021025860001089  0.3115078984689531  0.2173995947294713  1.0000
  F   F5        1.0  0.43008959371543637  0.7899705195999901  0.6970825740405572  1.0000
  F   F6        1.0  0.5699033635454142  0.21001581257159777  0.3029385229740457  1.0000
