data_image0
_chemical_formula_structural       Cu8H84C88N20O40
_chemical_formula_sum              "Cu8 H84 C88 N20 O40"
_cell_length_a       16.298030316001935
_cell_length_b       16.298008803149038
_cell_length_c       18.447311004803417
_cell_angle_alpha    100.56418363219493
_cell_angle_beta     100.56398496024704
_cell_angle_gamma    91.16694194615356

_space_group_name_H-M_alt    "P 1"
_space_group_IT_number       1

loop_
  _space_group_symop_operation_xyz
  'x, y, z'

loop_
  _atom_site_type_symbol
  _atom_site_label
  _atom_site_symmetry_multiplicity
  _atom_site_fract_x
  _atom_site_fract_y
  _atom_site_fract_z
  _atom_site_occupancy
  Cu  Cu1       1.0  0.4273642572298613  0.8729952525002176  0.558049809679126  1.0000
  Cu  Cu2       1.0  0.4163278837958869  0.025303489521356  0.46103483191230776  1.0000
  Cu  Cu3       1.0  0.127004100032174  0.5726328547787106  0.9419474155064408  1.0000
  Cu  Cu4       1.0  0.9746964498037016  0.5836718643094585  0.03896749877874581  1.0000
  Cu  Cu5       1.0  0.5726349380529073  0.1270040125200538  0.44194917992935256  1.0000
  Cu  Cu6       1.0  0.5836725651314083  0.9746977073373487  0.5389668474322136  1.0000
  Cu  Cu7       1.0  0.8729969693085237  0.427366505108253  0.05805243845433233  1.0000
  Cu  Cu8       1.0  0.0253039905317465  0.41632745963916307  0.9610338726066202  1.0000
  H   H1        1.0  0.5296317453785092  0.1285962647374177  0.5591469632872973  1.0000
  H   H2        1.0  0.3670608212875948  0.0677079358470039  0.768334002904183  1.0000
  H   H3        1.0  0.4776705851152984  0.0593234689798692  0.775763060987835  1.0000
  H   H4        1.0  0.3656258751470106  0.15143548890658562  0.6663915671457659  1.0000
  H   H5        1.0  0.4760412635637863  0.1447716022858785  0.6755530375295109  1.0000
  H   H6        1.0  0.6519493786606106  0.2628050899777179  0.942534006826385  1.0000
  H   H7        1.0  0.6112610154057877  0.3580751003578868  0.982125549905618  1.0000
  H   H8        1.0  0.6204135313363396  0.41492750950043694  0.865435148680838  1.0000
  H   H9        1.0  0.6629913812120662  0.3212975832862242  0.8273981537072076  1.0000
  H   H10       1.0  0.2766045863683786  0.3488319779999216  0.8156274585829237  1.0000
  H   H11       1.0  0.34169735206481994  0.42153135835752664  0.8889656587550192  1.0000
  H   H12       1.0  0.3021638361054286  0.3480247003233501  0.9849875348721541  1.0000
  H   H13       1.0  0.2434284321290434  0.2689749110393293  0.9143121091978799  1.0000
  H   H14       1.0  0.29790026330331904  0.9271094096791828  0.6521616049903757  1.0000
  H   H15       1.0  0.22749569580953732  0.8653610660847875  0.7404046416881799  1.0000
  H   H16       1.0  0.3665864023569442  0.6446991372682473  0.6920624819165012  1.0000
  H   H17       1.0  0.43375620813362303  0.7183623501497891  0.6087382713743992  1.0000
  H   H18       1.0  0.2583655993868562  0.9394810985793569  0.46417600626932654  1.0000
  H   H19       1.0  0.15129278110715214  0.8405361634686059  0.37246546564675503  1.0000
  H   H20       1.0  0.2928278093596149  0.8707361180869242  0.20097266909431266  1.0000
  H   H21       1.0  0.39194899294770386  0.9680370568650148  0.29929217895498544  1.0000
  H   H22       1.0  0.8714048160587637  0.4703694785964388  0.940852746632693  1.0000
  H   H23       1.0  0.9322925742200284  0.63293751879651  0.7316663676554074  1.0000
  H   H24       1.0  0.9406769847595556  0.5223282660116482  0.724237760016436  1.0000
  H   H25       1.0  0.8485640726803539  0.6343745920091663  0.8336085730902313  1.0000
  H   H26       1.0  0.8552273552707632  0.523958820534787  0.824446777747376  1.0000
  H   H27       1.0  0.7371954077505978  0.34805086502299076  0.5574665479766239  1.0000
  H   H28       1.0  0.6419250909839461  0.3887393423653336  0.5178746210799972  1.0000
  H   H29       1.0  0.5850730037976819  0.3795864267588911  0.6345645340668258  1.0000
  H   H30       1.0  0.678702685542639  0.3370103509902763  0.6726026734892159  1.0000
  H   H31       1.0  0.6511714549404533  0.7233973897892697  0.6843745041015268  1.0000
  H   H32       1.0  0.5784701943484694  0.6583051912261125  0.6110355575363826  1.0000
  H   H33       1.0  0.6519768790079539  0.6978358906900722  0.5150142615410687  1.0000
  H   H34       1.0  0.7310256552604388  0.7565736392602248  0.585688250552579  1.0000
  H   H35       1.0  0.0728919765886715  0.7020991197508053  0.8478382072492394  1.0000
  H   H36       1.0  0.1346391597023242  0.7725037451092263  0.7595950021604666  1.0000
  H   H37       1.0  0.35530126412192703  0.6334136308186374  0.807936785541628  1.0000
  H   H38       1.0  0.28163780196593535  0.5662438471078346  0.8912604258707689  1.0000
  H   H39       1.0  0.060521089918403  0.7416362534212411  0.03582528081001612  1.0000
  H   H40       1.0  0.1594653129152235  0.8487078309879477  0.12753822357657188  1.0000
  H   H41       1.0  0.1292630665479635  0.7071698094009307  0.29902891553127386  1.0000
  H   H42       1.0  0.0319628341326279  0.6080492114753041  0.20070581999807052  1.0000
  H   H43       1.0  0.4703680765903329  0.871403655345226  0.4408527782000675  1.0000
  H   H44       1.0  0.632938999385466  0.9322919829408036  0.23166628024578986  1.0000
  H   H45       1.0  0.5223292342619743  0.9406764485131023  0.2242377638247391  1.0000
  H   H46       1.0  0.6343739397981452  0.8485631812744997  0.3336085106980988  1.0000
  H   H47       1.0  0.523958558405056  0.8552283177967652  0.32444670395785385  1.0000
  H   H48       1.0  0.3480516935440435  0.7371948942126069  0.05746594978743504  1.0000
  H   H49       1.0  0.3887394329767417  0.6419248530734336  0.017873757482370016  1.0000
  H   H50       1.0  0.37958691991013893  0.5850730682342513  0.1345642613601967  1.0000
  H   H51       1.0  0.3370090658746747  0.6787023688502601  0.17260169534338846  1.0000
  H   H52       1.0  0.7233964915641666  0.6511692547971322  0.18437270333700445  1.0000
  H   H53       1.0  0.6583030991816585  0.5784692193771547  0.11103375128602272  1.0000
  H   H54       1.0  0.6978366096855311  0.6519752505182979  0.015012855841050077  1.0000
  H   H55       1.0  0.7565726400756105  0.7310250731510023  0.08568784741594028  1.0000
  H   H56       1.0  0.7020995656892028  0.07289176030501922  0.347837800140482  1.0000
  H   H57       1.0  0.7725041248635237  0.13463885270301998  0.259595641461793  1.0000
  H   H58       1.0  0.6334134170203284  0.3553007802247308  0.3079383428960796  1.0000
  H   H59       1.0  0.5662436166991681  0.2816381942362228  0.3912615727660196  1.0000
  H   H60       1.0  0.7416342296056655  0.060520071404845104  0.5358233988615383  1.0000
  H   H61       1.0  0.8487070437256392  0.15946438091739878  0.6275343784936567  1.0000
  H   H62       1.0  0.7071707639415763  0.1292643608965633  0.7990275015822519  1.0000
  H   H63       1.0  0.6080514541390373  0.0319628952714694  0.7007076700956105  1.0000
  H   H64       1.0  0.1285950059100713  0.5296304414862048  0.05914699485467168  1.0000
  H   H65       1.0  0.0677072422932952  0.3670617743931075  0.2683343545041197  1.0000
  H   H66       1.0  0.0593228330495492  0.4776710284727984  0.2757624204804828  1.0000
  H   H67       1.0  0.15143699979667963  0.3656260138948539  0.16639256950185202  1.0000
  H   H68       1.0  0.14477308636046624  0.4760405047086635  0.1755540519753822  1.0000
  H   H69       1.0  0.26280441708219376  0.6519496793630211  0.44253329616379483  1.0000
  H   H70       1.0  0.3580747338488379  0.6112612020206711  0.48212522306042166  1.0000
  H   H71       1.0  0.41492681687537214  0.6204134920289164  0.36543574908314724  1.0000
  H   H72       1.0  0.3212971348580354  0.6629889460838427  0.32739642368249383  1.0000
  H   H73       1.0  0.3488289965784049  0.2766038096591076  0.31562609191777113  1.0000
  H   H74       1.0  0.42152900407062793  0.3416953198112224  0.38896472070341304  1.0000
  H   H75       1.0  0.3480223165471942  0.30216399604389477  0.48498591404568003  1.0000
  H   H76       1.0  0.2689735444544469  0.24342687307193958  0.4143114860246087  1.0000
  H   H77       1.0  0.9271078469483316  0.2979014233403703  0.15216217855378747  1.0000
  H   H78       1.0  0.86536066513046  0.2274967992767785  0.24040484197995235  1.0000
  H   H79       1.0  0.6446991813966464  0.36658569830932203  0.19206241919330586  1.0000
  H   H80       1.0  0.7183626464165941  0.43375610632348577  0.108738881517219  1.0000
  H   H81       1.0  0.9394787336186  0.25836428966992736  0.9641751049930035  1.0000
  H   H82       1.0  0.8405338883678227  0.1512933043527411  0.8724621573162779  1.0000
  H   H83       1.0  0.870736129279571  0.292830699046732  0.7009724460337381  1.0000
  H   H84       1.0  0.9680376142499015  0.39195074195601626  0.7992934873899104  1.0000
  C   C1        1.0  0.37014081158069695  0.2247906189072921  0.8212901268345547  1.0000
  C   C2        1.0  0.4663184025812371  0.33700727661681634  0.9027766889604436  1.0000
  C   C3        1.0  0.52136555424876  0.20425539756676156  0.8485635485507501  1.0000
  C   C4        1.0  0.42506630579610777  0.0975566556595453  0.7609114791627576  1.0000
  C   C5        1.0  0.4179635446619088  0.11242032273920438  0.6805082910644202  1.0000
  C   C6        1.0  0.4049620491483097  0.030735652534943404  0.6242399972989361  1.0000
  C   C7        1.0  0.6163571224103137  0.3162010566981905  0.9297422439041725  1.0000
  C   C8        1.0  0.6579715064822411  0.36307305408558943  0.880381687461771  1.0000
  C   C9        1.0  0.7452868130249968  0.3994411148353194  0.9189975838383262  1.0000
  C   C10       1.0  0.3156992237637937  0.3570870984064669  0.8717744370575957  1.0000
  C   C11       1.0  0.2643533587183242  0.3353335149262335  0.9277169801792058  1.0000
  C   C12       1.0  0.1885033602203166  0.3885634924948889  0.9283161593821208  1.0000
  C   C13       1.0  0.31159607759934727  0.8650355171525986  0.6636900081890007  1.0000
  C   C14       1.0  0.2719756343298699  0.82947116606325  0.7119567790501193  1.0000
  C   C15       1.0  0.29106825221515464  0.7490016482609434  0.724426315029362  1.0000
  C   C16       1.0  0.3500479736566646  0.7079101079773692  0.6862281776938063  1.0000
  C   C17       1.0  0.3870859307927789  0.7474830209486713  0.6388762295666837  1.0000
  C   C18       1.0  0.2619337787048225  0.9223313335979029  0.4048940493986991  1.0000
  C   C19       1.0  0.203527152497081  0.8673254896170517  0.3535521890575169  1.0000
  C   C20       1.0  0.21204427521244906  0.8476328960815351  0.2780263288107463  1.0000
  C   C21       1.0  0.2803819617510257  0.8854016573065309  0.2577899854760163  1.0000
  C   C22       1.0  0.3367502198836974  0.9392547561303106  0.3123076508410563  1.0000
  C   C23       1.0  0.7752106548965118  0.6298587409926385  0.6787107821137894  1.0000
  C   C24       1.0  0.6629930229831872  0.533682441732168  0.5972248364335258  1.0000
  C   C25       1.0  0.7957436862670593  0.47863511501223144  0.6514364029335057  1.0000
  C   C26       1.0  0.9024434851856  0.5749331867408642  0.7390884382122139  1.0000
  C   C27       1.0  0.8875792950714398  0.5820362973247697  0.8194921706424125  1.0000
  C   C28       1.0  0.9692624985782246  0.5950390487781263  0.8757608761459466  1.0000
  C   C29       1.0  0.683799438140376  0.3836435955137886  0.5702579701537759  1.0000
  C   C30       1.0  0.6369262926916051  0.3420288532773623  0.6196182874003284  1.0000
  C   C31       1.0  0.6005611365409678  0.2547138448060906  0.5810017599488616  1.0000
  C   C32       1.0  0.6429145217051513  0.6843017106869951  0.6282259311937395  1.0000
  C   C33       1.0  0.6646662729880646  0.7356470211108643  0.5722830387056419  1.0000
  C   C34       1.0  0.6114357075737686  0.811495491174  0.5716831511741063  1.0000
  C   C35       1.0  0.1349644013747451  0.6884039095992307  0.8363100990438639  1.0000
  C   C36       1.0  0.1705273864439009  0.7280231974988282  0.7880429211510105  1.0000
  C   C37       1.0  0.2509989986122322  0.7089307187006567  0.7755725276120558  1.0000
  C   C38       1.0  0.2920892783807503  0.6499531632009832  0.8137712155741568  1.0000
  C   C39       1.0  0.2525174435143996  0.6129148472817507  0.8611227428875949  1.0000
  C   C40       1.0  0.07766939256271141  0.738067717309292  0.09510853727808675  1.0000
  C   C41       1.0  0.13267427017763825  0.7964724276340008  0.1464499306080144  1.0000
  C   C42       1.0  0.1523664163154592  0.7879559423158327  0.22197686675774267  1.0000
  C   C43       1.0  0.11459644834251753  0.7196186458523356  0.24221032332813056  1.0000
  C   C44       1.0  0.06074653163884851  0.6632501263380418  0.1876936745937243  1.0000
  C   C45       1.0  0.6298590090923567  0.7752092998805152  0.1787101563154181  1.0000
  C   C46       1.0  0.5336820403457737  0.6629920499214705  0.09722359909970635  1.0000
  C   C47       1.0  0.4786342677200751  0.795744522515882  0.15143619293661462  1.0000
  C   C48       1.0  0.5749341371309031  0.9024426708787485  0.23908880889739248  1.0000
  C   C49       1.0  0.5820356480292901  0.8875789396914014  0.31949178186926736  1.0000
  C   C50       1.0  0.5950377699565835  0.9692636432443392  0.3757596415353818  1.0000
  C   C51       1.0  0.38364332754038344  0.6837995197416548  0.07025770779947045  1.0000
  C   C52       1.0  0.3420276903686955  0.636926833943214  0.11961794646236976  1.0000
  C   C53       1.0  0.2547123892814582  0.6005594000865172  0.08100106941364522  1.0000
  C   C54       1.0  0.6843012233229473  0.6429128537300174  0.12822541199300028  1.0000
  C   C55       1.0  0.7356470842086864  0.6646658116120533  0.07228330788094449  1.0000
  C   C56       1.0  0.8114958270153636  0.6114351430426836  0.0716848942237363  1.0000
  C   C57       1.0  0.6884031179558007  0.13496436958136832  0.3363101673977411  1.0000
  C   C58       1.0  0.7280229303794741  0.17052744001014733  0.2880430836672971  1.0000
  C   C59       1.0  0.7089309474997307  0.25099886407122096  0.27557342154782566  1.0000
  C   C60       1.0  0.6499524721343022  0.29208984286428563  0.31377221301939073  1.0000
  C   C61       1.0  0.6129145134300202  0.252516306884452  0.36112351683085825  1.0000
  C   C62       1.0  0.7380660448321806  0.07766920949326561  0.595106336404328  1.0000
  C   C63       1.0  0.7964720485135858  0.13267502400994863  0.6464470058570626  1.0000
  C   C64       1.0  0.7879555498927219  0.1523682700181652  0.7219747013079356  1.0000
  C   C65       1.0  0.7196178586496486  0.1145976397675881  0.7422091116956935  1.0000
  C   C66       1.0  0.6632496007893566  0.06074516265749711  0.6876926323089168  1.0000
  C   C67       1.0  0.2247891631849726  0.3701411752055037  0.3212905843613996  1.0000
  C   C68       1.0  0.3370055516137924  0.4663180385461557  0.4027747925804377  1.0000
  C   C69       1.0  0.20425613440599483  0.521364803775576  0.3485638802164673  1.0000
  C   C70       1.0  0.097555710369555  0.4250666999931028  0.26091173737452783  1.0000
  C   C71       1.0  0.1124217745416445  0.4179636842758895  0.18050886929662374  1.0000
  C   C72       1.0  0.030737324958785506  0.4049614943130422  0.12423950965708033  1.0000
  C   C73       1.0  0.3161997615745094  0.6163569168183756  0.4297417664234117  1.0000
  C   C74       1.0  0.36307290545511256  0.6579710360462769  0.3803808048612041  1.0000
  C   C75       1.0  0.3994386867236558  0.7452860765713892  0.41899743987589494  1.0000
  C   C76       1.0  0.35708592694975755  0.315698864458021  0.37177456217251154  1.0000
  C   C77       1.0  0.33533292543103954  0.26435348992647084  0.42771723953415375  1.0000
  C   C78       1.0  0.38856474080876074  0.1885044622573204  0.4283161562138815  1.0000
  C   C79       1.0  0.8650354234580392  0.311596634786774  0.163689745096555  1.0000
  C   C80       1.0  0.8294724383888905  0.27197734688718367  0.21195692298940838  1.0000
  C   C81       1.0  0.749001445610567  0.2910686091324663  0.2244272187854862  1.0000
  C   C82       1.0  0.7079092975120104  0.35004731837217656  0.18622787177719866  1.0000
  C   C83       1.0  0.7474830035723486  0.38708510485474074  0.13887710616300103  1.0000
  C   C84       1.0  0.9223304364298103  0.2619334526749099  0.904890867852771  1.0000
  C   C85       1.0  0.867324931105408  0.2035287077066954  0.8535504502848354  1.0000
  C   C86       1.0  0.8476315318678331  0.21204450461381438  0.7780231963555977  1.0000
  C   C87       1.0  0.8854027599642151  0.2803837393899187  0.7577897212082122  1.0000
  C   C88       1.0  0.9392532963302784  0.3367516640650194  0.8123074581780045  1.0000
  N   N1        1.0  0.43954110063427987  0.1773761267689906  0.8144680746706002  1.0000
  N   N2        1.0  0.5311791989165684  0.2838172812634525  0.8929880721209715  1.0000
  N   N3        1.0  0.386851483415775  0.3039444530976921  0.8660535955904224  1.0000
  N   N4        1.0  0.36831722454095944  0.82483620748571  0.6280095666112473  1.0000
  N   N5        1.0  0.3275631875788036  0.9572862995526706  0.3844873150383137  1.0000
  N   N6        1.0  0.8226227678680544  0.5604589208894808  0.6855318165084228  1.0000
  N   N7        1.0  0.7161832728147104  0.4688215201388175  0.607012767584493  1.0000
  N   N8        1.0  0.6960568703327753  0.6131499533599012  0.6339477170275744  1.0000
  N   N9        1.0  0.17516534786462756  0.6316826130699978  0.8719906487836225  1.0000
  N   N10       1.0  0.0427134500359756  0.6724366624760023  0.11551371540841161  1.0000
  N   N11       1.0  0.5604593435885192  0.8226232010641324  0.18553167172694168  1.0000
  N   N12       1.0  0.4688206217564855  0.716182637524355  0.10701221102900153  1.0000
  N   N13       1.0  0.613148340121235  0.6960560899934835  0.1339467902125976  1.0000
  N   N14       1.0  0.631681980901824  0.1751655534531835  0.3719903752720484  1.0000
  N   N15       1.0  0.6724366343900386  0.04271362052997321  0.6155124264490511  1.0000
  N   N16       1.0  0.1773751803152379  0.4395415260401663  0.3144682466049105  1.0000
  N   N17       1.0  0.2838159256043937  0.5311789908985104  0.3929875106553027  1.0000
  N   N18       1.0  0.3039423309502781  0.3868511819807949  0.3660526638652756  1.0000
  N   N19       1.0  0.8248351062458072  0.3683185889680445  0.12800886391046626  1.0000
  N   N20       1.0  0.9572869944592027  0.3275632870708165  0.8844872169673934  1.0000
  O   O1        1.0  0.2990980622648891  0.19846453395851427  0.7894515883732609  1.0000
  O   O2        1.0  0.4788910857400668  0.40768840988867794  0.9409843499832038  1.0000
  O   O3        1.0  0.5809954173818427  0.1605612215896386  0.8404146085641031  1.0000
  O   O4        1.0  0.4612632145004838  0.9770705914547333  0.6358114793745174  1.0000
  O   O5        1.0  0.34312856957134846  0.0173195486547257  0.5708706719531875  1.0000
  O   O6        1.0  0.7732621331034082  0.37735219272269654  0.9820174657487898  1.0000
  O   O7        1.0  0.7833285248985078  0.4471166315061765  0.8879481136095109  1.0000
  O   O8        1.0  0.189873082740398  0.45549340283190526  0.9036747148584825  1.0000
  O   O9        1.0  0.12897963752870822  0.35917789525903043  0.9549222740778945  1.0000
  O   O10       1.0  0.5254036348497381  0.07740435046565611  0.5168579843393317  1.0000
  O   O11       1.0  0.8015375185378134  0.7009034225192465  0.7105492846073815  1.0000
  O   O12       1.0  0.5923121345292444  0.5211104200254865  0.5590168627559038  1.0000
  O   O13       1.0  0.8394381073412519  0.4190035649087776  0.6595855048052642  1.0000
  O   O14       1.0  0.0229284928447484  0.5387368957995234  0.8641884589448665  1.0000
  O   O15       1.0  0.9826784901035311  0.656873067014246  0.9291281704930444  1.0000
  O   O16       1.0  0.6226500566276841  0.2267391340454665  0.5179824496551717  1.0000
  O   O17       1.0  0.5528840619781051  0.2166705746932109  0.6120512756714547  1.0000
  O   O18       1.0  0.5445041927539265  0.8101262920067354  0.5963217998063115  1.0000
  O   O19       1.0  0.6408209817614718  0.8710210002455909  0.5450773180538135  1.0000
  O   O20       1.0  0.9225952786954823  0.47459680309244595  0.9831418358710949  1.0000
  O   O21       1.0  0.7009023835260706  0.8015354168831338  0.21054880233994314  1.0000
  O   O22       1.0  0.5211087390927248  0.5923121344973269  0.059015494157215236  1.0000
  O   O23       1.0  0.4190044004272622  0.8394380728948078  0.15958557193281564  1.0000
  O   O24       1.0  0.5387372310180965  0.022928737673225893  0.36418772536042354  1.0000
  O   O25       1.0  0.6568724982011886  0.982679188223713  0.42912853769192344  1.0000
  O   O26       1.0  0.22673769043360184  0.6226483503684789  0.017982920054230116  1.0000
  O   O27       1.0  0.21667128977426842  0.5528814169612132  0.11205077825609071  1.0000
  O   O28       1.0  0.8101267337729186  0.5445058903577119  0.09632600730104465  1.0000
  O   O29       1.0  0.8710214289480405  0.6408208403245725  0.04507747722982463  1.0000
  O   O30       1.0  0.4745961884148855  0.9225955709118167  0.48314121548542494  1.0000
  O   O31       1.0  0.1984616785855025  0.2990970872232521  0.2894515352950222  1.0000
  O   O32       1.0  0.4076883154214528  0.47889015641436583  0.44098308894773913  1.0000
  O   O33       1.0  0.16056109237363367  0.5809969474233866  0.3404142317719235  1.0000
  O   O34       1.0  0.9770719500822622  0.4612624307387635  0.13581182911527628  1.0000
  O   O35       1.0  0.017323836496664996  0.3431276068819571  0.0708715622376772  1.0000
  O   O36       1.0  0.37734914438298267  0.7732613795815338  0.4820167452594078  1.0000
  O   O37       1.0  0.447115761558905  0.7833299683979644  0.3879491101315651  1.0000
  O   O38       1.0  0.4554943860027905  0.18987481386978544  0.4036773901980909  1.0000
  O   O39       1.0  0.35917821508946446  0.1289788877832123  0.4549223158703199  1.0000
  O   O40       1.0  0.07740454613730918  0.525403741293566  0.016858008269316844  1.0000
