data_image0
_chemical_formula_structural       Hg4H52C32S4Cl8
_chemical_formula_sum              "Hg4 H52 C32 S4 Cl8"
_cell_length_a       9.488351049355629
_cell_length_b       10.626191033000572
_cell_length_c       11.982289919665979
_cell_angle_alpha    90.00003534088906
_cell_angle_beta     110.7204682236991
_cell_angle_gamma    89.99997589246513

_space_group_name_H-M_alt    "P 1"
_space_group_IT_number       1

loop_
  _space_group_symop_operation_xyz
  'x, y, z'

loop_
  _atom_site_type_symbol
  _atom_site_label
  _atom_site_symmetry_multiplicity
  _atom_site_fract_x
  _atom_site_fract_y
  _atom_site_fract_z
  _atom_site_occupancy
  Hg  Hg1       1.0  0.48864299513768844  0.49099245419181153  0.15886401202480024  1.0000
  Hg  Hg2       1.0  0.011359153469626902  0.9909939695976676  0.34113699931053537  1.0000
  Hg  Hg3       1.0  0.5113570508620882  0.5090066670362035  0.8411362836644116  1.0000
  Hg  Hg4       1.0  0.9886431461459538  0.009006092701120799  0.6588639261810484  1.0000
  H   H1        1.0  0.6824905613445936  0.2479561408163349  0.18365795255179046  1.0000
  H   H2        1.0  0.8175096181833723  0.7479565834734955  0.31634192269981287  1.0000
  H   H3        1.0  0.3175083556993101  0.7520439214821834  0.8163403585055419  1.0000
  H   H4        1.0  0.18248930100831734  0.2520434788255983  0.6836580580885394  1.0000
  H   H5        1.0  0.6513929504835262  0.1327719157058596  0.2809412394983823  1.0000
  H   H6        1.0  0.8486072590743846  0.6327732203862623  0.21905858093143846  1.0000
  H   H7        1.0  0.3486059665605055  0.8672272055216794  0.7190570715587297  1.0000
  H   H8        1.0  0.1513939126592163  0.3672277829833135  0.7809411947937832  1.0000
  H   H9        1.0  0.5291342819581218  0.9335339140028721  0.20569487842286088  1.0000
  H   H10       1.0  0.9708624676897273  0.4335324991066398  0.2943033055853873  1.0000
  H   H11       1.0  0.4708635093514675  0.06646803043798849  0.7943039525993498  1.0000
  H   H12       1.0  0.029135322546345307  0.5664666221209984  0.7056946905706383  1.0000
  H   H13       1.0  0.5604944428775269  0.21896674097198598  0.9595720247668069  1.0000
  H   H14       1.0  0.9395045715094315  0.718965064653112  0.5404271352424033  1.0000
  H   H15       1.0  0.43950560204799427  0.7810352034686758  0.04042743605755559  1.0000
  H   H16       1.0  0.060493218726641415  0.2810340565745263  0.4595708609136295  1.0000
  H   H17       1.0  0.44482691724496  0.14837875022558214  0.49674249937451975  1.0000
  H   H18       1.0  0.05517419387860661  0.6483781329517269  0.003258033992061397  1.0000
  H   H19       1.0  0.5551742555626618  0.8516213120733125  0.5032581112159845  1.0000
  H   H20       1.0  0.944826978929136  0.3516209882761813  0.9967425765982225  1.0000
  H   H21       1.0  0.331052914688776  0.10813005536410708  0.3483188593304333  1.0000
  H   H22       1.0  0.16894933480975993  0.6081313805412876  0.15168280464681058  1.0000
  H   H23       1.0  0.6689493860008185  0.891869065863986  0.6516829010264331  1.0000
  H   H24       1.0  0.8310518401456479  0.39186868175818285  0.848319475674721  1.0000
  H   H25       1.0  0.5297905499433  0.0786519292550238  0.40143174107493  1.0000
  H   H26       1.0  0.9702119284144859  0.5786512228159992  0.0985695182636448  1.0000
  H   H27       1.0  0.4702106228643147  0.9213481330438711  0.5985688695155815  1.0000
  H   H28       1.0  0.029789245467149807  0.42134789841220044  0.9014319271921495  1.0000
  H   H29       1.0  0.6326637837847217  0.33010894468088736  0.5336730187376233  1.0000
  H   H30       1.0  0.8673385820498326  0.8301075905017328  0.9663271388730904  1.0000
  H   H31       1.0  0.36733851475683826  0.6698920586885959  0.46632707188867767  1.0000
  H   H32       1.0  0.13266371649198316  0.1698915307257849  0.033672951752763004  1.0000
  H   H33       1.0  0.7139443124098507  0.26539144376693  0.43416579499888996  1.0000
  H   H34       1.0  0.7860558614987596  0.7653907835128423  0.06583325368528395  1.0000
  H   H35       1.0  0.2860557325159121  0.7346086185317732  0.565833665825032  1.0000
  H   H36       1.0  0.21394418235311008  0.23460927878556959  0.9341653722731208  1.0000
  H   H37       1.0  0.6423859176860134  0.4223922033905225  0.412954459841032  1.0000
  H   H38       1.0  0.8576142152904114  0.9223915310745031  0.08704466356773112  1.0000
  H   H39       1.0  0.35761412616572835  0.5776087999788685  0.5870441661176002  1.0000
  H   H40       1.0  0.14238695644343122  0.07760759015312149  0.9129551121570427  1.0000
  H   H41       1.0  0.23138141070118934  0.33327847146749423  0.3163375025979818  1.0000
  H   H42       1.0  0.2686196554381226  0.8332788404623418  0.1836656233684764  1.0000
  H   H43       1.0  0.7686186363723593  0.6667215908317913  0.6836636279569531  1.0000
  H   H44       1.0  0.7313815195172851  0.166721221837129  0.816336656953048  1.0000
  H   H45       1.0  0.3609112341544289  0.4629966227742059  0.3471926026521217  1.0000
  H   H46       1.0  0.13908979601784924  0.9629970188275434  0.1528089153227441  1.0000
  H   H47       1.0  0.6390888118452266  0.5370034395247882  0.6528076930373032  1.0000
  H   H48       1.0  0.8609113778636656  0.0370030434716355  0.8471925301332703  1.0000
  H   H49       1.0  0.3477841161821047  0.3686985308600939  0.46538643832652576  1.0000
  H   H50       1.0  0.15221693857507293  0.8686978990242549  0.034615034766872596  1.0000
  H   H51       1.0  0.6522170566255171  0.631301531438794  0.5346141722639857  1.0000
  H   H52       1.0  0.8477853621145217  0.1313012222038452  0.9653867255900009  1.0000
  C   C1        1.0  0.6011166415631238  0.18059900455589428  0.1947852712515896  1.0000
  C   C2        1.0  0.8988824297916836  0.6805994090697992  0.3052150919057794  1.0000
  C   C3        1.0  0.39888227655468006  0.8194010577429082  0.8052138746712528  1.0000
  C   C4        1.0  0.10111648940001321  0.31940065322929456  0.6947848888825731  1.0000
  C   C5        1.0  0.5499861160887746  0.08744330414066329  0.09429056006050011  1.0000
  C   C6        1.0  0.9500118505974486  0.5874418770335409  0.40570777412682457  1.0000
  C   C7        1.0  0.45001167522082147  0.9125586403001975  0.9057082709617105  1.0000
  C   C8        1.0  0.049985938564852  0.412556303122834  0.5942893871634709  1.0000
  C   C9        1.0  0.5158786822146553  0.9634110066510643  0.11543181834043283  1.0000
  C   C10       1.0  0.9841180607178472  0.4634087082795162  0.38456721475314026  1.0000
  C   C11       1.0  0.4841179822869749  0.036590937789902994  0.8845666977806983  1.0000
  C   C12       1.0  0.0158797316661321  0.5365894718777254  0.6154324511336853  1.0000
  C   C13       1.0  0.5335348325903909  0.1231177320086729  0.9777315510902227  1.0000
  C   C14       1.0  0.9664619542434  0.6231179151651958  0.5222677683633988  1.0000
  C   C15       1.0  0.466461830837595  0.8768823302900443  0.022266130164950864  1.0000
  C   C16       1.0  0.033534711332372104  0.3768821471341041  0.4777315826227948  1.0000
  C   C17       1.0  0.4674881285910218  0.27751151953319203  0.3664629903044058  1.0000
  C   C18       1.0  0.032512949939800306  0.7775110010188442  0.1335384393885164  1.0000
  C   C19       1.0  0.532511916334741  0.7224885427655108  0.6335364705195159  1.0000
  C   C20       1.0  0.9674882239417146  0.22248906128033497  0.866463006067498  1.0000
  C   C21       1.0  0.44187505972723784  0.14436975636264288  0.40426475701942616  1.0000
  C   C22       1.0  0.05812605351528789  0.6443701431436253  0.0957366093048222  1.0000
  C   C23       1.0  0.5581249862724179  0.8556303059363513  0.5957355386700058  1.0000
  C   C24       1.0  0.941873993558261  0.35562991915565323  0.9042645212501199  1.0000
  C   C25       1.0  0.6236555599778272  0.32675211361353007  0.4396788398651736  1.0000
  C   C26       1.0  0.8763457258150994  0.8267514157727476  0.06032138779021781  1.0000
  C   C27       1.0  0.37634448494780764  0.6732488897561524  0.5603206209589685  1.0000
  C   C28       1.0  0.1236554459186294  0.173248646525856  0.9396783879347766  1.0000
  C   C29       1.0  0.3436975875181645  0.3664389880563376  0.3726107929087661  1.0000
  C   C30       1.0  0.15630234102001592  0.8664393600572496  0.1273903642083667  1.0000
  C   C31       1.0  0.6562979533973065  0.6335620153146237  0.6273899129075957  1.0000
  C   C32       1.0  0.8436977060536606  0.13355976117105678  0.872610766346355  1.0000
  S   S1        1.0  0.4378336531791264  0.2682550945794659  0.20384365455379339  1.0000
  S   S2        1.0  0.06216517307513671  0.7682546776707612  0.2961563060658889  1.0000
  S   S3        1.0  0.5621652660125634  0.731744967719628  0.7961563262345591  1.0000
  S   S4        1.0  0.9378337461166809  0.23174444355735344  0.7038436747222363  1.0000
  Cl  Cl1       1.0  0.7001374640033191  0.463675914543579  0.0642352502872541  1.0000
  Cl  Cl2       1.0  0.7998626592833914  0.963678328702848  0.43576472763675866  1.0000
  Cl  Cl3       1.0  0.2998625819964574  0.536323206684436  0.9357650454019576  1.0000
  Cl  Cl4       1.0  0.2001385145978745  0.03632361573829  0.5642367178197105  1.0000
  Cl  Cl5       1.0  0.5133218500320069  0.6760578648325648  0.2827385818302375  1.0000
  Cl  Cl6       1.0  0.98668172759092  0.1760573317014433  0.21726136903883733  1.0000
  Cl  Cl7       1.0  0.48668270105159184  0.32394313853642126  0.7172613037327125  1.0000
  Cl  Cl8       1.0  0.0133216977588546  0.8239417895259749  0.7827390364880954  1.0000
