data_image0
_chemical_formula_structural       Co4H32C24O16
_chemical_formula_sum              "Co4 H32 C24 O16"
_cell_length_a       4.831381434385755
_cell_length_b       9.364858965380941
_cell_length_c       15.895784313338217
_cell_angle_alpha    89.52533944537068
_cell_angle_beta     89.99898516694424
_cell_angle_gamma    90.00103729820577

_space_group_name_H-M_alt    "P 1"
_space_group_IT_number       1

loop_
  _space_group_symop_operation_xyz
  'x, y, z'

loop_
  _atom_site_type_symbol
  _atom_site_label
  _atom_site_symmetry_multiplicity
  _atom_site_fract_x
  _atom_site_fract_y
  _atom_site_fract_z
  _atom_site_occupancy
  Co  Co1       1.0  0.04114799806351499  0.7840678903702101  0.24598213953809284  1.0000
  Co  Co2       1.0  0.041167035162139584  0.7159377799149241  0.7540158664022769  1.0000
  Co  Co3       1.0  0.9588253817136091  0.21593537945459224  0.7540159510919296  1.0000
  Co  Co4       1.0  0.958833251789464  0.28405797662961163  0.2459860088588357  1.0000
  H   H1        1.0  0.7329230852286911  0.47193822960939263  0.0642109509648918  1.0000
  H   H2        1.0  0.7329186036148838  0.028073339041562003  0.935787792388048  1.0000
  H   H3        1.0  0.26707099241228593  0.528059681850678  0.9357890341036141  1.0000
  H   H4        1.0  0.2670754742720972  0.9719448228278086  0.06421594024873661  1.0000
  H   H5        1.0  0.7148206135159754  0.6212009631429254  0.9970542254663642  1.0000
  H   H6        1.0  0.7148150751664771  0.8788067423399682  0.0029420523041637  1.0000
  H   H7        1.0  0.28517760382071333  0.3787959190305942  0.0029419863137932  1.0000
  H   H8        1.0  0.28517900262756507  0.12121244883539363  0.9970654536098423  1.0000
  H   H9        1.0  0.2657207033633853  0.11107038838923704  0.5019514209774698  1.0000
  H   H10       1.0  0.2657112182037196  0.38892825681335813  0.4980492161263186  1.0000
  H   H11       1.0  0.7342733742038944  0.8889317430496818  0.4980535913185948  1.0000
  H   H12       1.0  0.7342932085355186  0.6110601340541849  0.5019419741226869  1.0000
  H   H13       1.0  0.566994781704153  0.12627834647388173  0.44079094361195115  1.0000
  H   H14       1.0  0.5669749522055268  0.3737167142542577  0.5592087117194282  1.0000
  H   H15       1.0  0.4330034354663112  0.8737259078182621  0.5592153240516071  1.0000
  H   H16       1.0  0.4330274046566061  0.626265282413492  0.440781228869632  1.0000
  H   H17       1.0  0.4460391492668307  0.9037356618171234  0.36260312510155057  1.0000
  H   H18       1.0  0.446046350888352  0.5962652548736288  0.6373939740548735  1.0000
  H   H19       1.0  0.5539673472395776  0.09626863746915151  0.6373987387166766  1.0000
  H   H20       1.0  0.5539560059367261  0.40371779036664907  0.3625978524586557  1.0000
  H   H21       1.0  0.15120606992276459  0.878218427389769  0.42517525441643045  1.0000
  H   H22       1.0  0.1512095730108527  0.621780788574384  0.5748234281857594  1.0000
  H   H23       1.0  0.8488066361186026  0.12178803971470843  0.5748234609406496  1.0000
  H   H24       1.0  0.8488052024170469  0.37819900182953603  0.4251734355198665  1.0000
  H   H25       1.0  0.28212369920139924  0.5416247950544318  0.13248737112933645  1.0000
  H   H26       1.0  0.28212388917233966  0.9583788216461859  0.8675137490420682  1.0000
  H   H27       1.0  0.717866238930746  0.4583773941646784  0.8675119791196199  1.0000
  H   H28       1.0  0.7178805375697337  0.04162442905784051  0.1324862288572533  1.0000
  H   H29       1.0  0.24924946640827972  0.6867426709070799  0.0642187328986523  1.0000
  H   H30       1.0  0.2492426015899482  0.813256372129942  0.9357819406014303  1.0000
  H   H31       1.0  0.7507446113813143  0.3132531690966546  0.935774963850584  1.0000
  H   H32       1.0  0.7507576854570246  0.1867510921113151  0.0642236936541565  1.0000
  C   C1        1.0  0.5587776380916907  0.7096168474380707  0.15763704489352653  1.0000
  C   C2        1.0  0.5587858160622544  0.7903957805988073  0.8423619504263655  1.0000
  C   C3        1.0  0.4412060909357435  0.29039287442501666  0.8423566333159586  1.0000
  C   C4        1.0  0.4412144707227199  0.20960522523056827  0.1576487253395271  1.0000
  C   C5        1.0  0.5862819478613587  0.542886002731315  0.031149879482868  1.0000
  C   C6        1.0  0.5862740592585637  0.9571215314619936  0.9688502334083611  1.0000
  C   C7        1.0  0.41371419963669337  0.4571108665881242  0.9688475905380189  1.0000
  C   C8        1.0  0.41371794878976687  0.0428966175532963  0.031154757469153107  1.0000
  C   C9        1.0  0.4232345251639911  0.048018164455186314  0.4687976179126495  1.0000
  C   C10       1.0  0.42323358653953136  0.4519787627823819  0.5312015476257983  1.0000
  C   C11       1.0  0.5767657618637401  0.9519861091132142  0.5312067623925929  1.0000
  C   C12       1.0  0.5767708400867303  0.5480032210507205  0.4687896511928572  1.0000
  C   C13       1.0  0.1201635907185263  0.04747470306502782  0.336851724769339  1.0000
  C   C14       1.0  0.12015904469288327  0.45253317667158655  0.6631572298861885  1.0000
  C   C15       1.0  0.8798429056775348  0.9525369876064078  0.6631583075795363  1.0000
  C   C16       1.0  0.8798557308293694  0.5474530143445905  0.336840254367374  1.0000
  C   C17       1.0  0.2881670653564539  0.9617787778508745  0.39909853576282484  1.0000
  C   C18       1.0  0.2881660933627756  0.5382217241865349  0.6008994106227308  1.0000
  C   C19       1.0  0.7118435707156789  0.03822657002736921  0.6009052139687512  1.0000
  C   C20       1.0  0.7118445426490254  0.4617602532535444  0.3990924172968208  1.0000
  C   C21       1.0  0.40525863173663607  0.6186273780914463  0.0953414805619772  1.0000
  C   C22       1.0  0.4052580655092014  0.881377407714446  0.904657719469107  1.0000
  C   C23       1.0  0.594731306432159  0.38137163972135113  0.9046547283838893  1.0000
  C   C24       1.0  0.5947401517361754  0.11862899510020244  0.095347287102733  1.0000
  O   O1        1.0  0.43069346500086414  0.7698625089868615  0.21824191914954846  1.0000
  O   O2        1.0  0.4307051599906443  0.7301500162775769  0.781754617656347  1.0000
  O   O3        1.0  0.5692861245545869  0.2301493806458411  0.7817486106265934  1.0000
  O   O4        1.0  0.5692889172401364  0.26984563106073983  0.21825795262035547  1.0000
  O   O5        1.0  0.0037431957403554995  0.9860123447868508  0.2743498020715407  1.0000
  O   O6        1.0  0.0037567962087621  0.5139939393175158  0.7256584694045856  1.0000
  O   O7        1.0  0.9962488121215071  0.014004678589742503  0.7256608522924851  1.0000
  O   O8        1.0  0.9962724678474897  0.4859858575766155  0.2743377651445229  1.0000
  O   O9        1.0  0.09701702564905189  0.18227323512668653  0.3462974854867583  1.0000
  O   O10       1.0  0.09700001311091459  0.3177280651208179  0.653707198372338  1.0000
  O   O11       1.0  0.9030060293445953  0.8177395812611864  0.6537068833310969  1.0000
  O   O12       1.0  0.9029982039245039  0.6822517316275383  0.3462890362602168  1.0000
  O   O13       1.0  0.8204134538552024  0.7244120703030676  0.1494425410334728  1.0000
  O   O14       1.0  0.8204226987709757  0.7756019467183465  0.8505550492983647  1.0000
  O   O15       1.0  0.17957441477480524  0.2755965901625644  0.850550509475575  1.0000
  O   O16       1.0  0.17957758816302055  0.22439911048846997  0.14945059352687204  1.0000
