data_image0
_chemical_formula_structural       Zn4B16H44C12N8O30
_chemical_formula_sum              "Zn4 B16 H44 C12 N8 O30"
_cell_length_a       8.153415176002
_cell_length_b       10.767391682583163
_cell_length_c       11.453669673849253
_cell_angle_alpha    89.4727896399148
_cell_angle_beta     90.00002237536103
_cell_angle_gamma    90.00007706660473

_space_group_name_H-M_alt    "P 1"
_space_group_IT_number       1

loop_
  _space_group_symop_operation_xyz
  'x, y, z'

loop_
  _atom_site_type_symbol
  _atom_site_label
  _atom_site_symmetry_multiplicity
  _atom_site_fract_x
  _atom_site_fract_y
  _atom_site_fract_z
  _atom_site_occupancy
  Zn  Zn1       1.0  0.7405475336775923  0.1006514554851989  0.3465814833513505  1.0000
  Zn  Zn2       1.0  0.24054622321236965  0.3993495427406514  0.1534177397695728  1.0000
  Zn  Zn3       1.0  0.25945299088838425  0.8993491035984035  0.6534185784062885  1.0000
  Zn  Zn4       1.0  0.7594530748734487  0.600651025708288  0.8465814488686619  1.0000
  B   B1        1.0  0.027861063756844797  0.2891816596366182  0.3279525458205228  1.0000
  B   B2        1.0  0.5278600210512039  0.21081819328129814  0.1720466190792038  1.0000
  B   B3        1.0  0.9721382343289803  0.710818908812321  0.6720466428177048  1.0000
  B   B4        1.0  0.47213927703425895  0.7891814277135861  0.8279543150266521  1.0000
  B   B5        1.0  0.072019122848026  0.10929432735064637  0.45744688591270943  1.0000
  B   B6        1.0  0.5720195545838606  0.39070649925781703  0.0425522916859578  1.0000
  B   B7        1.0  0.927980175237792  0.8907062410982929  0.5425523027255181  1.0000
  B   B8        1.0  0.4279809699821158  0.6092940598257853  0.9574477700716884  1.0000
  B   B9        1.0  0.2906244611538966  0.1652245234958514  0.313372373502574  1.0000
  B   B10       1.0  0.7906248725546517  0.33477559700380505  0.186626862374375  1.0000
  B   B11       1.0  0.7093736104522392  0.8347760355864933  0.6866276882547382  1.0000
  B   B12       1.0  0.20937442553034202  0.6652240427230112  0.8133723254929919  1.0000
  B   B13       1.0  0.0721542489078857  0.3252833289767522  0.5375557041321386  1.0000
  B   B14       1.0  0.5721533010089531  0.1747173108715998  0.962443710663635  1.0000
  B   B15       1.0  0.9278462756578562  0.6747172394728123  0.46244348450625955  1.0000
  B   B16       1.0  0.4278459970765099  0.8252823101232849  0.0375572234422208  1.0000
  H   H1        1.0  0.0407614333298127  0.48804485851439944  0.6116961706915092  1.0000
  H   H2        1.0  0.5407613829569868  0.011955749366023801  0.8883032356246331  1.0000
  H   H3        1.0  0.9592390912353393  0.5119547718470797  0.3883038902952692  1.0000
  H   H4        1.0  0.45923791512989  0.9880457384390693  0.11169682690371731  1.0000
  H   H5        1.0  0.7932365629285769  0.8724082540825648  0.3266319927132599  1.0000
  H   H6        1.0  0.29323723477246944  0.6275920965244096  0.1733678065265138  1.0000
  H   H7        1.0  0.2067627351564241  0.12759138564425138  0.6733671951540998  1.0000
  H   H8        1.0  0.7067632897934999  0.37240846255919285  0.8266322552311323  1.0000
  H   H9        1.0  0.6593932698768654  0.9138352451198416  0.2207359706856451  1.0000
  H   H10       1.0  0.1593926997315407  0.5861649691892765  0.2792637924005277  1.0000
  H   H11       1.0  0.3406072546880594  0.08616439460760719  0.7792632171818781  1.0000
  H   H12       1.0  0.8406065983545189  0.4138355898937006  0.7207362693569551  1.0000
  H   H13       1.0  3.148924983520001e-05  0.6291626620533961  0.9869252560546329  1.0000
  H   H14       1.0  0.5000318696610648  0.8708381317977326  0.5130747019169064  1.0000
  H   H15       1.0  0.999969035315914  0.37083790639616854  0.013073932583765198  1.0000
  H   H16       1.0  0.4999686549049116  0.1291624272858627  0.4869253598407397  1.0000
  H   H17       1.0  0.8395799902220702  0.5681670102820319  0.0580099081586596  1.0000
  H   H18       1.0  0.3395801215801982  0.9318333875177699  0.4419899035992216  1.0000
  H   H19       1.0  0.1604205343428475  0.43183262944540957  0.9419892797088707  1.0000
  H   H20       1.0  0.6604204029857783  0.0681671715658254  0.5580101581584245  1.0000
  H   H21       1.0  0.012539233838154503  0.9790151045022596  0.2274859961766253  1.0000
  H   H22       1.0  0.5125391361568461  0.5209858889827073  0.2725137280126262  1.0000
  H   H23       1.0  0.987461290727822  0.020985454581342797  0.7725140655810208  1.0000
  H   H24       1.0  0.4874601619283823  0.4790137413781467  0.7274863329739888  1.0000
  H   H25       1.0  0.8781388066783364  0.0044758986485149  0.1079729747545386  1.0000
  H   H26       1.0  0.3781377971002158  0.495524301603318  0.39202715788063364  1.0000
  H   H27       1.0  0.12186171788658837  0.9955237410789264  0.8920262131129846  1.0000
  H   H28       1.0  0.6218602745053232  0.5044753193909415  0.6079737762250588  1.0000
  H   H29       1.0  0.7102098334345968  0.7550973463787614  0.0804158181627344  1.0000
  H   H30       1.0  0.2102096212981124  0.7449029103128237  0.4195848317691855  1.0000
  H   H31       1.0  0.28978946465168315  0.24490320333824653  0.9195851167139893  1.0000
  H   H32       1.0  0.7897896767879472  0.2550976487701533  0.5804152299882973  1.0000
  H   H33       1.0  0.8271881154210662  0.8269478427749415  0.9689590530467456  1.0000
  H   H34       1.0  0.3271887900023814  0.6730523461430805  0.531041865643985  1.0000
  H   H35       1.0  0.1728124091451377  0.17305270694268415  0.031041881830148603  1.0000
  H   H36       1.0  0.6728117345638297  0.3269482035745454  0.4689590692329091  1.0000
  H   H37       1.0  0.9641145070746688  0.7461045145266709  0.20795216410347453  1.0000
  H   H38       1.0  0.464114241141516  0.7538960007247438  0.2920485544125668  1.0000
  H   H39       1.0  0.035886017490476305  0.2538951158348083  0.7920478968833038  1.0000
  H   H40       1.0  0.5358862834238707  0.24610362027076596  0.7079523796934525  1.0000
  H   H41       1.0  0.0776798571305903  0.8188202699547562  0.09458970847884271  1.0000
  H   H42       1.0  0.5776801159799233  0.6811798517772375  0.40541090565446314  1.0000
  H   H43       1.0  0.9223194409548653  0.18117935104012872  0.9054112256270203  1.0000
  H   H44       1.0  0.42231918210530484  0.31881977858361665  0.5945891553321445  1.0000
  C   C1        1.0  0.9077775425695619  0.9400084701378757  0.1800796139077079  1.0000
  C   C2        1.0  0.4077769482736855  0.5599910683873474  0.3199202155005594  1.0000
  C   C3        1.0  0.0922229819955902  0.059991160223603394  0.8199204470790704  1.0000
  C   C4        1.0  0.5922223498115429  0.44000856197349947  0.6800798454860484  1.0000
  C   C5        1.0  0.834189779005321  0.7622164171860886  0.04376612524990261  1.0000
  C   C6        1.0  0.3341895742923597  0.7377839751245006  0.45623368505194156  1.0000
  C   C7        1.0  0.1658107455598312  0.2377832131753834  0.9562339357368757  1.0000
  C   C8        1.0  0.6658109502736097  0.2622165839590948  0.5437663767057046  1.0000
  C   C9        1.0  0.9545455486166432  0.8117025432078792  0.133932260995536  1.0000
  C   C10       1.0  0.454545206913224  0.6882970335769727  0.366068454164882  1.0000
  C   C11       1.0  0.04545497594768479  0.1882961584314771  0.8660677992203674  1.0000
  C   C12       1.0  0.5454540911722318  0.311702587417912  0.6339324799409809  1.0000
  N   N1        1.0  0.7662724426934489  0.93830046333111  0.2624158016545337  1.0000
  N   N2        1.0  0.2662730328854508  0.5616989310952079  0.2375839895308829  1.0000
  N   N3        1.0  0.2337268553917795  0.06169916702973667  0.7375842593320812  1.0000
  N   N4        1.0  0.7337262651997776  0.438300699265646  0.762416071455732  1.0000
  N   N5        1.0  0.8757602394506849  0.6366809989758407  0.9993230331352976  1.0000
  N   N6        1.0  0.3757600081062478  0.8633192487703595  0.50067702555625  1.0000
  N   N7        1.0  0.12424028511401272  0.3633186501175699  0.0006752816129776001  1.0000
  N   N8        1.0  0.6242405164599631  0.13668130094727354  0.4993239093206441  1.0000
  O   O1        1.0  0.9640613019368018  0.1702404838971106  0.367872850710782  1.0000
  O   O2        1.0  0.46405985651704634  0.3297597944863709  0.1321281782527635  1.0000
  O   O3        1.0  0.035939222629402  0.8297600658205228  0.6321280841661121  1.0000
  O   O4        1.0  0.5359394415692407  0.6702407552306369  0.8678727566239672  1.0000
  O   O5        1.0  0.1961941724079495  0.2663616192818239  0.2775044296406648  1.0000
  O   O6        1.0  0.6961944242012947  0.2336365569778706  0.22249390606798872  1.0000
  O   O7        1.0  0.8038063521569756  0.7336380204456245  0.7224947582268655  1.0000
  O   O8        1.0  0.30380487388288213  0.7663621540268223  0.7775052810285034  1.0000
  O   O9        1.0  0.9405240524505345  0.3540065080419126  0.23566630779688322  1.0000
  O   O10       1.0  0.4405248066395089  0.145993755739859  0.2643338416898757  1.0000
  O   O11       1.0  0.0594764721133316  0.645992212329375  0.7643320061805241  1.0000
  O   O12       1.0  0.5594769444084946  0.8540086420566693  0.7356679678481727  1.0000
  O   O13       1.0  0.0427089331665513  0.37519269048210196  0.42774290396855724  1.0000
  O   O14       1.0  0.5427064570056785  0.12480623010112168  0.0722580104092714  1.0000
  O   O15       1.0  0.9572915913980041  0.6248060017912846  0.5722580293665943  1.0000
  O   O16       1.0  0.457292841080374  0.8751943289818483  0.9277420513482113  1.0000
  O   O17       1.0  0.06925739659633484  0.4007200168659751  0.6342114880945076  1.0000
  O   O18       1.0  0.569256262174008  0.09928062939828658  0.8657870527995044  1.0000
  O   O19       1.0  0.9307431279694072  0.5992805515835896  0.3657877005438905  1.0000
  O   O20       1.0  0.4307442623917339  0.9007199390512849  0.1342121358388937  1.0000
  O   O21       1.0  0.1014657869746358  0.20115039118221023  0.5537251419496627  1.0000
  O   O22       1.0  0.6014662766808243  0.2988502691498596  0.9462751538831214  1.0000
  O   O23       1.0  0.8985335111105996  0.7988492391786437  0.4462749190369522  1.0000
  O   O24       1.0  0.39853302140605246  0.7011512186552408  0.0537249086452292  1.0000
  O   O25       1.0  0.9999995018652755  4.2976738260053127e-07  0.4999989439602714  1.0000
  O   O26       1.0  0.5000007388315169  0.4999999039465024  3.4847268180009587e-07  1.0000
  O   O27       1.0  0.23710451087701054  0.0865971507296166  0.40004703392130375  1.0000
  O   O28       1.0  0.7371025612565915  0.41340290590166967  0.0999530606178922  1.0000
  O   O29       1.0  0.7628972401680656  0.9134024796324878  0.5999530270656379  1.0000
  O   O30       1.0  0.26289673682923365  0.5865976625472695  0.9000461280203425  1.0000
