data_image0
_chemical_formula_structural       Cd2H64C68N8O8
_chemical_formula_sum              "Cd2 H64 C68 N8 O8"
_cell_length_a       8.893717918584027
_cell_length_b       11.898868485884128
_cell_length_c       15.927858755944882
_cell_angle_alpha    99.61842524466185
_cell_angle_beta     90.00711111502838
_cell_angle_gamma    111.98930796538302

_space_group_name_H-M_alt    "P 1"
_space_group_IT_number       1

loop_
  _space_group_symop_operation_xyz
  'x, y, z'

loop_
  _atom_site_type_symbol
  _atom_site_label
  _atom_site_symmetry_multiplicity
  _atom_site_fract_x
  _atom_site_fract_y
  _atom_site_fract_z
  _atom_site_occupancy
  Cd  Cd1       1.0  0.8131808192846747  0.9998185197921429  0.7499664266402489  1.0000
  Cd  Cd2       1.0  0.1868033455707661  0.0001695516563912998  0.2500359842978312  1.0000
  H   H1        1.0  0.9442905636724035  0.823993856158708  0.7936056244040373  1.0000
  H   H2        1.0  0.12026052575226491  0.17531738565735813  0.7062627349779189  1.0000
  H   H3        1.0  0.05570251030626851  0.1760052766326581  0.2063962922990896  1.0000
  H   H4        1.0  0.8797490691268806  0.8246900441122164  0.2937402241098895  1.0000
  H   H5        1.0  0.0374049195559322  0.7969070993184812  0.8824253242469595  1.0000
  H   H6        1.0  0.2404841921710883  0.20263348277676838  0.6174475928625967  1.0000
  H   H7        1.0  0.962591727409638  0.2030901851392528  0.11758075529522928  1.0000
  H   H8        1.0  0.7595190613867472  0.7973702637211699  0.38255239218772624  1.0000
  H   H9        1.0  0.15684441787310274  0.857490914227469  0.7994431654489984  1.0000
  H   H10       1.0  0.2994006526274191  0.14201092192354278  0.7003565828789745  1.0000
  H   H11       1.0  0.8431490592726407  0.14250453056938986  0.20056017166018586  1.0000
  H   H12       1.0  0.7006014200284126  0.8579882187243867  0.2996421959466318  1.0000
  H   H13       1.0  0.9651783474721611  0.28683864399675224  0.8706568597589522  1.0000
  H   H14       1.0  0.6773026248011719  0.7127275954386859  0.6291247555945388  1.0000
  H   H15       1.0  0.03482545387554834  0.7131549635431114  0.12934499131871038  1.0000
  H   H16       1.0  0.3227005732673831  0.2872715475490891  0.3708727678990797  1.0000
  H   H17       1.0  0.10858737484153375  0.4617767733074628  0.9907750075549869  1.0000
  H   H18       1.0  0.6455471571193883  0.5376317122243107  0.5091651911857227  1.0000
  H   H19       1.0  0.8914074307719347  0.5382168332881178  0.009225587450259785  1.0000
  H   H20       1.0  0.3544605938851504  0.46237203375829944  0.49083604960794247  1.0000
  H   H21       1.0  0.2939163534147581  0.4427361625952882  0.0976803973284106  1.0000
  H   H22       1.0  0.8499360857074623  0.5566310789236155  0.4022615762128297  1.0000
  H   H23       1.0  0.7060888886404868  0.5572648167260538  0.9023217516373377  1.0000
  H   H24       1.0  0.1500610846529256  0.44337174628427795  0.5977370372919208  1.0000
  H   H25       1.0  0.34438391720802747  0.2486654954496856  0.0906489350113375  1.0000
  H   H26       1.0  0.09474553817761922  0.7508619614291445  0.4092269053390325  1.0000
  H   H27       1.0  0.6556163666420646  0.7513345639339803  0.9093512147839746  1.0000
  H   H28       1.0  0.9052507094046262  0.2491390199103306  0.590772104432908  1.0000
  H   H29       1.0  0.21462807363114675  0.8925635594072784  0.9885777411047484  1.0000
  H   H30       1.0  0.32186089716904587  0.10709469433596296  0.5115261454666892  1.0000
  H   H31       1.0  0.7853726734998859  0.10743742635420969  0.0114193858748735  1.0000
  H   H32       1.0  0.6781431648250305  0.8929016811103024  0.4884735418600812  1.0000
  H   H33       1.0  0.2782458550723277  0.027604022942817594  0.0671354419077801  1.0000
  H   H34       1.0  0.2505244724109303  0.9721661742549017  0.432828405893801  1.0000
  H   H35       1.0  0.721753766645996  0.9723969604788322  0.9328629404038294  1.0000
  H   H36       1.0  0.749472582766721  0.0278274340579543  0.5671715615688554  1.0000
  H   H37       1.0  0.5157600753912632  0.12749630526419506  0.9837577808538924  1.0000
  H   H38       1.0  0.38819161280948583  0.8723056935006923  0.5160219686355205  1.0000
  H   H39       1.0  0.48423755951132097  0.8725074492839294  0.016235926713761693  1.0000
  H   H40       1.0  0.6118090742076845  0.12769067788845936  0.4839796015658493  1.0000
  H   H41       1.0  0.45646139941670333  0.9935877752693543  0.9052519222457747  1.0000
  H   H42       1.0  0.4627087897968212  0.006040967416609498  0.5947514189116203  1.0000
  H   H43       1.0  0.5435346476330453  0.006415052536048901  0.0947448080553031  1.0000
  H   H44       1.0  0.5372903703222178  0.9939590935770893  0.4052474753871564  1.0000
  H   H45       1.0  0.3889359343603401  0.692473232214354  0.8715699937571485  1.0000
  H   H46       1.0  0.6967516847881399  0.30767875468362854  0.6283292830583135  1.0000
  H   H47       1.0  0.6110567932017902  0.30753419504409857  0.12843108097523268  1.0000
  H   H48       1.0  0.3032502453469874  0.6923268418652169  0.3716659116103499  1.0000
  H   H49       1.0  0.10532737658913037  0.5451062177100993  0.8801318129612453  1.0000
  H   H50       1.0  0.5604211262809217  0.45476272061984685  0.6199097995751968  1.0000
  H   H51       1.0  0.8946598664301106  0.4548947419482373  0.11987912258806689  1.0000
  H   H52       1.0  0.4395796221113671  0.5452382681040504  0.3800854442830185  1.0000
  H   H53       1.0  0.898713761055596  0.49464062644799595  0.7598635739787483  1.0000
  H   H54       1.0  0.4044567932834724  0.5050444032432964  0.7402471771363608  1.0000
  H   H55       1.0  0.10127645545514233  0.50536402921184  0.24014154746138416  1.0000
  H   H56       1.0  0.5955491146873014  0.4949556609272817  0.2597510899488924  1.0000
  H   H57       1.0  0.9755307622711414  0.5919801592584619  0.6311710058928596  1.0000
  H   H58       1.0  0.3846320600104178  0.407916728760874  0.8690353732949062  1.0000
  H   H59       1.0  0.024453458073580132  0.4080125157002427  0.368833866601932  1.0000
  H   H60       1.0  0.6153741073454668  0.5920861003537041  0.13096261316086094  1.0000
  H   H61       1.0  0.26056900977859937  0.7392498795224112  0.6236821447222312  1.0000
  H   H62       1.0  0.5226644046724189  0.2610026743435725  0.8764051677461638  1.0000
  H   H63       1.0  0.7394293679809252  0.2607418767646053  0.3763238685363532  1.0000
  H   H64       1.0  0.47733885224875644  0.7390010800541231  0.1235897956470993  1.0000
  C   C1        1.0  0.0538025596370416  0.859509647053123  0.8368985910423561  1.0000
  C   C2        1.0  0.19422350919092682  0.13992458159536617  0.6629141717442903  1.0000
  C   C3        1.0  0.9461925036798677  0.1404867205365861  0.16310423416193487  1.0000
  C   C4        1.0  0.8057749871146741  0.8600763994864379  0.3370854658993209  1.0000
  C   C5        1.0  0.08350423208894833  0.9864256001340833  0.8807365425384716  1.0000
  C   C6        1.0  0.09664657609066299  0.0130640420907255  0.6190495870853283  1.0000
  C   C7        1.0  0.9164928802596534  0.0135726156388216  0.1192633756523591  1.0000
  C   C8        1.0  0.9033510554485819  0.9869397045576492  0.3809491421393929  1.0000
  C   C9        1.0  0.1872614961987082  0.16249545982758917  0.9741080585484452  1.0000
  C   C10       1.0  0.024036426901168934  0.8369590371811806  0.5257437288205296  1.0000
  C   C11       1.0  0.8127482466665726  0.8375055268781748  0.02589032450358529  1.0000
  C   C12       1.0  0.975969478126679  0.16304102007711657  0.47425893221465276  1.0000
  C   C13       1.0  0.0790013069067896  0.17147485046019278  0.9127459392034396  1.0000
  C   C14       1.0  0.9067363091951961  0.8280532625223029  0.5870548070659751  1.0000
  C   C15       1.0  0.9210125319197928  0.8285298276746287  0.08724976835734569  1.0000
  C   C16       1.0  0.09326913465378792  0.1719458732955133  0.4129477382492368  1.0000
  C   C17       1.0  0.048981175542337496  0.27966355217404265  0.9174124776696216  1.0000
  C   C18       1.0  0.7683404827729987  0.7198254802204359  0.5824381746010374  1.0000
  C   C19       1.0  0.9510362375323924  0.720339280589556  0.08258550960882621  1.0000
  C   C20       1.0  0.2316633786885802  0.28017274169175715  0.41755923325487737  1.0000
  C   C21       1.0  0.1290565340246204  0.3759975198795189  0.9846271148368543  1.0000
  C   C22       1.0  0.7519852200622098  0.6234125241693675  0.5153205318920868  1.0000
  C   C23       1.0  0.87096901296092  0.6240080863072066  0.015366826145182729  1.0000
  C   C24       1.0  0.24802161152753396  0.3765893858445749  0.484676083511708  1.0000
  C   C25       1.0  0.23578750738436574  0.36574105827342146  0.04559461547548691  1.0000
  C   C26       1.0  0.8688641710715856  0.6336845004905882  0.45429125514544916  1.0000
  C   C27       1.0  0.7642242819901099  0.6342617706907276  0.9544046268058821  1.0000
  C   C28       1.0  0.13115032862551598  0.3663192506438405  0.5457081030204307  1.0000
  C   C29       1.0  0.26738375160810085  0.2587176541778576  0.041485683586131514  1.0000
  C   C30       1.0  0.00762688318207692  0.7407252530484101  0.4583566414385557  1.0000
  C   C31       1.0  0.7326327988023635  0.7412879490896529  0.9585082567377582  1.0000
  C   C32       1.0  0.992385364848751  0.2592784914313953  0.5416464828055823  1.0000
  C   C33       1.0  0.2794057564990667  0.9928888841893554  0.9990329923459882  1.0000
  C   C34       1.0  0.28632003258688604  0.006788268690300501  0.5009473930745755  1.0000
  C   C35       1.0  0.7205979023279313  0.007111179251417398  0.0009652745747316999  1.0000
  C   C36       1.0  0.7136838284542791  0.993209952234423  0.49905064248847  1.0000
  C   C37       1.0  0.45398628299609806  0.02653638112680309  0.9737346228882726  1.0000
  C   C38       1.0  0.4273599190928861  0.973266294793596  0.5262221551890461  1.0000
  C   C39       1.0  0.5460212111458346  0.973464605836625  0.026263132292093885  1.0000
  C   C40       1.0  0.5726407696059539  0.026730080545434  0.4737769041837936  1.0000
  C   C41       1.0  0.5113402318950763  0.8140181258274383  0.7416679467227353  1.0000
  C   C42       1.0  0.6977047006261189  0.185874385696259  0.7582554837341533  1.0000
  C   C43       1.0  0.48863571412020695  0.1859782365464042  0.2583342493758565  1.0000
  C   C44       1.0  0.30229460916072526  0.8141192361835151  0.24173632370030868  1.0000
  C   C45       1.0  0.3418346118249929  0.7237807802124222  0.7467020717768946  1.0000
  C   C46       1.0  0.6188181612848567  0.2762982765536606  0.7532561953584676  1.0000
  C   C47       1.0  0.6581470108573271  0.276220183546215  0.2533050971182789  1.0000
  C   C48       1.0  0.3811845756048342  0.7236999449936333  0.24674121241518068  1.0000
  C   C49       1.0  0.2975725181992033  0.6691252234991437  0.8191520903568872  1.0000
  C   C50       1.0  0.6288213996547255  0.3308597997632177  0.680793886501327  1.0000
  C   C51       1.0  0.7024095089114512  0.3308720552273953  0.1808546158229447  1.0000
  C   C52       1.0  0.3711838449230171  0.6691411854829423  0.3192044962216301  1.0000
  C   C53       1.0  0.1389495499151749  0.5867977104677137  0.8235599992383696  1.0000
  C   C54       1.0  0.5524139241843854  0.4130537798171331  0.6764570227943736  1.0000
  C   C55       1.0  0.861034781828522  0.41320417249880137  0.1764491686627139  1.0000
  C   C56       1.0  0.4475965409265399  0.5869508972229837  0.3235386845196047  1.0000
  C   C57       1.0  0.022851080947496945  0.5585631477440032  0.7560681118948408  1.0000
  C   C58       1.0  0.46471096335302786  0.4412091825113577  0.7440164940965276  1.0000
  C   C59       1.0  0.9771422503142022  0.4414387450540075  0.24393666271446077  1.0000
  C   C60       1.0  0.53529269715564  0.5587908848793006  0.2559792619956553  1.0000
  C   C61       1.0  0.06591922544205174  0.6129269176239873  0.6837540685916181  1.0000
  C   C62       1.0  0.45384195950668277  0.38698021317600956  0.8163623201426657  1.0000
  C   C63       1.0  0.9340717999253415  0.38707036797164557  0.31625012741783814  1.0000
  C   C64       1.0  0.5461630836977349  0.6130226165611389  0.1836350385236969  1.0000
  C   C65       1.0  0.22477875833348546  0.695149771524484  0.6791478151724348  1.0000
  C   C66       1.0  0.5307585715677661  0.3050283907554814  0.8209248635026256  1.0000
  C   C67       1.0  0.7752104769669116  0.30484842984447613  0.3208596349281123  1.0000
  C   C68       1.0  0.4692487207804136  0.6949744397114656  0.17907249532827046  1.0000
  N   N1        1.0  0.0164912436451132  0.0601739802856045  0.8558173378053978  1.0000
  N   N2        1.0  0.9556458038277924  0.9394014125678252  0.6439248658060207  1.0000
  N   N3        1.0  0.9835099634035345  0.9398279239539491  0.1441817880155867  1.0000
  N   N4        1.0  0.04435269205738731  0.0605995675265092  0.3560753995447213  1.0000
  N   N5        1.0  0.18649835340276164  0.044134170326103096  0.9522438669243058  1.0000
  N   N6        1.0  0.1419623344163696  0.955298414431269  0.5476378464689162  1.0000
  N   N7        1.0  0.8134992192838623  0.9558649649123435  0.047757422400763985  1.0000
  N   N8        1.0  0.8580417826465663  0.04470256353769739  0.4523649301216963  1.0000
  O   O1        1.0  0.6184553706493716  0.8324961810299238  0.8020039280194808  1.0000
  O   O2        1.0  0.7863951855549516  0.1674165037794353  0.6979673072855518  1.0000
  O   O3        1.0  0.3815080549869593  0.1675066154564604  0.1980059817455952  1.0000
  O   O4        1.0  0.2136130312530397  0.8325881745058151  0.30202714444961737  1.0000
  O   O5        1.0  0.5434790817676927  0.8697294818147723  0.6785654171543669  1.0000
  O   O6        1.0  0.6736593468023031  0.1300128085002896  0.821284163241323  1.0000
  O   O7        1.0  0.4565068735751652  0.1302576748479112  0.3214331119854846  1.0000
  O   O8        1.0  0.3263270201159756  0.8699706799172731  0.17870323216193643  1.0000
