data_image0
_chemical_formula_structural       CuH28C30S2N8O6
_chemical_formula_sum              "Cu1 H28 C30 S2 N8 O6"
_cell_length_a       7.309945163430627
_cell_length_b       9.758935411901444
_cell_length_c       12.76348224442552
_cell_angle_alpha    100.2153798809526
_cell_angle_beta     105.76405367640461
_cell_angle_gamma    109.71432416050497

_space_group_name_H-M_alt    "P 1"
_space_group_IT_number       1

loop_
  _space_group_symop_operation_xyz
  'x, y, z'

loop_
  _atom_site_type_symbol
  _atom_site_label
  _atom_site_symmetry_multiplicity
  _atom_site_fract_x
  _atom_site_fract_y
  _atom_site_fract_z
  _atom_site_occupancy
  Cu  Cu1       1.0  8.049620809980809e-06  0.9999855753598653  0.9999986207469433  1.0000
  H   H1        1.0  0.4122331765398712  0.08538426406432362  0.9836886128517436  1.0000
  H   H2        1.0  0.5877796193381573  0.9145932460556241  0.016309593914186828  1.0000
  H   H3        1.0  0.8241294750007879  0.9703049447509287  0.7526989071781783  1.0000
  H   H4        1.0  0.1758761541984981  0.0296875071007392  0.2473056808928078  1.0000
  H   H5        1.0  0.9633757128906169  0.03286994642908071  0.6012918184146301  1.0000
  H   H6        1.0  0.03662529252338242  0.9671419814637691  0.3987146671911291  1.0000
  H   H7        1.0  0.35276065568694276  0.12943408647639387  0.6464658960559718  1.0000
  H   H8        1.0  0.6472439092011582  0.8705766423948943  0.35353392699762753  1.0000
  H   H9        1.0  0.6642563153995978  0.3262327082554677  0.7798385805345447  1.0000
  H   H10       1.0  0.3357450620567946  0.6737723464405576  0.22016547391841365  1.0000
  H   H11       1.0  0.034170160414134905  0.28049118937373413  0.9075674147587094  1.0000
  H   H12       1.0  0.9658281317973446  0.7195058845100489  0.0924366601235249  1.0000
  H   H13       1.0  0.02740217466963207  0.3654486632839423  0.7949241372472003  1.0000
  H   H14       1.0  0.9726038493606168  0.6345495093669486  0.20508206237973078  1.0000
  H   H15       1.0  0.7896045295246594  0.4397625886099306  0.017509328093559897  1.0000
  H   H16       1.0  0.21040316569865072  0.5602309977625027  0.9824965146235627  1.0000
  H   H17       1.0  0.016612435812916708  0.4192513635662038  0.09253739446879912  1.0000
  H   H18       1.0  0.9834018220909256  0.5807513256074299  0.907469115239259  1.0000
  H   H19       1.0  0.5861114516612886  0.2024407615244854  0.2668067269904384  1.0000
  H   H20       1.0  0.4138795956750272  0.7975586205676706  0.7331910542318171  1.0000
  H   H21       1.0  0.8753788842014742  0.3010459635438281  0.19517741175783246  1.0000
  H   H22       1.0  0.12461317467840156  0.6989476816239134  0.8048174059319778  1.0000
  H   H23       1.0  0.24326979386429307  0.41180722226923194  0.3282423457591221  1.0000
  H   H24       1.0  0.7567245884242269  0.5881955597017382  0.6717540558488437  1.0000
  H   H25       1.0  0.3228700868969554  0.42464724938093223  0.5344953438639308  1.0000
  H   H26       1.0  0.6771196766433506  0.5753750122246188  0.46550374002938366  1.0000
  H   H27       1.0  0.03341079574666145  0.3319217027571853  0.6058453048960645  1.0000
  H   H28       1.0  0.966585550622497  0.6681096760231284  0.3941575849904595  1.0000
  C   C1        1.0  0.339561188379541  0.3258445390953001  0.14136091743278462  1.0000
  C   C2        1.0  0.660437567743557  0.6741181921163105  0.8586339231630762  1.0000
  C   C3        1.0  0.4113278001859513  0.1126837820200564  0.8185018395131891  1.0000
  C   C4        1.0  0.5886815638335818  0.8873177941030334  0.181503765250021  1.0000
  C   C5        1.0  0.3195453238177136  0.07666062388422291  0.898162236537857  1.0000
  C   C6        1.0  0.6804576742175354  0.9233146529478444  0.10183259083723328  1.0000
  C   C7        1.0  0.9900259600089072  0.012704398824205  0.7685359861518252  1.0000
  C   C8        1.0  0.009981187825850776  0.9872857374520694  0.23146460847372205  1.0000
  C   C9        1.0  0.07045769761127468  0.0484589551309327  0.6849988922288971  1.0000
  C   C10       1.0  0.9295468847848907  0.9515392084914254  0.3150031661205333  1.0000
  C   C11       1.0  0.2846356542073281  0.10117711570697452  0.7101836094466947  1.0000
  C   C12       1.0  0.7153743493133716  0.8988255966885177  0.28982146293687094  1.0000
  C   C13       1.0  0.6415811359673141  0.1596966620152571  0.8565920968313137  1.0000
  C   C14       1.0  0.35842796323368736  0.8403094842610842  0.14341251286519  1.0000
  C   C15       1.0  0.9708716241911969  0.3516709771236393  0.8654496598311782  1.0000
  C   C16       1.0  0.029130135381748825  0.6483272115623322  0.1345535329701164  1.0000
  C   C17       1.0  0.0391826211075495  0.506558380325586  0.950616897298694  1.0000
  C   C18       1.0  0.9608275148224195  0.4934420469932803  0.049388672618221156  1.0000
  C   C19       1.0  0.7970101411565621  0.261150578051577  0.4393121262406652  1.0000
  C   C20       1.0  0.20298479116073762  0.7388682336380442  0.5606904271653406  1.0000
  C   C21       1.0  0.7478388843595737  0.2512569872688815  0.32383552915194264  1.0000
  C   C22       1.0  0.2521574668032471  0.7487492394532183  0.676167122822811  1.0000
  C   C23       1.0  0.9104561627730021  0.307102016163725  0.2848626463066921  1.0000
  C   C24       1.0  0.08953592393252317  0.6929042265934556  0.7151369988424321  1.0000
  C   C25       1.0  0.11703834588534792  0.3687040650174397  0.35980018484189463  1.0000
  C   C26       1.0  0.8829532061460412  0.6313113144528586  0.6401966854232484  1.0000
  C   C27       1.0  0.16245477569719916  0.37650263888930624  0.47512589827814367  1.0000
  C   C28       1.0  0.8375425922896866  0.623523010153356  0.5248755975770862  1.0000
  C   C29       1.0  0.002038565219869833  0.32422218683513654  0.5162054758560259  1.0000
  C   C30       1.0  0.997956127464299  0.6758012129746902  0.4838000062361304  1.0000
  S   S1        1.0  0.5212932955665508  0.49588705782607445  0.2040345534415451  1.0000
  S   S2        1.0  0.47869373173925583  0.5040826001227503  0.795957054357146  1.0000
  N   N1        1.0  0.20662512751804477  0.2008465857076018  0.0974794500176159  1.0000
  N   N2        1.0  0.7933621192725793  0.799118469747455  0.902506090092629  1.0000
  N   N3        1.0  0.11434508307915078  0.030294189687843698  0.8737464791256215  1.0000
  N   N4        1.0  0.8856601133893703  0.9696799365883706  0.12625010042896892  1.0000
  N   N5        1.0  0.7455429954627634  0.27145117135795965  0.819819449769497  1.0000
  N   N6        1.0  0.2544620738769937  0.7285503992398648  0.18017843966465114  1.0000
  N   N7        1.0  0.627671232308174  0.20523433942697983  0.4816062747774623  1.0000
  N   N8        1.0  0.37231980759422356  0.794777615100891  0.5183908406501061  1.0000
  O   O1        1.0  0.723677316854598  0.09658503984243791  0.9204270575077445  1.0000
  O   O2        1.0  0.2763266929676362  0.9034096557168071  0.07956582899723938  1.0000
  O   O3        1.0  0.6647214364690653  0.2545343293396699  0.5852413621028987  1.0000
  O   O4        1.0  0.3352536353441522  0.7454845859274571  0.4147534374547277  1.0000
  O   O5        1.0  0.4543214994269675  0.1111399802310018  0.4122079886268821  1.0000
  O   O6        1.0  0.5456785285079775  0.8888627516127345  0.5877861440773557  1.0000
