data_image0
_chemical_formula_structural       K8H48C40O44
_chemical_formula_sum              "K8 H48 C40 O44"
_cell_length_a       6.832554898192371
_cell_length_b       13.023065898148843
_cell_length_c       18.2390556176279
_cell_angle_alpha    109.5348199758345
_cell_angle_beta     89.97499588109102
_cell_angle_gamma    105.2128693845863

_space_group_name_H-M_alt    "P 1"
_space_group_IT_number       1

loop_
  _space_group_symop_operation_xyz
  'x, y, z'

loop_
  _atom_site_type_symbol
  _atom_site_label
  _atom_site_symmetry_multiplicity
  _atom_site_fract_x
  _atom_site_fract_y
  _atom_site_fract_z
  _atom_site_occupancy
  K   K1        1.0  0.9275402782938257  0.1652315537895106  0.23438681492976346  1.0000
  K   K2        1.0  0.7631748366939205  0.8353129739525187  0.2656767653162291  1.0000
  K   K3        1.0  0.07246230178226658  0.834769751252317  0.7656143362237344  1.0000
  K   K4        1.0  0.2368102229780149  0.1646942738533212  0.7343279939721938  1.0000
  K   K5        1.0  0.5079974183230362  0.2993964326491607  0.5638785622762441  1.0000
  K   K6        1.0  0.20847275633921916  0.700761764083559  0.9364702524453394  1.0000
  K   K7        1.0  0.49200596702667804  0.7006006242901888  0.4361182886854921  1.0000
  K   K8        1.0  0.7915270871987372  0.2992369928273034  0.0635286479993553  1.0000
  H   H1        1.0  0.1379031413079517  0.4749730745627048  0.4008442370651721  1.0000
  H   H2        1.0  0.662775232589624  0.525388746049451  0.09934092627491958  1.0000
  H   H3        1.0  0.8620967434192153  0.5250316192047038  0.5991555272761461  1.0000
  H   H4        1.0  0.33722126021835663  0.47460916487146676  0.900658869765458  1.0000
  H   H5        1.0  0.21643267146629344  0.3854705157999377  0.3149389029671853  1.0000
  H   H6        1.0  0.8306763646737423  0.6147950400070102  0.18527194785900755  1.0000
  H   H7        1.0  0.783572027800801  0.6145350250421729  0.6850605141892104  1.0000
  H   H8        1.0  0.16932116810599496  0.38520202483861243  0.814728743391548  1.0000
  H   H9        1.0  0.3653345372165688  0.4295467369288913  0.4063952668620843  1.0000
  H   H10       1.0  0.9357279182056855  0.5704731915477765  0.09384514155689058  1.0000
  H   H11       1.0  0.6346663867542046  0.5704571074235927  0.5936037470716329  1.0000
  H   H12       1.0  0.06426961408862301  0.4295238710714245  0.906154452615148  1.0000
  H   H13       1.0  0.7488616167402068  0.9157799850284005  0.6907135753400128  1.0000
  H   H14       1.0  0.8322949242979261  0.0839817348134062  0.8092299626956604  1.0000
  H   H15       1.0  0.2511344500451429  0.0842170687135919  0.3092816306464456  1.0000
  H   H16       1.0  0.1677093111553275  0.9160170275781352  0.1907716800598251  1.0000
  H   H17       1.0  0.5422155045240159  0.8052657584741495  0.626897382735109  1.0000
  H   H18       1.0  0.7357422357950584  0.1943635000167419  0.8729976488780338  1.0000
  H   H19       1.0  0.4577770194787192  0.1947329907865125  0.3730976785772739  1.0000
  H   H20       1.0  0.2642643106591366  0.8056369555532541  0.1270027516108598  1.0000
  H   H21       1.0  0.5017106227244524  0.9369943747546328  0.6874257012780945  1.0000
  H   H22       1.0  0.5638738739130246  0.06241789694140461  0.812576287422033  1.0000
  H   H23       1.0  0.49828714086998366  0.06300607430682699  0.31257140874624423  1.0000
  H   H24       1.0  0.4361326739974558  0.9375825653078422  0.18742740430241872  1.0000
  H   H25       1.0  0.7196472202509979  0.4592021444684987  0.4612627808555416  1.0000
  H   H26       1.0  0.26015401779921615  0.5407750628586141  0.03869153922713046  1.0000
  H   H27       1.0  0.28035200763883245  0.5407983079041332  0.5387359746580743  1.0000
  H   H28       1.0  0.7398468652250614  0.4592228457505243  0.9613071593492253  1.0000
  H   H29       1.0  0.6700269824630779  0.3512237978346278  0.3863513522710847  1.0000
  H   H30       1.0  0.3194631591875776  0.6487651226830522  0.11361755841120669  1.0000
  H   H31       1.0  0.329974748723032  0.6487758073210514  0.6136477497849456  1.0000
  H   H32       1.0  0.6805354128357736  0.35123109274763936  0.886382382431755  1.0000
  H   H33       1.0  0.5197407493712304  0.5295747672715336  0.7727551048989412  1.0000
  H   H34       1.0  0.990667002460306  0.47048719243097276  0.7273984168954614  1.0000
  H   H35       1.0  0.480256975218431  0.47041975495225336  0.22724607808211772  1.0000
  H   H36       1.0  0.009330953672204583  0.5295107173482876  0.2726008304771597  1.0000
  H   H37       1.0  0.3708791096844735  0.417979186445649  0.7114199062024014  1.0000
  H   H38       1.0  0.9531919470095006  0.5821073210787304  0.7886162398875455  1.0000
  H   H39       1.0  0.6291169587998764  0.5820178750887947  0.2885791395588768  1.0000
  H   H40       1.0  0.04680893674292717  0.4178905908700371  0.2113841043065889  1.0000
  H   H41       1.0  0.7648117308198009  0.36822307703353374  0.2637290284028141  1.0000
  H   H42       1.0  0.3977392262779702  0.6318938303048042  0.23619068686301867  1.0000
  H   H43       1.0  0.2351885365563504  0.6317765270373812  0.736269525242463  1.0000
  H   H44       1.0  0.6022603849889947  0.36810153571097  0.7638085035723351  1.0000
  H   H45       1.0  0.5529007710569189  0.2748025597319028  0.2452846357383009  1.0000
  H   H46       1.0  0.2792242389838364  0.725272393510707  0.2546399731313898  1.0000
  H   H47       1.0  0.44710199985823335  0.7251961982352596  0.7547148129886522  1.0000
  H   H48       1.0  0.720769709338647  0.2747204277706246  0.7453586124699498  1.0000
  C   C1        1.0  0.8125684292707193  0.08178992152191711  0.5416243615063365  1.0000
  C   C2        1.0  0.7308843016099545  0.9181465347548184  0.9584159624445336  1.0000
  C   C3        1.0  0.18742768016011974  0.9182130757558651  0.4583749996123032  1.0000
  C   C4        1.0  0.2691201670851484  0.08185562298464788  0.041587584477333905  1.0000
  C   C5        1.0  0.9279856301619843  0.19239688329054866  0.547493463422704  1.0000
  C   C6        1.0  0.7357942082192536  0.807583977227125  0.952590728185932  1.0000
  C   C7        1.0  0.07200963037888637  0.8076044141010854  0.4525038485984751  1.0000
  C   C8        1.0  0.26420690901773713  0.1924173311827744  0.0474120687138395  1.0000
  C   C9        1.0  0.9996885463336227  0.28860573505458825  0.6237775098082068  1.0000
  C   C10       1.0  0.711043997344369  0.711251333213447  0.8763330924727059  1.0000
  C   C11       1.0  0.00030775345086208125  0.7113947129221219  0.37621905180537146  1.0000
  C   C12       1.0  0.2889543840826292  0.2887474304051096  0.12366909933604833  1.0000
  C   C13       1.0  0.9637992111407029  0.20447230730427174  0.4734815722784803  1.0000
  C   C14       1.0  0.7599351476657861  0.795661280796793  0.02661474382922786  1.0000
  C   C15       1.0  0.03619812861553839  0.7955272945971359  0.5265158845452831  1.0000
  C   C16       1.0  0.24006847262477035  0.20433917928293968  0.9733878510737028  1.0000
  C   C17       1.0  0.08303798002371818  0.30799577732783934  0.46428244251639234  1.0000
  C   C18       1.0  0.7758170682961633  0.6921977875010511  0.03585128037397568  1.0000
  C   C19       1.0  0.9169597842988607  0.6920046750732496  0.5357163131257252  1.0000
  C   C20       1.0  0.22417796167271584  0.3078001267879458  0.9641501614126825  1.0000
  C   C21       1.0  0.868238472847807  0.09684611079920562  0.4149853434444282  1.0000
  C   C22       1.0  0.772153835363369  0.9033754997504174  0.0850785320113161  1.0000
  C   C23       1.0  0.13175971507025958  0.9031551876487284  0.5850125168590098  1.0000
  C   C24       1.0  0.22784936133169958  0.09662411428247  0.9149249582303014  1.0000
  C   C25       1.0  0.7663639903168615  0.0150937587317017  0.45971339618843393  1.0000
  C   C26       1.0  0.751588851919777  0.9849597085606302  0.04031134705665091  1.0000
  C   C27       1.0  0.23363523757296886  0.9849066936409371  0.540285359325182  1.0000
  C   C28       1.0  0.2484162326661661  0.0150407548302738  0.9596928933355644  1.0000
  C   C29       1.0  0.21083866745573224  0.406348570568788  0.3779990610317796  1.0000
  C   C30       1.0  0.8044475437828565  0.5938785784787299  0.12220310792651648  1.0000
  C   C31       1.0  0.7891670712976904  0.5936561219716054  0.6220001542562699  1.0000
  C   C32       1.0  0.19555041283508254  0.4061193335269452  0.8777972365246143  1.0000
  C   C33       1.0  0.6100104538802851  0.8966521695700675  0.6531351561068774  1.0000
  C   C34       1.0  0.7124640717863853  0.10298401611434828  0.8468356755172125  1.0000
  C   C35       1.0  0.38998542158056887  0.1033474290201681  0.34686065522760157  1.0000
  C   C36       1.0  0.2875428992341467  0.8970172899553288  0.15316602379003535  1.0000
  C   C37       1.0  0.7597087870270088  0.0477764902032973  0.608289872926875  1.0000
  C   C38       1.0  0.7115613221470625  0.9520248149214511  0.8917336276957573  1.0000
  C   C39       1.0  0.24028793732381365  0.952224808273087  0.39170798750505753  1.0000
  C   C40       1.0  0.2884431465480403  0.0479773428180224  0.10826991922611741  1.0000
  O   O1        1.0  0.1788429387128829  0.3929767423579519  0.5197255834414705  1.0000
  O   O2        1.0  0.7868939380186504  0.6071983399488303  0.9804469670105008  1.0000
  O   O3        1.0  0.8211533615570303  0.6070237078451726  0.48027207525063187  1.0000
  O   O4        1.0  0.2130937741140144  0.3927995744824245  0.019554475418658526  1.0000
  O   O5        1.0  0.08846480386267065  0.30409873355729633  0.3890210598585213  1.0000
  O   O6        1.0  0.78495921258213  0.6961836098135091  0.11112873069853176  1.0000
  O   O7        1.0  0.9115371593517168  0.6959042613802637  0.6109772036675949  1.0000
  O   O8        1.0  0.21504251957484394  0.303815999794999  0.8888725655145465  1.0000
  O   O9        1.0  0.8589401515941615  0.06349726502016038  0.3424498393951154  1.0000
  O   O10       1.0  0.7966152787526893  0.9368978538411666  0.15760744320422762  1.0000
  O   O11       1.0  0.14106157910652672  0.9365023379090969  0.6575481655824048  1.0000
  O   O12       1.0  0.2033885328623697  0.06310006139032248  0.8423945463506827  1.0000
  O   O13       1.0  0.6694701660146122  0.9151687972691889  0.4243074872197213  1.0000
  O   O14       1.0  0.7543855984239015  0.0848660670630963  0.0756844714786737  1.0000
  O   O15       1.0  0.3305301020896891  0.08483081014134801  0.5756927120433346  1.0000
  O   O16       1.0  0.245616558784846  0.915134395271501  0.9243192206312757  1.0000
  O   O17       1.0  0.6558067492275583  0.9360758572336324  0.5880663733998049  1.0000
  O   O18       1.0  0.7192465536792412  0.06372643334977819  0.9119472714566471  1.0000
  O   O19       1.0  0.3441895507996406  0.06392459185628499  0.41193073675303543  1.0000
  O   O20       1.0  0.2807666956911846  0.9362757208793584  0.08805462907644575  1.0000
  O   O21       1.0  0.8062328083220932  0.11086232988984789  0.6776287035204831  1.0000
  O   O22       1.0  0.6947540137219548  0.8888807589212888  0.8224004087137617  1.0000
  O   O23       1.0  0.19376306859504658  0.8891372753796388  0.3223703990495537  1.0000
  O   O24       1.0  0.3052561179176293  0.111123943552613  0.1776037430421269  1.0000
  O   O25       1.0  0.8779805146317513  0.3479488221187807  0.6487838249797521  1.0000
  O   O26       1.0  0.529919809891922  0.6518594124318184  0.8515459526010646  1.0000
  O   O27       1.0  0.1220124358790429  0.6520507865472283  0.3512169234650671  1.0000
  O   O28       1.0  0.4700798437778174  0.3481418960065312  0.1484568444272085  1.0000
  O   O29       1.0  0.17265314099819307  0.3008806196141691  0.6557368967500778  1.0000
  O   O30       1.0  0.8715394634304515  0.698996547719453  0.8441910406327652  1.0000
  O   O31       1.0  0.8273469343253195  0.6991215259653739  0.3442606166254407  1.0000
  O   O32       1.0  0.128459342320177  0.30100306528558457  0.1558119014550883  1.0000
  O   O33       1.0  0.6616246253011083  0.3760556172807981  0.44360349827348244  1.0000
  O   O34       1.0  0.2857404139062112  0.6239503029600542  0.05640421148376622  1.0000
  O   O35       1.0  0.33837649047958956  0.6239456844498577  0.556396007390731  1.0000
  O   O36       1.0  0.7142619331707465  0.3760476078470559  0.9435955840426119  1.0000
  O   O37       1.0  0.5162206179957423  0.4568632437284138  0.7302474181043836  1.0000
  O   O38       1.0  0.05977712524764908  0.543272528162916  0.7698341574188562  1.0000
  O   O39       1.0  0.48377460354034696  0.5431321268255473  0.2697539668735089  1.0000
  O   O40       1.0  0.9402212549657776  0.456726229889604  0.23016529169359504  1.0000
  O   O41       1.0  0.6788013710276675  0.30572935904569937  0.2802318227810972  1.0000
  O   O42       1.0  0.37459482815927453  0.6945322728623536  0.21977635500964962  1.0000
  O   O43       1.0  0.3211993206721147  0.6942710944116898  0.7197674811432792  1.0000
  O   O44       1.0  0.6254037438640765  0.3054639425683376  0.780223585833305  1.0000
