data_image0
_chemical_formula_structural       Pu4H16C32O24
_chemical_formula_sum              "Pu4 H16 C32 O24"
_cell_length_a       8.848950353630702
_cell_length_b       10.419701103666362
_cell_length_c       10.857880973214133
_cell_angle_alpha    117.86548319759234
_cell_angle_beta     90.00238282368214
_cell_angle_gamma    90.00092625625695

_space_group_name_H-M_alt    "P 1"
_space_group_IT_number       1

loop_
  _space_group_symop_operation_xyz
  'x, y, z'

loop_
  _atom_site_type_symbol
  _atom_site_label
  _atom_site_symmetry_multiplicity
  _atom_site_fract_x
  _atom_site_fract_y
  _atom_site_fract_z
  _atom_site_occupancy
  Pu  Pu1       1.0  0.4036245127084683  0.7541492643909891  0.3055000697371639  1.0000
  Pu  Pu2       1.0  0.9036232361473892  0.7458283397948976  0.19447658861989237  1.0000
  Pu  Pu3       1.0  0.5963712605043268  0.24585229754440266  0.6945140742408712  1.0000
  Pu  Pu4       1.0  0.09637592670171097  0.25417206602067216  0.8055149356704591  1.0000
  H   H1        1.0  0.6928702330789277  0.5040756656314257  0.5326543141033468  1.0000
  H   H2        1.0  0.19289577427677074  0.9959425413822841  0.9673600084870771  1.0000
  H   H3        1.0  0.30711988992464256  0.495938911563563  0.4673619536906202  1.0000
  H   H4        1.0  0.807106778882975  0.0040513774032647  0.0326369100509396  1.0000
  H   H5        1.0  0.10664549113989351  0.6691679242547438  0.7619432334306779  1.0000
  H   H6        1.0  0.6066141792485737  0.8308327570247513  0.7380299862076356  1.0000
  H   H7        1.0  0.893367232449542  0.330831375638155  0.2380413506299348  1.0000
  H   H8        1.0  0.3933906340954252  0.16915575147967132  0.26197004406360247  1.0000
  H   H9        1.0  0.10717122027058679  0.8707774876746442  0.6974139917930416  1.0000
  H   H10       1.0  0.6071179502567502  0.6292177383615043  0.8025420748666009  1.0000
  H   H11       1.0  0.8928437630522906  0.1292130980934374  0.3025574938106885  1.0000
  H   H12       1.0  0.39288686353065566  0.37078165255879014  0.19747110047664765  1.0000
  H   H13       1.0  0.9057027895442359  0.8827281557284863  0.5454646503914446  1.0000
  H   H14       1.0  0.40568544832872516  0.6172622580426222  0.9544974285112036  1.0000
  H   H15       1.0  0.0943031532602845  0.11725594571188945  0.4545131514510103  1.0000
  H   H16       1.0  0.5943216257258256  0.38274472619965383  0.04551729330069778  1.0000
  C   C1        1.0  0.6685062856107749  0.702232283602612  0.43658338620304704  1.0000
  C   C2        1.0  0.1684947293807113  0.7977493203234474  0.06339086414474335  1.0000
  C   C3        1.0  0.33149852742366187  0.29775510401209715  0.5634050919654783  1.0000
  C   C4        1.0  0.8314942627551434  0.202242421130002  0.936603240574229  1.0000
  C   C5        1.0  0.7891996576208911  0.6918870028218223  0.5262188252592779  1.0000
  C   C6        1.0  0.2891937151609056  0.8081163782687285  0.9737690832099802  1.0000
  C   C7        1.0  0.21080854591806997  0.30811557729768413  0.4737745904297341  1.0000
  C   C8        1.0  0.7108031878469275  0.1918808177804436  0.02623574462190701  1.0000
  C   C9        1.0  0.7844601455510513  0.583195770161062  0.5673515098722675  1.0000
  C   C10       1.0  0.2844676983928949  0.9168248279053443  0.9326531328231694  1.0000
  C   C11       1.0  0.2155333674451256  0.41681986033952967  0.4326550970745231  1.0000
  C   C12       1.0  0.7155393750791106  0.08316692566075552  0.06734466157737272  1.0000
  C   C13       1.0  0.9000703232216976  0.5755432709373237  0.6519192791899825  1.0000
  C   C14       1.0  0.400069124303691  0.9244828365211788  0.8480852479265909  1.0000
  C   C15       1.0  0.09992092987483399  0.4244799704460007  0.3480944079463839  1.0000
  C   C16       1.0  0.5999413394943786  0.0755110941815218  0.15191536003539602  1.0000
  C   C17       1.0  0.0176694945147133  0.6775749819942831  0.6969503319352486  1.0000
  C   C18       1.0  0.5176379967857939  0.8224364090352198  0.8030302119778625  1.0000
  C   C19       1.0  0.9823398391246131  0.3224286837413857  0.30304356821427103  1.0000
  C   C20       1.0  0.4823724671535316  0.17755970462145138  0.1969750540715154  1.0000
  C   C21       1.0  0.018433529492966696  0.788938907603047  0.6600808259285459  1.0000
  C   C22       1.0  0.5183984359603002  0.7110616303142834  0.8398866115244702  1.0000
  C   C23       1.0  0.9815848443243026  0.21105279323737142  0.3399003672519711  1.0000
  C   C24       1.0  0.48160411755362986  0.28893666320303163  0.16012239010603216  1.0000
  C   C25       1.0  0.9051297631985092  0.795897835640524  0.5743251432497658  1.0000
  C   C26       1.0  0.4051069261085942  0.7041034384111952  0.9256500515584348  1.0000
  C   C27       1.0  0.09488296048967729  0.20409822805795133  0.4256644436565012  1.0000
  C   C28       1.0  0.594897887722368  0.29590028900431514  0.07436321690055789  1.0000
  C   C29       1.0  0.8972360748241074  0.4590058477929588  0.6941105772877593  1.0000
  C   C30       1.0  0.39724688799991975  0.04103979689958948  0.805920509470134  1.0000
  C   C31       1.0  0.10274387770470379  0.5410249984167805  0.3059083451974018  1.0000
  C   C32       1.0  0.6027590556988258  0.9589584908003485  0.1940866476344282  1.0000
  O   O1        1.0  0.33830017274409124  0.902431642871605  0.46144642485572973  1.0000
  O   O2        1.0  0.8383083524624907  0.5975325824366563  0.038518391126856975  1.0000
  O   O3        1.0  0.6617182019037386  0.09759047814334558  0.5385557108648626  1.0000
  O   O4        1.0  0.16168855014019098  0.4024634809577066  0.9614711953786994  1.0000
  O   O5        1.0  0.4706474086644548  0.604510864596719  0.15196212723810726  1.0000
  O   O6        1.0  0.9706490073267845  0.8954660536282973  0.34801462839790537  1.0000
  O   O7        1.0  0.5293144622487206  0.39546363035778853  0.848062962731632  1.0000
  O   O8        1.0  0.029354676078810402  0.10452680311470888  0.6519891841840675  1.0000
  O   O9        1.0  0.6956354542835114  0.7533412755694826  0.3508809391147594  1.0000
  O   O10       1.0  0.19562397342364327  0.7466413683792298  0.14909376318492218  1.0000
  O   O11       1.0  0.30437161888104913  0.24664719180056943  0.6491061789310848  1.0000
  O   O12       1.0  0.8043537178216056  0.25334602753795826  0.8508974812143677  1.0000
  O   O13       1.0  0.5334393410704619  0.6661049966183157  0.4468333758837275  1.0000
  O   O14       1.0  0.0334268097841957  0.8338746832804348  0.05313917500389925  1.0000
  O   O15       1.0  0.4665699925045884  0.3338910817213545  0.5531608224661895  1.0000
  O   O16       1.0  0.9665621822757373  0.16612137996187218  0.9468504113012985  1.0000
  O   O17       1.0  0.0132962952450271  0.4354356655497967  0.7498221870454387  1.0000
  O   O18       1.0  0.5133023712388081  0.0645680494737988  0.7501681168725939  1.0000
  O   O19       1.0  0.9866859162551763  0.5645593031439161  0.25016414773842394  1.0000
  O   O20       1.0  0.486702442056348  0.935421535801247  0.24982963091282787  1.0000
  O   O21       1.0  0.7753932638950329  0.38640709020797454  0.6727596351468748  1.0000
  O   O22       1.0  0.2754483740751965  0.11368821854322425  0.827310715290409  1.0000
  O   O23       1.0  0.22456295783396024  0.6136563410264699  0.3272793535292564  1.0000
  O   O24       1.0  0.724557569531143  0.8863068094321205  0.1726940662125853  1.0000
