data_image0
_chemical_formula_structural       Li2H10C12N4O10
_chemical_formula_sum              "Li2 H10 C12 N4 O10"
_cell_length_a       3.514828349339726
_cell_length_b       8.447502046234867
_cell_length_c       12.064720435123988
_cell_angle_alpha    90.00048205832279
_cell_angle_beta     90.00007556488949
_cell_angle_gamma    100.12830599715579

_space_group_name_H-M_alt    "P 1"
_space_group_IT_number       1

loop_
  _space_group_symop_operation_xyz
  'x, y, z'

loop_
  _atom_site_type_symbol
  _atom_site_label
  _atom_site_symmetry_multiplicity
  _atom_site_fract_x
  _atom_site_fract_y
  _atom_site_fract_z
  _atom_site_occupancy
  Li  Li1       1.0  0.6235235114303277  0.9966203245369198  0.24999802017271114  1.0000
  Li  Li2       1.0  0.37647773937197826  0.0033831684845821997  0.7500000329214628  1.0000
  H   H1        1.0  0.8955440418877599  0.4714349489260173  0.4210713480910113  1.0000
  H   H2        1.0  0.10444925288869915  0.5285670670898173  0.9210730499743959  1.0000
  H   H3        1.0  0.10446863138495387  0.5285686503040453  0.5789267050049886  1.0000
  H   H4        1.0  0.8955249614659238  0.47143258026679996  0.07892334537897477  1.0000
  H   H5        1.0  0.2095801712047418  0.18664437956071114  0.31633198242046484  1.0000
  H   H6        1.0  0.7904167523334634  0.8133539324192398  0.8163305620254203  1.0000
  H   H7        1.0  0.7904276813674471  0.8133615709628118  0.6836569531891213  1.0000
  H   H8        1.0  0.20956995889832794  0.1866410387420316  0.18365920241215855  1.0000
  H   H9        1.0  0.4999827195795774  0.9999963908752109  1.3381035089000004e-06  1.0000
  H   H10       1.0  0.5000189873262072  5.102328330498951e-06  0.5000033639163846  1.0000
  C   C1        1.0  0.7538563831184885  0.6890268469954178  0.34547386184605233  1.0000
  C   C2        1.0  0.24614702857546428  0.310973096684002  0.8454743265860853  1.0000
  C   C3        1.0  0.2461496883513234  0.31097429469515697  0.6545275066937463  1.0000
  C   C4        1.0  0.7538476204050824  0.6890279387766114  0.1545237265000097  1.0000
  C   C5        1.0  0.8532573969842546  0.5354720420163159  0.3451161853032828  1.0000
  C   C6        1.0  0.14675172188444918  0.46452795015913756  0.8451183521134453  1.0000
  C   C7        1.0  0.14675394043691622  0.46452795056094226  0.6548868409597899  1.0000
  C   C8        1.0  0.8532363253026317  0.5354706277726893  0.15488467414238724  1.0000
  C   C9        1.0  0.6955761737359295  0.7842631435289533  0.4481213520246995  1.0000
  C   C10       1.0  0.3044237692102527  0.21573329030790941  0.948117958834551  1.0000
  C   C11       1.0  0.30445496917882037  0.21574422176310293  0.5518866474404192  1.0000
  C   C12       1.0  0.6955534846387648  0.7842591968045552  0.05188175195012689  1.0000
  N   N1        1.0  0.704529277784992  0.7625375270381268  0.2499990029537926  1.0000
  N   N2        1.0  0.29546251558266334  0.2374634818757002  0.7499998789948137  1.0000
  N   N3        1.0  0.9024873796117062  0.45948039447865346  0.2500006280954352  1.0000
  N   N4        1.0  0.09751583624993995  0.540520720670493  0.7500023981698404  1.0000
  O   O1        1.0  0.5859706514362129  0.9199636543023785  0.4244427776707481  1.0000
  O   O2        1.0  0.414026166449922  0.08003244718960899  0.9244402763158346  1.0000
  O   O3        1.0  0.4140637923846952  0.08004493976477531  0.5755643929354406  1.0000
  O   O4        1.0  0.5859493062401313  0.919955231025682  0.07556192104342328  1.0000
  O   O5        1.0  0.749744416266118  0.7310834901108053  0.5418465413900648  1.0000
  O   O6        1.0  0.2502474187714725  0.2689136549189186  0.04184596800756419  1.0000
  O   O7        1.0  0.2503133177558752  0.26892651856431377  0.45815482718258227  1.0000
  O   O8        1.0  0.7496900402654773  0.731071273619122  0.9581495984348363  1.0000
  O   O9        1.0  0.18195917961651278  0.1163133652172448  0.24999786931320497  1.0000
  O   O10       1.0  0.8180435909046935  0.8836865476500719  0.7499968683188029  1.0000
