data_image0
_chemical_formula_structural       Zn4H22C47O19
_chemical_formula_sum              "Zn4 H22 C47 O19"
_cell_length_a       15.095963422499397
_cell_length_b       15.153558071420155
_cell_length_c       17.912891822820526
_cell_angle_alpha    81.8510948075193
_cell_angle_beta     80.79074202643939
_cell_angle_gamma    89.46816194874295

_space_group_name_H-M_alt    "P 1"
_space_group_IT_number       1

loop_
  _space_group_symop_operation_xyz
  'x, y, z'

loop_
  _atom_site_type_symbol
  _atom_site_label
  _atom_site_symmetry_multiplicity
  _atom_site_fract_x
  _atom_site_fract_y
  _atom_site_fract_z
  _atom_site_occupancy
  Zn  Zn1       1.0  0.44104425848180995  0.4434823220597082  0.4281568806849735  1.0000
  Zn  Zn2       1.0  0.5551885557770788  0.4093244843406225  0.565460427069425  1.0000
  Zn  Zn3       1.0  0.4088840524982871  0.5612623494913861  0.568108654164739  1.0000
  Zn  Zn4       1.0  0.5878304567083036  0.5864712551789706  0.4422365153067531  1.0000
  H   H1        1.0  0.28980621323816536  0.3101348866096815  0.9389120712522542  1.0000
  H   H2        1.0  0.8676518443583988  0.5695939265823213  0.41033847284202096  1.0000
  H   H3        1.0  0.8091385181957095  0.41054533562770956  0.6313770383035547  1.0000
  H   H4        1.0  0.0263866003630184  0.6079835026595148  0.3521244531513616  1.0000
  H   H5        1.0  0.9719347006516444  0.40866439914061903  0.6427835735682309  1.0000
  H   H6        1.0  0.1292270976866305  0.4549255896777212  0.5878917584489898  1.0000
  H   H7        1.0  0.5094021856857937  0.18979970523378142  0.3597162570111863  1.0000
  H   H8        1.0  0.5220929337217584  0.028416600654601606  0.3460522533202592  1.0000
  H   H9        1.0  0.48476475009049125  0.8034947897069885  0.648701753701417  1.0000
  H   H10       1.0  0.5268843875820864  0.872409651899446  0.40423829439767894  1.0000
  H   H11       1.0  0.324356622446942  0.3329543235442145  0.7969158920387545  1.0000
  H   H12       1.0  0.32003170870479647  0.3422615042559869  0.062388241470088715  1.0000
  H   H13       1.0  0.7721461546943117  0.6137163386036592  0.06938646196500292  1.0000
  H   H14       1.0  0.47783181351885423  0.4805702777723083  0.19567065671191847  1.0000
  H   H15       1.0  0.641780347239724  0.5150892088981962  0.8678180941287865  1.0000
  H   H16       1.0  0.4096678555174762  0.4151978930625404  0.1388004755294006  1.0000
  H   H17       1.0  0.7741251079290878  0.5634899730446038  0.8649088228782561  1.0000
  H   H18       1.0  0.17623764703073158  0.6390905451956642  0.3099831679799436  1.0000
  H   H19       1.0  0.4787247987508465  0.0848835937525365  0.6573641098160935  1.0000
  H   H20       1.0  0.48157977289557163  0.9185570347022463  0.7171811565034859  1.0000
  H   H21       1.0  0.5396616809573586  0.6099109984674483  0.8315751081743273  1.0000
  H   H22       1.0  0.7485508802605382  0.576651280346738  0.2773181975399055  1.0000
  C   C1        1.0  0.7325086651703714  0.4939686183677238  0.5145829670664382  1.0000
  C   C2        1.0  0.6821968309052908  0.5806688966439069  0.1747630195446135  1.0000
  C   C3        1.0  0.5421648408226928  0.5084104518259736  0.1660188985856408  1.0000
  C   C4        1.0  0.5660102408442925  0.5114691482554504  0.08636411299262654  1.0000
  C   C5        1.0  0.6510710287922449  0.550541160328102  0.05059148407247705  1.0000
  C   C6        1.0  0.5065659484772098  0.4756606731547848  0.04166488832784412  1.0000
  C   C7        1.0  0.529678671692352  0.4866487287102005  0.9606931116870713  1.0000
  C   C8        1.0  0.6174987079454867  0.5190889126330092  0.9280390735179864  1.0000
  C   C9        1.0  0.6774884355264064  0.549301943656765  0.969722613614174  1.0000
  C   C10       1.0  0.42774239292850075  0.42553258310034886  0.07688201981218158  1.0000
  C   C11       1.0  0.37691580993619306  0.3850970319970699  0.034272996739737514  1.0000
  C   C12       1.0  0.26620099477325004  0.5209006377622316  0.48216153400640854  1.0000
  C   C13       1.0  0.3958775246642291  0.3983108354494931  0.9529450617016624  1.0000
  C   C14       1.0  0.4684259450535819  0.45614087771519257  0.9151447805124137  1.0000
  C   C15       1.0  0.34425060289338916  0.3551508727703663  0.9091757738819625  1.0000
  C   C16       1.0  0.36256556381793803  0.36854140420374654  0.8303119354068613  1.0000
  C   C17       1.0  0.4780873063644293  0.47883836967304916  0.8339608461143156  1.0000
  C   C18       1.0  0.8299260556082118  0.49128683979966337  0.5200504937869538  1.0000
  C   C19       1.0  0.168496640057576  0.5266390742561456  0.47591477875624116  1.0000
  C   C20       1.0  0.04905700170551341  0.5731826131825741  0.40330590339254974  1.0000
  C   C21       1.0  0.1393925309799187  0.5700136578185282  0.4083686571538365  1.0000
  C   C22       1.0  0.1062185372592168  0.4872327126509717  0.5361156291301301  1.0000
  C   C23       1.0  0.4985619511412267  0.26567897006986396  0.48619102573164247  1.0000
  C   C24       1.0  0.013492057973223798  0.48673454378655373  0.5318059976485756  1.0000
  C   C25       1.0  0.9843685488510872  0.5317994222889411  0.4640928817700853  1.0000
  C   C26       1.0  0.8914194975178875  0.5341101760469938  0.4605321388419484  1.0000
  C   C27       1.0  0.8590998902973866  0.44447831890268213  0.5860389671764779  1.0000
  C   C28       1.0  0.9488883005806346  0.44335302544513405  0.5918543407088707  1.0000
  C   C29       1.0  0.49994969428091457  0.1682281987719776  0.48209640715936075  1.0000
  C   C30       1.0  0.5061462028930563  0.8293189631922645  0.5249692851224665  1.0000
  C   C31       1.0  0.4920438902005487  0.944017973861705  0.6066057823919594  1.0000
  C   C32       1.0  0.4929424060296554  0.8549455251467746  0.598748307229414  1.0000
  C   C33       1.0  0.5164330737173586  0.893023540055566  0.4608321853369546  1.0000
  C   C34       1.0  0.5051991268002426  0.7326923307603793  0.517299174674811  1.0000
  C   C35       1.0  0.5104794672926759  0.9848997192881371  0.4677619093490152  1.0000
  C   C36       1.0  0.499050391438935  0.012503172905198302  0.5423206774906576  1.0000
  C   C37       1.0  0.494598227844243  0.1058669044942988  0.5483135735166584  1.0000
  C   C38       1.0  0.5077014066026067  0.13920323845731988  0.40970147370229176  1.0000
  C   C39       1.0  0.5143480360342991  0.0502521490978864  0.40216798351332983  1.0000
  C   C40       1.0  0.44135851968717793  0.4491419856337515  0.7064747477225168  1.0000
  C   C41       1.0  0.563796762893297  0.5367151520035947  0.29392165723465513  1.0000
  C   C42       1.0  0.5978736855051352  0.5415572449317096  0.2101952461367986  1.0000
  C   C43       1.0  0.42800453551237183  0.43205201337429605  0.7924751884358017  1.0000
  C   C44       1.0  0.7069662543811931  0.5849482955991404  0.0961166202021815  1.0000
  C   C45       1.0  0.7676184621227479  0.5741124497418825  0.9261935723227382  1.0000
  C   C46       1.0  0.5278493294856687  0.5600948481579521  0.7938516619379002  1.0000
  C   C47       1.0  0.750035026924657  0.6114348268584919  0.21822116441653355  1.0000
  O   O1        1.0  0.49719570503006605  0.5007024800715741  0.5008076422458814  1.0000
  O   O2        1.0  0.4516780741620111  0.3132939967659852  0.4424897025639609  1.0000
  O   O3        1.0  0.5563138018267255  0.7082568896298657  0.46015037115445506  1.0000
  O   O4        1.0  0.6810346939432109  0.44029092204397097  0.5637468245587627  1.0000
  O   O5        1.0  0.2905470295044381  0.5565481521093147  0.5360653948956013  1.0000
  O   O6        1.0  0.7080432906199194  0.5495064732983224  0.461159179818452  1.0000
  O   O7        1.0  0.3147479023165901  0.47871050322672903  0.4345346124562327  1.0000
  O   O8        1.0  0.5459515072398133  0.29393195956519247  0.5308704063634622  1.0000
  O   O9        1.0  0.45229048171992053  0.6829892610195857  0.5685975922761274  1.0000
  O   O10       1.0  0.4986406745095664  0.39948639394170027  0.6736742163230574  1.0000
  O   O11       1.0  0.5987764990739919  0.5903330368324405  0.3301146904166501  1.0000
  O   O12       1.0  0.3903929543211646  0.5058031263343992  0.6761437500726332  1.0000
  O   O13       1.0  0.5016142407309728  0.4795550886066664  0.321984607644545  1.0000
  O   O14       1.0  0.8316160850536035  0.6027296046875179  0.9502859593536498  1.0000
  O   O15       1.0  0.2046527665845232  0.6094085164383644  0.3516870416303632  1.0000
  O   O16       1.0  0.4814477751128621  0.136222545485559  0.6167451248299403  1.0000
  O   O17       1.0  0.48368126500184166  0.9706745824029713  0.6783368910167411  1.0000
  O   O18       1.0  0.5502107533184459  0.5772934638583748  0.7243670452168091  1.0000
  O   O19       1.0  0.8066896169786734  0.6691642177606243  0.19034025697596482  1.0000
