data_image0
_chemical_formula_structural       Ag2H28C28S8N10O6
_chemical_formula_sum              "Ag2 H28 C28 S8 N10 O6"
_cell_length_a       9.438613955158925
_cell_length_b       9.438598037736645
_cell_length_c       11.327670986697141
_cell_angle_alpha    90.12870044850366
_cell_angle_beta     90.12932803735981
_cell_angle_gamma    112.23125657332285

_space_group_name_H-M_alt    "P 1"
_space_group_IT_number       1

loop_
  _space_group_symop_operation_xyz
  'x, y, z'

loop_
  _atom_site_type_symbol
  _atom_site_label
  _atom_site_symmetry_multiplicity
  _atom_site_fract_x
  _atom_site_fract_y
  _atom_site_fract_z
  _atom_site_occupancy
  Ag  Ag1       1.0  0.915619869971138  0.08438157603111307  0.249999533241585  1.0000
  Ag  Ag2       1.0  0.08438209255253777  0.9156234187969897  0.7500008713268896  1.0000
  H   H1        1.0  0.8726820728626024  0.5273816804016245  0.078323818766485  1.0000
  H   H2        1.0  0.5273842253444199  0.8726744545871267  0.5783238159443158  1.0000
  H   H3        1.0  0.12731946182167764  0.4726221698774039  0.9216765803394794  1.0000
  H   H4        1.0  0.47261682658889725  0.12731680520455768  0.4216827173536544  1.0000
  H   H5        1.0  0.9229157428694488  0.5690033060556201  0.9260685063528129  1.0000
  H   H6        1.0  0.5689990944730708  0.9229089987212189  0.4260679046545661  1.0000
  H   H7        1.0  0.07708641902899417  0.4309993987443476  0.073933656554658  1.0000
  H   H8        1.0  0.430992203775908  0.0770845005651424  0.5739368369052613  1.0000
  H   H9        1.0  0.7280216084673653  0.47398736567296124  0.9669116862542567  1.0000
  H   H10       1.0  0.4739848194658336  0.7280155157626494  0.4669115493159524  1.0000
  H   H11       1.0  0.27197822760820856  0.526017614653078  0.0330895936686844  1.0000
  H   H12       1.0  0.5260147623234203  0.27198030865324796  0.5330941119224946  1.0000
  H   H13       1.0  0.7553905377860345  0.048385085245904194  0.7635002332814622  1.0000
  H   H14       1.0  0.04837538298698252  0.7553840905205716  0.2634953505580029  1.0000
  H   H15       1.0  0.24461929677949712  0.9516211065246979  0.23649667162061414  1.0000
  H   H16       1.0  0.9516285229510044  0.24462322519976004  0.7364980064344807  1.0000
  H   H17       1.0  0.5626012562796772  0.9829238182190846  0.8154025693882119  1.0000
  H   H18       1.0  0.9829154685397369  0.5626038055164742  0.3154002290729991  1.0000
  H   H19       1.0  0.43740557033726907  0.017074348618379497  0.18459782838233002  1.0000
  H   H20       1.0  0.017079532856321553  0.43740803225186636  0.6845931126593641  1.0000
  H   H21       1.0  0.43586852410485477  0.15563679758439966  0.8573650194677356  1.0000
  H   H22       1.0  0.15561175147461628  0.4358548879271565  0.3573470023165727  1.0000
  H   H23       1.0  0.5641304209895351  0.8443544673396627  0.1426370925256961  1.0000
  H   H24       1.0  0.8443717825829395  0.5641375224061349  0.6426321072851096  1.0000
  H   H25       1.0  0.40036296596043996  0.39799224727600796  0.8059106482245895  1.0000
  H   H26       1.0  0.3979640215530295  0.400340669842869  0.3059053368898148  1.0000
  H   H27       1.0  0.5996313114711284  0.6019978571844858  0.1940896779092753  1.0000
  H   H28       1.0  0.6020141267658445  0.5996402435711656  0.6940860732468224  1.0000
  C   C1        1.0  0.837834637541391  0.5618752345365718  0.9942840139718642  1.0000
  C   C2        1.0  0.5618754013477484  0.8378255660595  0.4942828930680605  1.0000
  C   C3        1.0  0.16217006557177163  0.4381286162249081  0.0057208101496542  1.0000
  C   C4        1.0  0.43812353067385607  0.16216568577493717  0.5057227500313815  1.0000
  C   C5        1.0  0.8249790458031327  0.7125944313995588  0.0100160731320571  1.0000
  C   C6        1.0  0.712594328535708  0.8249755730342369  0.5100136093409091  1.0000
  C   C7        1.0  0.17502609495401336  0.2874105737282163  0.9899861081224657  1.0000
  C   C8        1.0  0.287405494790967  0.1750236990484949  0.48998676791503465  1.0000
  C   C9        1.0  0.7858561348430937  0.9502006519562152  0.9966144795430694  1.0000
  C   C10       1.0  0.950201666543428  0.7858553220247726  0.4966118724200115  1.0000
  C   C11       1.0  0.21414708537709967  0.049802055186177085  0.0033885698519213994  1.0000
  C   C12       1.0  0.049799652748987476  0.21414510676667925  0.5033867484564425  1.0000
  C   C13       1.0  0.6745364928724411  0.07833881801217048  0.8178491927747443  1.0000
  C   C14       1.0  0.07832939886091582  0.6745327176629626  0.3178439441995096  1.0000
  C   C15       1.0  0.3254731066920582  0.9216639326364127  0.1821512305568262  1.0000
  C   C16       1.0  0.9216666579125883  0.3254734240217231  0.6821467330238561  1.0000
  C   C17       1.0  0.6588640782019509  0.22447527550476554  0.7802350075710224  1.0000
  C   C18       1.0  0.22446761167651622  0.6588623196363199  0.2802269807990214  1.0000
  C   C19       1.0  0.3411240349532888  0.7755239020907891  0.2197741566287661  1.0000
  C   C20       1.0  0.7755328810269758  0.3411415446623208  0.7197681179369226  1.0000
  C   C21       1.0  0.5251317168545455  0.24711565339049466  0.8109990524059967  1.0000
  C   C22       1.0  0.24708756143061086  0.5251099435125184  0.3109942485247004  1.0000
  C   C23       1.0  0.4748797712127128  0.7528779722120476  0.18900046300411327  1.0000
  C   C24       1.0  0.7528893288678589  0.4748789527409014  0.6889989505584211  1.0000
  C   C25       1.0  0.5044660098458351  0.38132107062232007  0.7813056922391154  1.0000
  C   C26       1.0  0.3813139503124532  0.504452443088006  0.28129286995995534  1.0000
  C   C27       1.0  0.49551507484520835  0.6186621005782271  0.2186972123390802  1.0000
  C   C28       1.0  0.6186920663804187  0.4955434804650025  0.7186951580145545  1.0000
  S   S1        1.0  0.746019531795504  0.7947345622928307  0.903422227212637  1.0000
  S   S2        1.0  0.794735917932087  0.7460201316503755  0.4034190974499765  1.0000
  S   S3        1.0  0.25398262683474115  0.2052681392347324  0.0965808184713381  1.0000
  S   S4        1.0  0.2052647676097763  0.2539814360753212  0.5965795251779795  1.0000
  S   S5        1.0  0.7442927391877774  0.1101667018707673  0.9705178212403567  1.0000
  S   S6        1.0  0.11016919612598024  0.7442941410603863  0.4705124586384244  1.0000
  S   S7        1.0  0.25571580205496497  0.889836046435398  0.0294817156037084  1.0000
  S   S8        1.0  0.8898332236508535  0.2557120277684532  0.5294800064040358  1.0000
  N   N1        1.0  0.8733024573359175  0.7987080844325828  0.10392922771436021  1.0000
  N   N2        1.0  0.7987112424686201  0.8733001098568207  0.6039260691721253  1.0000
  N   N3        1.0  0.12670139990302687  0.2012934870479696  0.8960729371526385  1.0000
  N   N4        1.0  0.20128878676921147  0.12669687874259944  0.3960743008698202  1.0000
  N   N5        1.0  0.8514556357579219  0.9336546065025071  0.09676866724794309  1.0000
  N   N6        1.0  0.9336576731281879  0.8514575652248123  0.596765357400237  1.0000
  N   N7        1.0  0.1485463136929752  0.06635037523596307  0.9032352684265348  1.0000
  N   N8        1.0  0.06634470448599218  0.14854286590905727  0.4032341499637369  1.0000
  N   N9        1.0  0.7251333297693063  0.27487262880533325  0.2500039746826559  1.0000
  N   N10       1.0  0.2748751915403885  0.7251357950200583  0.7500052925934214  1.0000
  O   O1        1.0  0.6662441724529202  0.1318919253814173  0.2746981425556214  1.0000
  O   O2        1.0  0.13189338275903845  0.6662475005266726  0.7746973095006452  1.0000
  O   O3        1.0  0.33375669874316566  0.8681187295338686  0.7253146370633488  1.0000
  O   O4        1.0  0.8681142701229588  0.3337529259572775  0.22531104418342102  1.0000
  O   O5        1.0  0.645340541859312  0.35467222277526383  0.2500018678567884  1.0000
  O   O6        1.0  0.35467206206169516  0.6453442446877345  0.7500003791558286  1.0000
