data_image0
_chemical_formula_structural       Gd2H26C40S2N8O12
_chemical_formula_sum              "Gd2 H26 C40 S2 N8 O12"
_cell_length_a       6.85761998245404
_cell_length_b       9.960706446671136
_cell_length_c       15.036844424204839
_cell_angle_alpha    84.98779132712654
_cell_angle_beta     79.3984884085218
_cell_angle_gamma    79.6930832163762

_space_group_name_H-M_alt    "P 1"
_space_group_IT_number       1

loop_
  _space_group_symop_operation_xyz
  'x, y, z'

loop_
  _atom_site_type_symbol
  _atom_site_label
  _atom_site_symmetry_multiplicity
  _atom_site_fract_x
  _atom_site_fract_y
  _atom_site_fract_z
  _atom_site_occupancy
  Gd  Gd1       1.0  0.4358808293297258  0.047870093531493296  0.11461141330946131  1.0000
  Gd  Gd2       1.0  0.5641184157910288  0.9521299453006405  0.8853879664438722  1.0000
  H   H1        1.0  0.18142770668220012  0.6029744648210169  0.7120986537223005  1.0000
  H   H2        1.0  0.8185754451115131  0.39702769230445506  0.2879015731640706  1.0000
  H   H3        1.0  0.26842653800309796  0.3617023066150935  0.7725047719441491  1.0000
  H   H4        1.0  0.7315766266588567  0.6382998597394547  0.2274961182998609  1.0000
  H   H5        1.0  0.2702878449819223  0.5044042060526124  0.03337688167867732  1.0000
  H   H6        1.0  0.7297135635472786  0.4955989633880831  0.9666240988691754  1.0000
  H   H7        1.0  0.19374527051863316  0.7454895652572018  0.973803667865333  1.0000
  H   H8        1.0  0.8062561122740918  0.2545135857253483  0.02619598596724162  1.0000
  H   H9        1.0  0.42081688751869  0.758892657032895  0.2502391690472693  1.0000
  H   H10       1.0  0.5791841008665911  0.24110636948401518  0.7497594570445827  1.0000
  H   H11       1.0  0.371456749468841  0.6621524893708467  0.4109445270840908  1.0000
  H   H12       1.0  0.62854423891644  0.33784653714606344  0.5890540990077682  1.0000
  H   H13       1.0  0.27431335940988794  0.8239339528461398  0.5367979576318334  1.0000
  H   H14       1.0  0.7256831930541878  0.17606501747304287  0.46320106457397264  1.0000
  H   H15       1.0  0.09975808912699344  0.24542458208055948  0.7006695124403777  1.0000
  H   H16       1.0  0.9002369846966829  0.7545743695060451  0.2993296418034177  1.0000
  H   H17       1.0  0.1557239914343712  0.510013773696343  0.4127395794893474  1.0000
  H   H18       1.0  0.8442776034085571  0.48998324609941313  0.5872617835013543  1.0000
  H   H19       1.0  0.22951554058463597  0.5760607926984633  0.24534644846989553  1.0000
  H   H20       1.0  0.7704855121418175  0.4239382799638205  0.7546554944101587  1.0000
  H   H21       1.0  0.33621935895431676  0.38916111530038217  0.1363951485269936  1.0000
  H   H22       1.0  0.6637796344105525  0.6108399638086296  0.8636055162074785  1.0000
  H   H23       1.0  0.17206880244683728  0.006134383099343701  0.6414041804778989  1.0000
  H   H24       1.0  0.8279298093788227  0.9938625807731042  0.3585961198734964  1.0000
  H   H25       1.0  0.182863817431283  0.9909839536342628  0.00453784479361022  1.0000
  H   H26       1.0  0.8171351501971175  0.0090171070166036  0.9954614932255835  1.0000
  C   C1        1.0  0.1807339995618592  0.6870376223386144  0.8396706256688661  1.0000
  C   C2        1.0  0.8192691522318541  0.3129645347868503  0.16032960121750514  1.0000
  C   C3        1.0  0.2010346056439545  0.580539463374592  0.7823805312578642  1.0000
  C   C4        1.0  0.7989682686574112  0.4194637155695986  0.2176196538943671  1.0000
  C   C5        1.0  0.2492572228066408  0.44626745448548627  0.816294599138665  1.0000
  C   C6        1.0  0.7507459289870795  0.5537347026399785  0.183705627747706  1.0000
  C   C7        1.0  0.2760447413413019  0.41772967946320677  0.906593185969072  1.0000
  C   C8        1.0  0.7239572350408422  0.5822714555691063  0.09340854140470613  1.0000
  C   C9        1.0  0.25111995611806737  0.5264689284828987  0.963158029557455  1.0000
  C   C10       1.0  0.7488831956756528  0.47353322864257286  0.03684219732891591  1.0000
  C   C11       1.0  0.20493140989826494  0.661185336384463  0.9303354294167009  1.0000
  C   C12       1.0  0.7950720193878099  0.3388157989222761  0.0696648392038171  1.0000
  C   C13       1.0  0.3368109194319686  0.2724137484991473  0.9413150411212001  1.0000
  C   C14       1.0  0.6631904633607562  0.7275894024833957  0.05868461271137454  1.0000
  C   C15       1.0  0.3781208595099842  0.8257960504967624  0.30668329459462035  1.0000
  C   C16       1.0  0.6218807095964749  0.1742009508408415  0.6933167416808034  1.0000
  C   C17       1.0  0.3502945321362106  0.7723042684541708  0.3967650335144698  1.0000
  C   C18       1.0  0.6497055197251383  0.2276926864636266  0.6032331447260192  1.0000
  C   C19       1.0  0.29836353103779356  0.8614341864086936  0.46593217951922844  1.0000
  C   C20       1.0  0.7016347775590431  0.1385637808243345  0.534066752382742  1.0000
  C   C21       1.0  0.27643788960736515  0.0031969580847289  0.44345378013336767  1.0000
  C   C22       1.0  0.7235607222182949  0.996800005787719  0.5565465202180279  1.0000
  C   C23       1.0  0.22250522228576128  0.10584441444931504  0.5078800257736731  1.0000
  C   C24       1.0  0.7774910526859526  0.8941555776885933  0.49211895469799327  1.0000
  C   C25       1.0  0.1384580339086199  0.22566301147098497  0.6291401138057111  1.0000
  C   C26       1.0  0.8615385314236903  0.7743359680772741  0.3708595717577339  1.0000
  C   C27       1.0  0.20257061057902348  0.24609180810910655  0.4841805809291487  1.0000
  C   C28       1.0  0.7974282658707567  0.7539041247155466  0.5158190977987474  1.0000
  C   C29       1.0  0.23574966153300636  0.29414025610772393  0.39104663000563283  1.0000
  C   C30       1.0  0.7642495964559898  0.705859791953486  0.6089534131053471  1.0000
  C   C31       1.0  0.2109876546218673  0.4336380020603696  0.36244629210822404  1.0000
  C   C32       1.0  0.7890133852363521  0.5663610613728378  0.637554987414191  1.0000
  C   C33       1.0  0.24786508497917487  0.4695149559876411  0.2707936159727283  1.0000
  C   C34       1.0  0.7521371560270893  0.5304851479968702  0.7292074897775578  1.0000
  C   C35       1.0  0.30702911241196756  0.365866609021012  0.2092191065243938  1.0000
  C   C36       1.0  0.6929696163287815  0.6341355011358016  0.7907821798335704  1.0000
  C   C37       1.0  0.29280733310618956  0.19494169485743373  0.32409429096504994  1.0000
  C   C38       1.0  0.7071927573598702  0.805055287747592  0.675905877348356  1.0000
  C   C39       1.0  0.31134765582284263  0.04939521865503589  0.3501470556578496  1.0000
  C   C40       1.0  0.6886521314143934  0.9506027673105704  0.6498517442061384  1.0000
  S   S1        1.0  0.12658150790198877  0.8591529651702103  0.7973994982962581  1.0000
  S   S2        1.0  0.8734189512350528  0.14084812344230357  0.20260037104258544  1.0000
  N   N1        1.0  0.36086308478478923  0.9592367029394635  0.28359228175190765  1.0000
  N   N2        1.0  0.6391364378283271  0.0407623140739446  0.7164071397355729  1.0000
  N   N3        1.0  0.3276592905289207  0.2331355653191593  0.2343281303942746  1.0000
  N   N4        1.0  0.67234024495243  0.7668634609233179  0.7656719544508449  1.0000
  N   N5        1.0  0.15029417133224146  0.32003710940769275  0.5609703666559938  1.0000
  N   N6        1.0  0.8496999917039787  0.6799597890379515  0.4390296664517095  1.0000
  N   N7        1.0  0.1811779723431286  0.09544522715165017  0.6008489065629945  1.0000
  N   N8        1.0  0.818818896218005  0.9045527490360282  0.39915214744988253  1.0000
  O   O1        1.0  0.2789483789085451  0.9314179719310259  0.8193874360414455  1.0000
  O   O2        1.0  0.7210530296206487  0.06858519750966958  0.1806135445064072  1.0000
  O   O3        1.0  0.1367249334021708  0.8544102743687318  0.6993374059308124  1.0000
  O   O4        1.0  0.8632758160954596  0.1455898016541326  0.300663168499824  1.0000
  O   O5        1.0  0.9271479492742786  0.9173170154000514  0.8456532191460653  1.0000
  O   O6        1.0  0.07284839003860812  0.08268302288323778  0.1543490781137962  1.0000
  O   O7        1.0  0.390773168047879  0.18237028216177004  0.8824774123986714  1.0000
  O   O8        1.0  0.6092252703322816  0.8176328405847001  0.11752316886750691  1.0000
  O   O9        1.0  0.3313471865399721  0.25003697306119926  0.026295066767225702  1.0000
  O   O10       1.0  0.6686547126327653  0.7499641065966641  0.9737026804607183  1.0000
  O   O11       1.0  0.31675508348763526  0.9435741423110211  0.010681363944748097  1.0000
  O   O12       1.0  0.6832441616331196  0.0564258965211195  0.9893180158085927  1.0000
