data_image0
_chemical_formula_structural       Al2H12C42N18O36
_chemical_formula_sum              "Al2 H12 C42 N18 O36"
_cell_length_a       4.204864397237815
_cell_length_b       27.98679880695324
_cell_length_c       27.985957795882157
_cell_angle_alpha    120.00048742887004
_cell_angle_beta     89.99924568510927
_cell_angle_gamma    90.00120808357032

_space_group_name_H-M_alt    "P 1"
_space_group_IT_number       1

loop_
  _space_group_symop_operation_xyz
  'x, y, z'

loop_
  _atom_site_type_symbol
  _atom_site_label
  _atom_site_symmetry_multiplicity
  _atom_site_fract_x
  _atom_site_fract_y
  _atom_site_fract_z
  _atom_site_occupancy
  Al  Al1       1.0  0.0684480208569553  0.49999877974696716  0.5000037285718122  1.0000
  Al  Al2       1.0  0.076869129434435  0.16665891854005105  0.833325043347351  1.0000
  H   H1        1.0  0.8176353927620283  0.19216156102453402  0.7033884788797594  1.0000
  H   H2        1.0  0.7824773201687875  0.2457929985465056  0.6536944113618972  1.0000
  H   H3        1.0  0.5267388397707364  0.29043024802830075  0.53971713124497  1.0000
  H   H4        1.0  0.5461742750503688  0.4370481560578128  0.7006129706544898  1.0000
  H   H5        1.0  0.8176608785001845  0.011225559508531284  0.8078417097772643  1.0000
  H   H6        1.0  0.7824694194464215  0.9079054470395106  0.7542138655947428  1.0000
  H   H7        1.0  0.5266470131622681  0.7492819994144069  0.7095700441117287  1.0000
  H   H8        1.0  0.5462246893274169  0.7635544471628889  0.5629509990632116  1.0000
  H   H9        1.0  0.817684805748229  0.29660435977724087  0.9887657714451022  1.0000
  H   H10       1.0  0.7824640235086945  0.3463079486105514  0.09209114961844017  1.0000
  H   H11       1.0  0.5267278705851055  0.4602865228864488  0.2507203791286515  1.0000
  H   H12       1.0  0.5461756219461122  0.29939474206009453  0.23643793383288877  1.0000
  C   C1        1.0  0.5608282273492334  0.45388941372232944  0.4160318815255835  1.0000
  C   C2        1.0  0.5608254329003088  0.46213761640769474  0.5461135099961112  1.0000
  C   C3        1.0  0.560810569530723  0.5839688798244609  0.5378587150539716  1.0000
  C   C4        1.0  0.5738628021523552  0.21753500393201333  0.8011591602211324  1.0000
  C   C5        1.0  0.5738637396472085  0.08361852642355667  0.7824601573956685  1.0000
  C   C6        1.0  0.5738682858105689  0.19883285771835774  0.9163715620366304  1.0000
  C   C7        1.0  0.5632240281168703  0.2531578632943336  0.7749047704016122  1.0000
  C   C8        1.0  0.6984016498256266  0.23211160606020084  0.722291722769441  1.0000
  C   C9        1.0  0.6777003472493985  0.26143681255591383  0.694471232262643  1.0000
  C   C10       1.0  0.5265874297058275  0.31315071666932676  0.7191790758745001  1.0000
  C   C11       1.0  0.39746471582572707  0.33474304263975074  0.7723022969076042  1.0000
  C   C12       1.0  0.4099112508000927  0.3043597198654878  0.799402168299423  1.0000
  C   C13       1.0  0.5349741536150247  0.33514729487548317  0.5656594257304165  1.0000
  C   C14       1.0  0.5459725024298336  0.35959932658187904  0.6229587670543709  1.0000
  C   C15       1.0  0.5404981098718621  0.41725794353334317  0.6557690754985472  1.0000
  C   C16       1.0  0.5235567908345544  0.4489905584647076  0.6305829635231461  1.0000
  C   C17       1.0  0.5324664907295044  0.4263368619045734  0.5726686801384419  1.0000
  C   C18       1.0  0.5316861157815822  0.36826437997405037  0.541617244342163  1.0000
  C   C19       1.0  0.5632256688661174  0.02174312754436149  0.7468453292354625  1.0000
  C   C20       1.0  0.6983838886044468  0.9901782640590254  0.7678934161138786  1.0000
  C   C21       1.0  0.677667068744796  0.9330323187336518  0.7385681823251533  1.0000
  C   C22       1.0  0.526563894072332  0.9060190582050183  0.6868516377032777  1.0000
  C   C23       1.0  0.39741902128529455  0.9375484290000172  0.6652604236230032  1.0000
  C   C24       1.0  0.4099143879550127  0.9950348501288674  0.6956415970938398  1.0000
  C   C25       1.0  0.5349095320109782  0.7305085208061752  0.6648549709142204  1.0000
  C   C26       1.0  0.5459762962226549  0.7633528381375426  0.6404009466144204  1.0000
  C   C27       1.0  0.5405286495351402  0.7385042083509247  0.5827421235008786  1.0000
  C   C28       1.0  0.5235695048929756  0.681583584925484  0.5510061281652555  1.0000
  C   C29       1.0  0.5324581098659634  0.6463245165656204  0.5736621513158655  1.0000
  C   C30       1.0  0.5316179354499582  0.6733491000242394  0.6317376692922424  1.0000
  C   C31       1.0  0.563213066800273  0.2250974589328223  0.9782508335317389  1.0000
  C   C32       1.0  0.6984078158777577  0.2777078939011801  0.00981475282775792  1.0000
  C   C33       1.0  0.6776693561833582  0.3055315664568283  0.06696104153030552  1.0000
  C   C34       1.0  0.526493895139062  0.2808338757033653  0.09397553310103045  1.0000
  C   C35       1.0  0.3973149806431451  0.22771736081950417  0.06244359378611362  1.0000
  C   C36       1.0  0.4098534787132452  0.20060531416650923  0.004957249777042689  1.0000
  C   C37       1.0  0.5349799443576443  0.4343448878286578  0.2694933983842063  1.0000
  C   C38       1.0  0.5459836742119037  0.3770470619651363  0.23664531021107396  1.0000
  C   C39       1.0  0.5404818782819446  0.3442383290998023  0.2614946946707094  1.0000
  C   C40       1.0  0.523545981706711  0.36942083373037343  0.3184150982413528  1.0000
  C   C41       1.0  0.5324619746062709  0.4273338291085976  0.3536760188743457  1.0000
  C   C42       1.0  0.5316757876557219  0.4583817793372731  0.32665116737054234  1.0000
  N   N1        1.0  0.5117984795147662  0.34754335587078333  0.6959623505857665  1.0000
  N   N2        1.0  0.5535411857812916  0.3232488610541465  0.6443736007557704  1.0000
  N   N3        1.0  0.5117594660300853  0.8484105212289421  0.6524575611964211  1.0000
  N   N4        1.0  0.5535509267833661  0.821118094689666  0.6767543940095636  1.0000
  N   N5        1.0  0.5116791827006039  0.3040504381525579  0.15158418728398715  1.0000
  N   N6        1.0  0.5535711766029648  0.35563322499278627  0.17887753174986903  1.0000
  N   N7        1.0  0.2548470667413767  0.3253353324516297  0.8535058704851936  1.0000
  N   N8        1.0  0.2695704156471023  0.3917284322552205  0.7992623079050319  1.0000
  N   N9        1.0  0.5109368296612402  0.33658236004379205  0.4802016553509958  1.0000
  N   N10       1.0  0.48177432966447487  0.5090873599687598  0.6699810543426994  1.0000
  N   N11       1.0  0.25486740490983095  0.028156983435998435  0.6746605452458994  1.0000
  N   N12       1.0  0.2695032981848229  0.9075201614480265  0.6082747551374157  1.0000
  N   N13       1.0  0.5107838112029411  0.643616889114412  0.6634162322687587  1.0000
  N   N14       1.0  0.4817833922900832  0.6608838493120713  0.4909075846713478  1.0000
  N   N15       1.0  0.2548364134185944  0.14649924522642965  0.9718345730907886  1.0000
  N   N16       1.0  0.2693599529480508  0.20076381617821673  0.09247307188994822  1.0000
  N   N17       1.0  0.5109076036029945  0.5197967997246736  0.35638661390379417  1.0000
  N   N18       1.0  0.4817430927669619  0.3300237913998386  0.33911537609485987  1.0000
  O   O1        1.0  0.816503224429681  0.5638859798455085  0.5439365069523916  1.0000
  O   O2        1.0  0.816523509621085  0.4800478411566687  0.43611284391013083  1.0000
  O   O3        1.0  0.8165109837425604  0.4560627796204173  0.5199578491098863  1.0000
  O   O4        1.0  0.33757823157718286  0.5574473726522411  0.5049446943353928  1.0000
  O   O5        1.0  0.337593151725649  0.49505331595146623  0.5525068718167249  1.0000
  O   O6        1.0  0.3375970528064228  0.4474970632925093  0.4425534636909419  1.0000
  O   O7        1.0  0.8193640544564573  0.171248688369559  0.891842525779076  1.0000
  O   O8        1.0  0.819353661032423  0.2205850275178986  0.8287410114341469  1.0000
  O   O9        1.0  0.8193622175060395  0.10814641874340221  0.7794051942389473  1.0000
  O   O10       1.0  0.3419862473253374  0.2109804683057559  0.8954712137732771  1.0000
  O   O11       1.0  0.3419799302231397  0.1045174926211842  0.8155072035744697  1.0000
  O   O12       1.0  0.34197958192151395  0.18448514784856226  0.7890041826063695  1.0000
  O   O13       1.0  0.3606934023383417  0.30895373044372576  0.8840331378310895  1.0000
  O   O14       1.0  0.026460954462663697  0.35686581758848474  0.8639437740470016  1.0000
  O   O15       1.0  0.0352956387346595  0.3994273768771136  0.7774330727224026  1.0000
  O   O16       1.0  0.41762578809971257  0.4264902366887356  0.8395900752505484  1.0000
  O   O17       1.0  0.6931516257527903  0.3485204615057427  0.45339312314703056  1.0000
  O   O18       1.0  0.3121081521613718  0.2989306250109607  0.46143942922147835  1.0000
  O   O19       1.0  0.2527106160900487  0.5313502542222465  0.6615166324971116  1.0000
  O   O20       1.0  0.6663317454517568  0.5302681717779764  0.7094924172462032  1.0000
  O   O21       1.0  0.3607592388548325  0.07505979989732471  0.6910331882362826  1.0000
  O   O22       1.0  0.0264651845808217  0.007066729824380494  0.6431327958056202  1.0000
  O   O23       1.0  0.035211013749915296  0.8779957559529166  0.6005790096215408  1.0000
  O   O24       1.0  0.417545671760969  0.9130831071982185  0.5735099266022631  1.0000
  O   O25       1.0  0.6929325578399668  0.6048631065186072  0.6514731458608126  1.0000
  O   O26       1.0  0.31195423104304604  0.6625115025491937  0.7010698690456111  1.0000
  O   O27       1.0  0.252728459404878  0.6301543663132988  0.46864230264507983  1.0000
  O   O28       1.0  0.6663314005284205  0.6792135460142887  0.4697262297296803  1.0000
  O   O29       1.0  0.3607636595476293  0.11596485670196435  0.9249324983546786  1.0000
  O   O30       1.0  0.026423101651879197  0.13606064152112632  0.9929226790232094  1.0000
  O   O31       1.0  0.0350791412714813  0.22259824652511637  0.12200038381927672  1.0000
  O   O32       1.0  0.4173811658877894  0.16043829499880502  0.08691644256717981  1.0000
  O   O33       1.0  0.6930920065782971  0.5466058400510434  0.3951376718652356  1.0000
  O   O34       1.0  0.3120900270357295  0.5385548680689282  0.3374913928313391  1.0000
  O   O35       1.0  0.25269570312374157  0.33849274546145114  0.36984903205100045  1.0000
  O   O36       1.0  0.6662631320444491  0.29050949996266706  0.320779813987656  1.0000
