data_image0
_chemical_formula_structural       Sm6P2H38C26N2O48
_chemical_formula_sum              "Sm6 P2 H38 C26 N2 O48"
_cell_length_a       10.825463557
_cell_length_b       10.70320419314036
_cell_length_c       11.648
_cell_angle_alpha    90.0
_cell_angle_beta     90.0
_cell_angle_gamma    106.43833383108496

_space_group_name_H-M_alt    "P 1"
_space_group_IT_number       1

loop_
  _space_group_symop_operation_xyz
  'x, y, z'

loop_
  _atom_site_type_symbol
  _atom_site_label
  _atom_site_symmetry_multiplicity
  _atom_site_fract_x
  _atom_site_fract_y
  _atom_site_fract_z
  _atom_site_occupancy
  Sm  Sm1       1.0  0.030736241846625528  0.6945969200412776  0.1040822458791197  1.0000
  Sm  Sm2       1.0  0.9692715693486633  0.3054099756342694  0.6040813873626405  1.0000
  Sm  Sm3       1.0  0.8108608556463892  0.6927383051508897  0.6056095467032989  1.0000
  Sm  Sm4       1.0  0.1891415191724946  0.3072656681742032  0.1056121222527437  1.0000
  Sm  Sm5       1.0  0.5754569771437446  0.6105559656106223  0.2567616758241726  1.0000
  Sm  Sm6       1.0  0.4245416423605874  0.3894411888967326  0.7567651098901109  1.0000
  P   P1        1.0  0.4797642611174098  0.6693351485776873  0.5583181662087924  1.0000
  P   P2        1.0  0.5202357211144957  0.3306668765137672  0.0583181662087924  1.0000
  H   H1        1.0  0.9252343267731928  0.4159829498603144  0.0316844093406559  1.0000
  H   H2        1.0  0.07476576157013429  0.5840161528806789  0.531681833791211  1.0000
  H   H3        1.0  0.9105742660778019  0.4237641950093973  0.1597853708791206  1.0000
  H   H4        1.0  0.0894220211622212  0.5762378300820572  0.6597845123626342  1.0000
  H   H5        1.0  0.3952665438977476  0.3675196640050231  0.3448609203296725  1.0000
  H   H6        1.0  0.6047299555651264  0.632476516385516  0.8448643543956038  1.0000
  H   H7        1.0  0.5141196218187929  0.3140533141680493  0.3375781250000003  1.0000
  H   H8        1.0  0.48587687764407417  0.6859428662224971  0.8375807005494522  1.0000
  H   H9        1.0  0.5627509443370471  0.6698202587534823  0.007253605769229  1.0000
  H   H10       1.0  0.4372449039233715  0.3301768957538798  0.5072518887362634  1.0000
  H   H11       1.0  0.7076121446653901  0.7159700171639685  0.040964972527469  1.0000
  H   H12       1.0  0.2923853388681223  0.2840329820443017  0.5409641140109898  1.0000
  H   H13       1.0  0.7919819513364601  0.8637474350528791  0.2304816277472526  1.0000
  H   H14       1.0  0.2080128670645607  0.13625264180493699  0.7304867788461563  1.0000
  H   H15       1.0  0.7617439821401533  0.8654774665231812  0.35975961538461826  1.0000
  H   H16       1.0  0.2382615425795791  0.1345245585682733  0.8597621909340631  1.0000
  H   H17       1.0  0.4280971919849179  0.8293211725574138  0.3877034684065919  1.0000
  H   H18       1.0  0.5719047438543542  0.1706779301835795  0.8877034684065919  1.0000
  H   H19       1.0  0.2831913078594043  0.732444280804593  0.5478580013736263  1.0000
  H   H20       1.0  0.7168088865953521  0.2675518995859463  0.0478597184065919  1.0000
  H   H21       1.0  0.39472056129783073  0.8432052595766848  0.6398926854395626  1.0000
  H   H22       1.0  0.6052776795495518  0.1567938431643157  0.1398918269230762  1.0000
  H   H23       1.0  0.3162683152889443  0.0095288107221236  0.5182185782967039  1.0000
  H   H24       1.0  0.6837291079218987  0.9904673696684156  0.018216002747252  1.0000
  H   H25       1.0  0.23140309995786626  0.8847932289244368  0.4200729739010995  1.0000
  H   H26       1.0  0.7685985633358854  0.11520489969974788  0.9200721153846132  1.0000
  H   H27       1.0  0.3650211567671064  0.9941680394632826  0.2584623969780253  1.0000
  H   H28       1.0  0.63497681153477  0.005830089160902199  0.7584606799450526  1.0000
  H   H29       1.0  0.3008737613902995  0.109678734986332  0.3292196085164818  1.0000
  H   H30       1.0  0.6991236618205364  0.8903174454042143  0.8292178914835162  1.0000
  H   H31       1.0  0.5430859263824529  0.0353360876042856  0.5572810782967039  1.0000
  H   H32       1.0  0.4569149795974212  0.9646659374871688  0.0572802197802176  1.0000
  H   H33       1.0  0.6207140768393061  0.9247300702642105  0.4958679601648369  1.0000
  H   H34       1.0  0.37928617793811975  0.0752729289440595  0.9958696771978025  1.0000
  H   H35       1.0  0.6798810211922799  0.1398783046047427  0.39152386675824147  1.0000
  H   H36       1.0  0.3201164623412254  0.8601246946035274  0.8915238667582415  1.0000
  H   H37       1.0  0.5958832773474257  0.0092619027137602  0.2999441964285694  1.0000
  H   H38       1.0  0.40411724997550647  0.9907420706113328  0.7999441964285693  1.0000
  C   C1        1.0  0.38444084930839745  0.7881335652222176  0.5593561126373601  1.0000
  C   C2        1.0  0.6155588603779947  0.2118674857524141  0.059356971153846395  1.0000
  C   C3        1.0  0.32398187528151823  0.9564804338582603  0.4390264423076928  1.0000
  C   C4        1.0  0.6760164716772934  0.043515746532286  0.9390230082417615  1.0000
  C   C5        1.0  0.3671593293838171  0.04952409907103569  0.3383808379120907  1.0000
  C   C6        1.0  0.6328377151700835  0.9504740295531419  0.8383799793956044  1.0000
  C   C7        1.0  0.5511309813693615  0.9796624659135773  0.4799167239010984  1.0000
  C   C8        1.0  0.4488672594780282  0.020336636827416  0.9799150068681327  1.0000
  C   C9        1.0  0.5869448063418332  0.0676300083832544  0.375931490384616  1.0000
  C   C10       1.0  0.41305528200149416  0.9323690943577388  0.8759306318681297  1.0000
  C   C11       1.0  0.9819644960292849  0.6668326424700268  0.37821256868132014  1.0000
  C   C12       1.0  0.01802797557351711  0.3331557449859659  0.8782185782967034  1.0000
  C   C13       1.0  0.8433243202874721  0.6345085240696661  0.3339337225274761  1.0000
  C   C14       1.0  0.1566703316794573  0.3654876563208731  0.8339423076923111  1.0000
  C   C15       1.0  0.11189850678796635  0.9999854651055315  0.028102678571428896  1.0000
  C   C16       1.0  0.888119299200909  1.75341027386e-05  0.5280915178571419  1.0000
  C   C17       1.0  0.05279770915900879  0.9985613063163541  0.1495604395604389  1.0000
  C   C18       1.0  0.9472136305940709  0.0014416928919161  0.6495484203296726  1.0000
  C   C19       1.0  0.2887884917912942  0.5946622755940466  0.1428786057692335  1.0000
  C   C20       1.0  0.7112200767178649  0.4053407236142306  0.6428768887362608  1.0000
  C   C21       1.0  0.3331556852073306  0.7381915700358945  0.1796162431318677  1.0000
  C   C22       1.0  0.6668483706733994  0.2618085068219287  0.6796119505494502  1.0000
  C   C23       1.0  0.8531582244983013  0.6846687214234208  0.8823557692307702  1.0000
  C   C24       1.0  0.14684127296524002  0.3153381742521262  0.3823574862637358  1.0000
  C   C25       1.0  0.9762186700377954  0.6559303270333032  0.8358319024725275  1.0000
  C   C26       1.0  0.0237781019705849  0.34406682747405876  0.3358276098901101  1.0000
  N   N1        1.0  0.4214308289959945  0.882999879860904  0.4616500686813154  1.0000
  N   N2        1.0  0.578570455640822  0.11700019699691208  0.9616509271978017  1.0000
  O   O1        1.0  0.4061268675348301  0.558005285583384  0.6348652129120893  1.0000
  O   O2        1.0  0.5938734933540175  0.4419947912744391  0.1348626373626374  1.0000
  O   O3        1.0  0.615501615402721  0.7385929061652661  0.6041097184065904  1.0000
  O   O4        1.0  0.38450178927555356  0.2614081448093728  0.1041122939560424  1.0000
  O   O5        1.0  0.4816674201403259  0.6385881253070664  0.42970295329670444  1.0000
  O   O6        1.0  0.5183273379380255  0.3614051327330188  0.929702094780218  1.0000
  O   O7        1.0  0.4934451525412484  0.137278386815197  0.355965831043953  1.0000
  O   O8        1.0  0.5065525432151077  0.862718767692165  0.8559649725274738  1.0000
  O   O9        1.0  0.9984816216720062  0.6969484380420141  0.48368818681318965  1.0000
  O   O10       1.0  0.001507094616243923  0.3030331305962406  0.9836933379120864  1.0000
  O   O11       1.0  0.06828536871081073  0.6613123224575261  0.3076090315934081  1.0000
  O   O12       1.0  0.9317082991854733  0.3386770391152893  0.8076150412087912  1.0000
  O   O13       1.0  0.751344572222564  0.6117989386714981  0.40669127747252526  1.0000
  O   O14       1.0  0.2486478535914785  0.3881991899526867  0.9066929945054979  1.0000
  O   O15       1.0  0.8254893225632857  0.6357096101073266  0.22694024725274886  1.0000
  O   O16       1.0  0.17450446597833752  0.3642933891009505  0.7269411057692281  1.0000
  O   O17       1.0  0.11172637389120875  0.8929495090487832  0.9841990041208816  1.0000
  O   O18       1.0  0.8882875248829337  0.1070593348604092  0.4841792582417597  1.0000
  O   O19       1.0  0.15898556825728596  0.1126946006575338  0.9838573145604386  1.0000
  O   O20       1.0  0.8410277854258226  0.8873122950180132  0.4838616071428561  1.0000
  O   O21       1.0  0.9918518290618721  0.8880750284871866  0.1900446428571456  1.0000
  O   O22       1.0  0.008152771909891509  0.111926996604268  0.6900309065934066  1.0000
  O   O23       1.0  0.0710820731561554  0.1069775090476242  0.1990848214285705  1.0000
  O   O24       1.0  0.9289231790180635  0.8930235419270146  0.6990788118131874  1.0000
  O   O25       1.0  0.3638925864387588  0.5240992014691912  0.1592814217032981  1.0000
  O   O26       1.0  0.6361112572191274  0.47590672008954016  0.6592797046703325  1.0000
  O   O27       1.0  0.177232127564892  0.5498431607581225  0.1003451236263757  1.0000
  O   O28       1.0  0.8227698685970494  0.4501627608006089  0.6003442651098894  1.0000
  O   O29       1.0  0.4388833686913003  0.7734828482665108  0.233494162087915  1.0000
  O   O30       1.0  0.5611233523219212  0.22652015094176647  0.7334881524725247  1.0000
  O   O31       1.0  0.2590199948589031  0.8063290932817749  0.1538066620879093  1.0000
  O   O32       1.0  0.7409844396787693  0.1936690353424027  0.6537955013736294  1.0000
  O   O33       1.0  0.7620820268527099  0.6758461453949707  0.8115650755494528  1.0000
  O   O34       1.0  0.23791589566040733  0.3241617243973991  0.3115625000000009  1.0000
  O   O35       1.0  0.850449179640499  0.7125089801065485  0.9876073145604422  1.0000
  O   O36       1.0  0.149553255501047  0.28750181203627523  0.48760559752746957  1.0000
  O   O37       1.0  0.9863781550656014  0.6543162154644406  0.7278717376373649  1.0000
  O   O38       1.0  0.013616769446841214  0.3456809390429143  0.227869162087913  1.0000
  O   O39       1.0  0.05401483863497701  0.6329762383135957  0.9079361263736274  1.0000
  O   O40       1.0  0.9459858551220535  0.367031631478774  0.4079318337912099  1.0000
  O   O41       1.0  0.8947481631043104  0.468568698093037  0.0888976648351658  1.0000
  O   O42       1.0  0.105253939169053  0.5314343011152332  0.588898523351645  1.0000
  O   O43       1.0  0.4894765435467221  0.3917128293183225  0.3628932005494505  1.0000
  O   O44       1.0  0.5105202284616581  0.6082843251890324  0.862897493131868  1.0000
  O   O45       1.0  0.6205150117780179  0.7166743036240105  0.0691114354395594  1.0000
  O   O46       1.0  0.37948100291648496  0.2833267473506282  0.5691080013736283  1.0000
  O   O47       1.0  0.7185614533446979  0.841794738422969  0.2832872596153848  1.0000
  O   O48       1.0  0.2814343949157134  0.15820241608439287  0.7832881181318712  1.0000
