data_image0
_chemical_formula_structural       Cu2H28C32I2N10O2F6
_chemical_formula_sum              "Cu2 H28 C32 I2 N10 O2 F6"
_cell_length_a       7.7634915095831625
_cell_length_b       7.653572840681898
_cell_length_c       18.18352019502954
_cell_angle_alpha    81.8254821238037
_cell_angle_beta     87.87912754766579
_cell_angle_gamma    74.56645317818038

_space_group_name_H-M_alt    "P 1"
_space_group_IT_number       1

loop_
  _space_group_symop_operation_xyz
  'x, y, z'

loop_
  _atom_site_type_symbol
  _atom_site_label
  _atom_site_symmetry_multiplicity
  _atom_site_fract_x
  _atom_site_fract_y
  _atom_site_fract_z
  _atom_site_occupancy
  Cu  Cu1       1.0  0.546913312693654  0.33909135010597424  0.6688275525175771  1.0000
  Cu  Cu2       1.0  0.751634238491441  0.5514681065759958  0.6596065443110464  1.0000
  H   H1        1.0  0.7078996018374114  0.0894351149931083  0.5522349399220732  1.0000
  H   H2        1.0  0.19768376611037303  0.4017643268617945  0.5972773047646811  1.0000
  H   H3        1.0  0.33566380769324416  0.04239988039640961  0.35891871214767695  1.0000
  H   H4        1.0  0.07650759972327141  0.42295926798804834  0.3661299378906264  1.0000
  H   H5        1.0  0.11164103833068852  0.3038367467327276  0.2867520689785437  1.0000
  H   H6        1.0  0.2874623637900768  0.37749386760778253  0.32146201967474053  1.0000
  H   H7        1.0  0.06516462916263069  0.7853553356796611  0.1890315199841552  1.0000
  H   H8        1.0  0.5933708658316093  0.1930986919979105  0.24204432872146245  1.0000
  H   H9        1.0  0.7478140836276593  0.22388205687080637  0.3570444079725945  1.0000
  H   H10       1.0  0.763211161577736  0.5171173077446057  0.4801775387004741  1.0000
  H   H11       1.0  0.0018944284505338065  0.8217351191239147  0.6005481728486687  1.0000
  H   H12       1.0  0.253900680409842  0.767116740863024  0.42571085786985924  1.0000
  H   H13       1.0  0.22630568077509142  0.881145491993337  0.5057342629019318  1.0000
  H   H14       1.0  0.7133960208803175  0.8786580282853012  0.7337355721701401  1.0000
  H   H15       1.0  0.034503438754391914  0.34432444040728427  0.775253582725796  1.0000
  H   H16       1.0  0.15818695224192678  0.6485671481704428  0.9683525832192007  1.0000
  H   H17       1.0  0.9263559486835788  0.8453801733209475  0.04419000533442131  1.0000
  H   H18       1.0  0.8429362092915653  0.6784556226242345  0.00897295388257651  1.0000
  H   H19       1.0  0.7786791675452921  0.9093440293659611  0.9666016436721779  1.0000
  H   H20       1.0  0.39961266723647526  0.7566847066294285  0.9000719327489084  1.0000
  H   H21       1.0  0.25572717354481256  0.8203528406337384  0.8214657417661472  1.0000
  H   H22       1.0  0.9753522359273034  0.2410054888071542  0.9778908220529419  1.0000
  H   H23       1.0  0.049594630980784885  0.3485929539100853  0.09412331963026331  1.0000
  H   H24       1.0  0.47527011668200475  0.8536334859495016  0.1384797302821639  1.0000
  H   H25       1.0  0.6401896085444533  0.2641113308557337  0.8488618998024224  1.0000
  H   H26       1.0  0.287759564777879  0.07887080172912421  0.7280957571061253  1.0000
  H   H27       1.0  0.006936138594930711  0.2215086286606152  0.48109278451240567  1.0000
  H   H28       1.0  0.9321340772835854  0.027788211126185996  0.8506490286262576  1.0000
  C   C1        1.0  0.5665094745534134  0.13999227001303896  0.5376629071590245  1.0000
  C   C2        1.0  0.2855894153766769  0.3148205004637959  0.5611933284245156  1.0000
  C   C3        1.0  0.31809087190660534  0.16752420577049068  0.4570198132169596  1.0000
  C   C4        1.0  0.49686994331246837  0.09138186903173562  0.47691803426585744  1.0000
  C   C5        1.0  0.23451055854599903  0.13808333623310182  0.3879971639747667  1.0000
  C   C6        1.0  0.17260974196557305  0.3220828501563274  0.3375200183471848  1.0000
  C   C7        1.0  0.07728116399452743  0.0468566310404981  0.40916793416525377  1.0000
  C   C8        1.0  0.9891274542284308  0.023776632167567903  0.33881111488002363  1.0000
  C   C9        1.0  0.07387379054894438  0.9034832578466592  0.28941515026627945  1.0000
  C   C10       1.0  0.9936848860133268  0.8808652668619885  0.22573277838449712  1.0000
  C   C11       1.0  0.8205288939415638  0.9872858322581379  0.21062641382016523  1.0000
  C   C12       1.0  0.728967382734787  0.11227655164812943  0.2561052741215306  1.0000
  C   C13       1.0  0.815437158359572  0.12831305960285988  0.3196935711457557  1.0000
  C   C14       1.0  0.8427542347459608  0.6048239453541769  0.4941816765930583  1.0000
  C   C15       1.0  0.9613543031170553  0.7568395582365072  0.5572048151973237  1.0000
  C   C16       1.0  0.15725395325953434  0.8595736440244507  0.45745079398883365  1.0000
  C   C17       1.0  0.8119736492706126  0.775881686081604  0.7689797143165011  1.0000
  C   C18       1.0  0.9913028725786291  0.48205149567390043  0.7906107653309534  1.0000
  C   C19       1.0  0.06217925611249343  0.5293885849295492  0.8512950959354416  1.0000
  C   C20       1.0  0.996125796117276  0.7034059547829656  0.871972503469401  1.0000
  C   C21       1.0  0.05162503317701093  0.7615542418750607  0.9410629573509797  1.0000
  C   C22       1.0  0.8903096656434215  0.8017790711552382  0.9933953087887349  1.0000
  C   C23       1.0  0.2973602203406927  0.8688736082877568  0.8702488128852367  1.0000
  C   C24       1.0  0.13195597477436394  0.9302816654139718  0.9205560256199522  1.0000
  C   C25       1.0  0.18144084249120604  0.9911710904976873  0.9914421183427539  1.0000
  C   C26       1.0  0.08509251203681603  0.15791207708998203  0.013394868385006501  1.0000
  C   C27       1.0  0.1258339548539453  0.2186412245855252  0.07774005461284622  1.0000
  C   C28       1.0  0.2669948415300425  0.10800401997349242  0.1212748924887137  1.0000
  C   C29       1.0  0.3652967180595822  0.9392830028499333  0.10376170552126504  1.0000
  C   C30       1.0  0.3187897676404815  0.8853397204188765  0.03923355030028831  1.0000
  C   C31       1.0  0.5456646786487268  0.19214955416342863  0.8346664379796993  1.0000
  C   C32       1.0  0.3684283239819024  0.10176427941980389  0.771498985271194  1.0000
  I   I1        1.0  0.9008545318327779  0.1900844309316625  0.6638229979318312  1.0000
  I   I2        1.0  0.4026144744709014  0.6958653091366147  0.6631109304313939  1.0000
  N   N1        1.0  0.8461000710486533  0.6530971338608325  0.5636505725834767  1.0000
  N   N2        1.0  0.9496743428798664  0.6712723926365812  0.44595830942456877  1.0000
  N   N3        1.0  0.02424578102836246  0.7674776667375341  0.4871952686515187  1.0000
  N   N4        1.0  0.46032596228098305  0.2566867945470293  0.5798140268356635  1.0000
  N   N5        1.0  0.21353351687105254  0.2761794309823317  0.5024765514335812  1.0000
  N   N6        1.0  0.8616327476955731  0.6059451249988116  0.7493578958353099  1.0000
  N   N7        1.0  0.8725040872902313  0.8266526257104091  0.8276775017884859  1.0000
  N   N8        1.0  0.4734671436689767  0.21613490738728564  0.7652245943858562  1.0000
  N   N9        1.0  0.37999576684846664  0.013099704563941805  0.8413321341606592  1.0000
  N   N10       1.0  0.4929645358751883  0.06902134611694072  0.8826344600435408  1.0000
  O   O1        1.0  0.9445420616722231  0.15767834544548984  0.45115726122778466  1.0000
  O   O2        1.0  0.005516650213550593  0.08035541132761642  0.8806569961748281  1.0000
  F   F1        1.0  0.6034003231766505  0.969559620797554  0.43648238339226014  1.0000
  F   F2        1.0  0.24699517263047013  0.8008810362762303  0.30224775931165493  1.0000
  F   F3        1.0  0.7391453898988943  0.9681130028577345  0.1479974281962839  1.0000
  F   F4        1.0  0.19596704464461107  0.4058336796008249  0.8909657303428776  1.0000
  F   F5        1.0  0.415724531227383  0.7165118726739623  0.023572725392455095  1.0000
  F   F6        1.0  0.3102551561659154  0.16502215606756473  0.18437896764606881  1.0000
