data_image0
_chemical_formula_structural       Np2H44C44N4O20
_chemical_formula_sum              "Np2 H44 C44 N4 O20"
_cell_length_a       9.589523315520312
_cell_length_b       9.589480151299728
_cell_length_c       13.34288663103626
_cell_angle_alpha    80.73926997523607
_cell_angle_beta     80.73899034302453
_cell_angle_gamma    73.8257236196916

_space_group_name_H-M_alt    "P 1"
_space_group_IT_number       1

loop_
  _space_group_symop_operation_xyz
  'x, y, z'

loop_
  _atom_site_type_symbol
  _atom_site_label
  _atom_site_symmetry_multiplicity
  _atom_site_fract_x
  _atom_site_fract_y
  _atom_site_fract_z
  _atom_site_occupancy
  Np  Np1       1.0  0.6294993067610264  0.3705062871250392  0.24999597886783678  1.0000
  Np  Np2       1.0  0.3704775537443011  0.6295180771704311  0.7500024450277962  1.0000
  H   H1        1.0  0.9879441975797858  0.9496083431088209  0.09998006212605766  1.0000
  H   H2        1.0  0.0503880314288452  0.012051035448607202  0.4000288213328814  1.0000
  H   H3        1.0  0.012037562394667106  0.050421511130331005  0.9000171688848724  1.0000
  H   H4        1.0  0.9495797879063659  0.9879634353473253  0.599980020693664  1.0000
  H   H5        1.0  0.20165009326434816  0.7276090837253548  0.10171406549468999  1.0000
  H   H6        1.0  0.27239366999317827  0.7983523646449557  0.3982921270984221  1.0000
  H   H7        1.0  0.7983390527052308  0.27242078970193967  0.8982853131204961  1.0000
  H   H8        1.0  0.7275760679359777  0.2016588293970401  0.6017153719356542  1.0000
  H   H9        1.0  0.7609861400794454  0.45446521360091924  0.5769149450240292  1.0000
  H   H10       1.0  0.5455347080613677  0.23901263338216702  0.9230842222190603  1.0000
  H   H11       1.0  0.23901583900318002  0.5455198203549046  0.42307911485435307  1.0000
  H   H12       1.0  0.4544805060866679  0.7609822784716158  0.0769206742351258  1.0000
  H   H13       1.0  0.9276687715653934  0.5020695865880781  0.6877420675964883  1.0000
  H   H14       1.0  0.49793094899101936  0.07232829209250011  0.8122577386949813  1.0000
  H   H15       1.0  0.0723366626152782  0.4979143642730506  0.3122509704663017  1.0000
  H   H16       1.0  0.5020885801408923  0.9276622536198647  0.18774716362437252  1.0000
  H   H17       1.0  0.4955203782505536  0.3250720414601816  0.5255701669033924  1.0000
  H   H18       1.0  0.6749317183186889  0.5044847623423222  0.9744191049912343  1.0000
  H   H19       1.0  0.5044961710046394  0.674909738549033  0.47443383561552105  1.0000
  H   H20       1.0  0.32508792591098523  0.4955014268634488  0.025569046642601668  1.0000
  H   H21       1.0  0.3418678083154134  0.10853536855549352  0.3954555054812657  1.0000
  H   H22       1.0  0.8914639507992774  0.6581338644343263  0.1045376738048773  1.0000
  H   H23       1.0  0.6581481660184566  0.891448598494108  0.6045490614049315  1.0000
  H   H24       1.0  0.10854704491252679  0.34184900497867693  0.8954578477152779  1.0000
  H   H25       1.0  0.17080651387084336  0.19765232099015861  0.4609310404898394  1.0000
  H   H26       1.0  0.8023483801402377  0.8291944820165399  0.0390663213463398  1.0000
  H   H27       1.0  0.8292102322097109  0.8023327463696649  0.5390710630604402  1.0000
  H   H28       1.0  0.19766423921634416  0.1707861967042916  0.9609337620600442  1.0000
  H   H29       1.0  0.2689942713745523  0.021434596596883203  0.515206297389625  1.0000
  H   H30       1.0  0.9785653604574378  0.7310102171987652  0.9847908276471102  1.0000
  H   H31       1.0  0.7310206502420016  0.9785493701266718  0.48479614201374943  1.0000
  H   H32       1.0  0.02145004294896319  0.2689759408690621  0.015211304835673893  1.0000
  H   H33       1.0  0.3635249091949219  0.05670715519662653  0.6681922197792431  1.0000
  H   H34       1.0  0.943294173173065  0.6364836714483388  0.8317996636229877  1.0000
  H   H35       1.0  0.6364943204162331  0.9432724384242946  0.33181547333801825  1.0000
  H   H36       1.0  0.056725087968302994  0.3635079871761491  0.16819090187286884  1.0000
  H   H37       1.0  0.2134995991143285  0.21662254734786054  0.6637016241293524  1.0000
  H   H38       1.0  0.7833829581170448  0.7865093199607501  0.8362933535565844  1.0000
  H   H39       1.0  0.7865120612341343  0.7833657868376208  0.3363021871990098  1.0000
  H   H40       1.0  0.21663360868981843  0.2134845111296144  0.1637040170383557  1.0000
  H   H41       1.0  0.3930489459526285  0.23378664991258805  0.6691662707582111  1.0000
  H   H42       1.0  0.7662173532591509  0.6069634595972889  0.8308244096378273  1.0000
  H   H43       1.0  0.6069679939578734  0.766201701814481  0.3308361829014501  1.0000
  H   H44       1.0  0.23379893257708068  0.3930314714772508  0.16916837013837238  1.0000
  C   C1        1.0  0.8779932573711664  0.1220033109577514  0.25000401679974965  1.0000
  C   C2        1.0  0.12198043100367784  0.8780210384371545  0.74999852034486  1.0000
  C   C3        1.0  0.0072368600202423325  0.992754657255219  0.2500055747783065  1.0000
  C   C4        1.0  0.992734233142386  0.0072674921876441  0.7499990118626485  1.0000
  C   C5        1.0  0.049797053322024006  0.9137914921285033  0.16544563068937626  1.0000
  C   C6        1.0  0.08620744923427283  0.9501984047789449  0.3345617244916852  1.0000
  C   C7        1.0  0.9501849916169292  0.08623726610430543  0.8345531923695902  1.0000
  C   C8        1.0  0.9137635392360082  0.04981607793417451  0.6654452533638917  1.0000
  C   C9        1.0  0.16829751616359806  0.7908548861224388  0.16649734941412217  1.0000
  C   C10       1.0  0.20914300680217224  0.831697319107974  0.3335082197418515  1.0000
  C   C11       1.0  0.8316833673718236  0.20916620107674794  0.8335047361473469  1.0000
  C   C12       1.0  0.7908317267229918  0.16831498947640713  0.6664955798828059  1.0000
  C   C13       1.0  0.24952410222153515  0.7504765488830503  0.2500017969983189  1.0000
  C   C14       1.0  0.7504630128947695  0.24953689343187346  0.7500004508211899  1.0000
  C   C15       1.0  0.37883544951719017  0.6211671000985461  0.24999832462116697  1.0000
  C   C16       1.0  0.6211516685945213  0.3788463451997472  0.7500016741203195  1.0000
  C   C17       1.0  0.8092234616978544  0.4396152093688458  0.37588850488705816  1.0000
  C   C18       1.0  0.5603903232168719  0.19077427560046803  0.12410938874890579  1.0000
  C   C19       1.0  0.1907698008540707  0.5603949753965906  0.6241074154031239  1.0000
  C   C20       1.0  0.4396049400773307  0.8092282430873398  0.8758931777215295  1.0000
  C   C21       1.0  0.90772229338301  0.4721028139572426  0.4392480834388905  1.0000
  C   C22       1.0  0.5278985785148222  0.0922762941235931  0.06075005698031791  1.0000
  C   C23       1.0  0.0922823766179661  0.5278920777302362  0.5607482829625852  1.0000
  C   C24       1.0  0.47210876784823347  0.9077164071977609  0.9392529987901952  1.0000
  C   C25       1.0  0.8663789415709786  0.4737821101300242  0.5447190560581133  1.0000
  C   C26       1.0  0.52622059217925  0.13361823022480482  0.9552805545104519  1.0000
  C   C27       1.0  0.13362485698330315  0.5262040194897822  0.4552784164305307  1.0000
  C   C28       1.0  0.47379894094653  0.8663723194653915  0.04472134903820545  1.0000
  C   C29       1.0  0.9581595350091446  0.5010999687656154  0.6055965855445891  1.0000
  C   C30       1.0  0.49890183014413475  0.04183883885941952  0.8944021133813393  1.0000
  C   C31       1.0  0.041848201431505985  0.49888727009823003  0.3943988085151985  1.0000
  C   C32       1.0  0.5011151087678983  0.9581495118731881  0.10560108997099601  1.0000
  C   C33       1.0  0.44107449113082  0.2778719325415155  0.4780632366116748  1.0000
  C   C34       1.0  0.7221282754373632  0.5589291645928398  0.021928253169534253  1.0000
  C   C35       1.0  0.5589322001595037  0.7221273471328544  0.5219308949680652  1.0000
  C   C36       1.0  0.2778711140030978  0.4410657085585897  0.9780702205933094  1.0000
  C   C37       1.0  0.2803599288264138  0.12539675201998793  0.47111681837301933  1.0000
  C   C38       1.0  0.8746036205725433  0.7196418515119806  0.028877882034059613  1.0000
  C   C39       1.0  0.7196586377242652  0.8745894119982794  0.5288879480948481  1.0000
  C   C40       1.0  0.12540900377636893  0.280338832181137  0.9711184529089534  1.0000
  C   C41       1.0  0.33074892409183587  0.17335404836236992  0.638895848113485  1.0000
  C   C42       1.0  0.8266484791962654  0.6692603158260299  0.8610991162005915  1.0000
  C   C43       1.0  0.669267335206527  0.8266288226808957  0.3611103108207558  1.0000
  C   C44       1.0  0.1733707759542895  0.33073133683171113  0.1388959474513101  1.0000
  N   N1        1.0  0.3573220691395491  0.19289317863611902  0.5274570330609265  1.0000
  N   N2        1.0  0.8071090180601176  0.6426799271075297  0.9725372880519102  1.0000
  N   N3        1.0  0.642701581146284  0.8070897165675817  0.4725475250142069  1.0000
  N   N4        1.0  0.19290869202088606  0.3572974897599366  0.02745733911302039  1.0000
  O   O1        1.0  0.8452037543556514  0.19922247011027855  0.1654326797256758  1.0000
  O   O2        1.0  0.8007732212432898  0.1547981729574772  0.3345720596588535  1.0000
  O   O3        1.0  0.15478692454490775  0.800797559817518  0.8345631562929229  1.0000
  O   O4        1.0  0.19920467542614514  0.8452141415773512  0.6654343739508874  1.0000
  O   O5        1.0  0.4767082463059539  0.6074236995771615  0.3083945104745425  1.0000
  O   O6        1.0  0.3925789284935348  0.5232985617307547  0.1916014193871405  1.0000
  O   O7        1.0  0.523276672818902  0.39260615663460646  0.6916083532921604  1.0000
  O   O8        1.0  0.6073906401466047  0.4767214059863604  0.8083938497648617  1.0000
  O   O9        1.0  0.8469905927906609  0.43702354813827077  0.2792392104884911  1.0000
  O   O10       1.0  0.5629811769875346  0.15300898958084022  0.22075848394601388  1.0000
  O   O11       1.0  0.1529998837144931  0.5629811552912612  0.7207561601106319  1.0000
  O   O12       1.0  0.4370185029874776  0.8469968267119087  0.7792439462529899  1.0000
  O   O13       1.0  0.687982719196924  0.4138744506136335  0.4169430856350401  1.0000
  O   O14       1.0  0.5861316175439625  0.3120154253265214  0.08305563867811831  1.0000
  O   O15       1.0  0.31200499438318735  0.5861488617087928  0.5830474677371669  1.0000
  O   O16       1.0  0.41384714000977146  0.687993607156031  0.9169510729197086  1.0000
  O   O17       1.0  0.45703524476247986  0.30338198441598513  0.381483360987218  1.0000
  O   O18       1.0  0.6966209470922564  0.5429631374617117  0.1185106889034344  1.0000
  O   O19       1.0  0.5429612670759242  0.6966238209540238  0.6185201836900659  1.0000
  O   O20       1.0  0.3033714520007109  0.4570382931917152  0.88148033993253  1.0000
