data_image0
_chemical_formula_structural       Zn3H58C44N8O16
_chemical_formula_sum              "Zn3 H58 C44 N8 O16"
_cell_length_a       8.222710356526838
_cell_length_b       13.060248647367477
_cell_length_c       13.4253
_cell_angle_alpha    71.64096729972418
_cell_angle_beta     79.63460275666765
_cell_angle_gamma    87.99325120375028

_space_group_name_H-M_alt    "P 1"
_space_group_IT_number       1

loop_
  _space_group_symop_operation_xyz
  'x, y, z'

loop_
  _atom_site_type_symbol
  _atom_site_label
  _atom_site_symmetry_multiplicity
  _atom_site_fract_x
  _atom_site_fract_y
  _atom_site_fract_z
  _atom_site_occupancy
  Zn  Zn1       1.0  0.22234974678783462  0.36716904717350457  0.6335706280791272  1.0000
  Zn  Zn2       1.0  0.7776525452347088  0.6328304208775464  0.36642890990053456  1.0000
  Zn  Zn3       1.0  2.8682507000000008e-08  8.069613884e-07  4.944436469000002e-07  1.0000
  H   H1        1.0  0.8877897913822465  0.036222882953318  0.17150258571559365  1.0000
  H   H2        1.0  0.1122087629966586  0.9637757781363445  0.8284991011359609  1.0000
  H   H3        1.0  0.9173218546165175  0.9112603446833987  0.21470014271857013  1.0000
  H   H4        1.0  0.0826767571273948  0.08873993032904788  0.785298808708717  1.0000
  H   H5        1.0  0.8696642323628936  0.8028781671175267  0.033928635539624  1.0000
  H   H6        1.0  0.1303332004256532  0.1971237218176967  0.9660736756047613  1.0000
  H   H7        1.0  0.8417954621401265  0.8919328123893564  0.9233677169613658  1.0000
  H   H8        1.0  0.1582082382978314  0.10807149743004628  0.07663465143730974  1.0000
  H   H9        1.0  0.17428083038786474  0.4655481313271252  0.795640384729879  1.0000
  H   H10       1.0  0.8257053894697606  0.5344513367239258  0.20435794495782036  1.0000
  H   H11       1.0  0.1075211421104996  0.6470910425927201  0.8184849722291007  1.0000
  H   H12       1.0  0.8924700230286364  0.3529084254583239  0.18151132276249626  1.0000
  H   H13       1.0  0.23576785240963724  0.7859650633076285  0.47696272568903453  1.0000
  H   H14       1.0  0.7642392988469027  0.2140319838592433  0.5230362737128333  1.0000
  H   H15       1.0  0.30341448148504924  0.6006100664273575  0.4676596728015951  1.0000
  H   H16       1.0  0.6965914621336253  0.3993877877009097  0.5323399572867872  1.0000
  H   H17       1.0  0.028775255782456096  0.8335015449734227  0.7294058005322201  1.0000
  H   H18       1.0  0.9712245635993285  0.16649792307762817  0.2705917753462401  1.0000
  H   H19       1.0  0.23943868866388132  0.8718846635724729  0.679744103709112  1.0000
  H   H20       1.0  0.7605635746761622  0.12811399751718258  0.3202541949645835  1.0000
  H   H21       1.0  0.2186925925056471  0.04737105458048058  0.5791732917890543  1.0000
  H   H22       1.0  0.7813122008401621  0.9526292204319659  0.4208242335615751  1.0000
  H   H23       1.0  0.002295597129482  0.041176011975935  0.6302393520957852  1.0000
  H   H24       1.0  0.9977091962163271  0.9588242630365045  0.36975668353022684  1.0000
  H   H25       1.0  0.8328070241370042  0.8991567307683894  0.6056632248660565  1.0000
  H   H26       1.0  0.16719521052052502  0.10084112335987777  0.39433457936399924  1.0000
  H   H27       1.0  0.934127788566208  0.8109292209231141  0.5369057917297654  1.0000
  H   H28       1.0  0.0658770047796011  0.1890710540893252  0.46309024389624664  1.0000
  H   H29       1.0  0.4223927059644552  0.22390192864185815  0.5356953224265908  1.0000
  H   H30       1.0  0.5776170039803645  0.7760975394091927  0.46430265323354564  1.0000
  H   H31       1.0  0.4905973143954654  0.1933076013960644  0.35732730100087917  1.0000
  H   H32       1.0  0.5094075076328509  0.8066934805777635  0.6426699739310919  1.0000
  H   H33       1.0  0.189449613082985  0.4652802201450611  0.23628307340660373  1.0000
  H   H34       1.0  0.8105488839309061  0.5347168270218177  0.7637191142822746  1.0000
  H   H35       1.0  0.1272712456942671  0.4826339248748538  0.41705706544080823  1.0000
  H   H36       1.0  0.8727309889632694  0.5173639292534132  0.582945207963114  1.0000
  H   H37       1.0  0.4926655232544803  0.2612343835088424  0.16797190540385298  1.0000
  H   H38       1.0  0.5073255558371416  0.7387626636580292  0.8320266305683646  1.0000
  H   H39       1.0  0.2806627558416039  0.2728231560559067  0.15838036291926735  1.0000
  H   H40       1.0  0.719325850609266  0.727173891110972  0.8416229147125595  1.0000
  H   H41       1.0  0.6707269842546282  0.42952618176035867  0.08344337277712559  1.0000
  H   H42       1.0  0.32926535983988  0.5704716723679083  0.9165592457074327  1.0000
  H   H43       1.0  0.5449315959088992  0.4827848266551129  0.17777767934443028  1.0000
  H   H44       1.0  0.4550570965894849  0.5172146413959381  0.8222263367560317  1.0000
  H   H45       1.0  0.31066221441228237  0.37181956567421537  0.9788093815183673  1.0000
  H   H46       1.0  0.6893325162754634  0.6281758675698725  0.021192226011827135  1.0000
  H   H47       1.0  0.529640113079644  0.3627646518972795  0.963915603370481  1.0000
  H   H48       1.0  0.4703559686585024  0.637234009192376  0.03608561110449678  1.0000
  H   H49       1.0  0.4070208035503953  0.0814103000076898  0.875594234578756  1.0000
  H   H50       1.0  0.5929816032021691  0.9185923958889288  0.12441026062474247  1.0000
  H   H51       1.0  0.4720437581146157  0.1709394385778751  0.9360646837788951  1.0000
  H   H52       1.0  0.5279550257243315  0.8290656782029158  0.06393723431028064  1.0000
  H   H53       1.0  0.6427607090938211  0.1417815026094189  0.7236234670012538  1.0000
  H   H54       1.0  0.35724172634125045  0.8582220002485882  0.2763777983343304  1.0000
  H   H55       1.0  0.6712616231938711  0.3318362426353048  0.7342970346256125  1.0000
  H   H56       1.0  0.3287420772440798  0.6681680671840979  0.2657001197368772  1.0000
  H   H57       1.0  0.7487452236928434  0.2753400686368082  0.8539463123690966  1.0000
  H   H58       1.0  0.2512561761993837  0.7246690829509461  0.1460525914163924  1.0000
  C   C1        1.0  0.18837467816531017  0.539421411935777  0.7277099799599469  1.0000
  C   C2        1.0  0.8116164009263116  0.4605756352311018  0.27229004573689514  1.0000
  C   C3        1.0  0.150922201768573  0.6399962380363745  0.7392185488214268  1.0000
  C   C4        1.0  0.8490714360113216  0.3600032300146765  0.2607782185467471  1.0000
  C   C5        1.0  0.1674927743287569  0.73130634039817  0.6488571940635028  1.0000
  C   C6        1.0  0.8325082526909001  0.2686923206914855  0.3511390062661236  1.0000
  C   C7        1.0  0.22264465681635673  0.716826225184434  0.5493741012979572  1.0000
  C   C8        1.0  0.7773613154848178  0.2831724359052288  0.4506237886471357  1.0000
  C   C9        1.0  0.2590114791337825  0.6138119547965458  0.5441232008503081  1.0000
  C   C10       1.0  0.7409906407937327  0.3861826714861536  0.4558770947790265  1.0000
  C   C11       1.0  0.1298050671836251  0.8414372032999893  0.6596341868121628  1.0000
  C   C12       1.0  0.8701959598360389  0.1585614577896735  0.3403635032420951  1.0000
  C   C13       1.0  0.09677680858737152  0.029116780937478395  0.5650485899904397  1.0000
  C   C14       1.0  0.9032242471147925  0.9708826871135725  0.43494810478283363  1.0000
  C   C15       1.0  0.9340815667786019  0.8936992508759187  0.5405516073180083  1.0000
  C   C16       1.0  0.065921961564321  0.1063002171751322  0.4594448149695297  1.0000
  C   C17       1.0  0.37212621299584475  0.27398437349864924  0.46698691921023555  1.0000
  C   C18       1.0  0.6278797593053297  0.7260142875910133  0.5330132053217939  1.0000
  C   C19       1.0  0.40911801907968487  0.258119512536652  0.36787056722322836  1.0000
  C   C20       1.0  0.5908867455836173  0.741879955514399  0.6321286982706982  1.0000
  C   C21       1.0  0.34414231942866985  0.3264780189940168  0.2820006540488934  1.0000
  C   C22       1.0  0.6558549125823419  0.6735182212114664  0.7180004305769006  1.0000
  C   C23       1.0  0.2410108431217139  0.40856293872521826  0.30074855393216643  1.0000
  C   C24       1.0  0.7589889188950636  0.5914349154030489  0.6992525022328666  1.0000
  C   C25       1.0  0.2076879185043694  0.419056664663664  0.4019860247049039  1.0000
  C   C26       1.0  0.7923130224677736  0.5809395755418194  0.598015396054592  1.0000
  C   C27       1.0  0.3847998494251073  0.3145793732725153  0.17228277128504743  1.0000
  C   C28       1.0  0.6151924659868939  0.6854176738943564  0.8277186078935516  1.0000
  C   C29       1.0  0.5573976299977019  0.4759038668675756  0.09735581313882594  1.0000
  C   C30       1.0  0.4425946567317922  0.5240923733379077  0.902647306183063  1.0000
  C   C31       1.0  0.4228701184587536  0.411944106956696  0.9836849161907184  1.0000
  C   C32       1.0  0.5771259345968858  0.5880537471715712  0.016316548702917495  1.0000
  C   C33       1.0  0.3626801326538213  0.24398477679858385  0.7981177946740203  1.0000
  C   C34       1.0  0.6373196867279631  0.7560146912524672  0.20188350551599402  1.0000
  C   C35       1.0  0.4711108612562995  0.15944104570669276  0.858488756477968  1.0000
  C   C36       1.0  0.5288928104991442  0.8405624571513215  0.141513862339373  1.0000
  C   C37       1.0  0.6485029302315013  0.1568636110214072  0.79894117975406  1.0000
  C   C38       1.0  0.3514970612453183  0.8431406987979881  0.20106159737322576  1.0000
  C   C39       1.0  0.7401005401753126  0.2634349672241711  0.7773061113343616  1.0000
  C   C40       1.0  0.2599006876218866  0.7365693425952313  0.2226942949631195  1.0000
  C   C41       1.0  0.9159498159883058  0.2723744855220858  0.716713974124815  1.0000
  C   C42       1.0  0.0840512970788723  0.7276265964517492  0.2832859441226958  1.0000
  C   C43       1.0  0.7375526364242333  0.061628448450086595  0.8654813800614536  1.0000
  C   C44       1.0  0.2624512934737666  0.9383823170604444  0.13452419902409218  1.0000
  N   N1        1.0  0.24163392608907944  0.5259548402300851  0.6315676538337699  1.0000
  N   N2        1.0  0.758365835927691  0.474043013898175  0.36843265746895065  1.0000
  N   N3        1.0  0.09402262699374123  0.9182139309961883  0.5621988154415833  1.0000
  N   N4        1.0  0.9059784000259228  0.0817847300934673  0.43779887461266764  1.0000
  N   N5        1.0  0.2733488952476435  0.35359514960271093  0.48390959092240143  1.0000
  N   N6        1.0  0.7266558407331518  0.6464035114869446  0.5160906698524954  1.0000
  N   N7        1.0  0.41114532062348275  0.4196094332170189  0.09078304268739153  1.0000
  N   N8        1.0  0.5888470234710254  0.5803884209112481  0.9092188309348546  1.0000
  O   O1        1.0  0.24096877110363124  0.2804562038605596  0.847269019930309  1.0000
  O   O2        1.0  0.7590310769606605  0.7195440711518799  0.15272830552948596  1.0000
  O   O3        1.0  0.39823392851407396  0.27507215745474406  0.6946719367099945  1.0000
  O   O4        1.0  0.60176712718809  0.7249273105963068  0.3053292272371523  1.0000
  O   O5        1.0  0.980631868393978  0.36921711518579053  0.6819060779196706  1.0000
  O   O6        1.0  0.0193778415508348  0.6307823528652605  0.31809487718971513  1.0000
  O   O7        1.0  0.9943491379434448  0.192597475371322  0.7020856640584158  1.0000
  O   O8        1.0  0.005649531165474299  0.8074044135639084  0.2979120416692355  1.0000
  O   O9        1.0  0.805649725620313  0.0805662183919083  0.9368563203149024  1.0000
  O   O10       1.0  0.194357798508797  0.9194413192730548  0.06314389281819652  1.0000
  O   O11       1.0  0.7355470552839664  0.9722738885529691  0.8471303929886604  1.0000
  O   O12       1.0  0.264461619118002  0.027731228227828798  0.15286894543294247  1.0000
  O   O13       1.0  0.8575341944130059  0.9671093356457019  0.16570787818347554  1.0000
  O   O14       1.0  0.14246559628627148  0.032889325443953496  0.8342921827005869  1.0000
  O   O15       1.0  0.9294468321349711  0.856105340518006  0.9676923793397664  1.0000
  O   O16       1.0  0.07055310197683441  0.1438973553786127  0.032310898624849926  1.0000
