data_image0
_chemical_formula_structural       Zn4H36C44N12O8
_chemical_formula_sum              "Zn4 H36 C44 N12 O8"
_cell_length_a       9.4482085422901
_cell_length_b       9.601030980095025
_cell_length_c       14.406655589236344
_cell_angle_alpha    96.8118491076045
_cell_angle_beta     90.00071853192078
_cell_angle_gamma    90.00045507961146

_space_group_name_H-M_alt    "P 1"
_space_group_IT_number       1

loop_
  _space_group_symop_operation_xyz
  'x, y, z'

loop_
  _atom_site_type_symbol
  _atom_site_label
  _atom_site_symmetry_multiplicity
  _atom_site_fract_x
  _atom_site_fract_y
  _atom_site_fract_z
  _atom_site_occupancy
  Zn  Zn1       1.0  0.9456543371001305  0.3969414465738978  0.5978234706172003  1.0000
  Zn  Zn2       1.0  0.44564642880932587  0.1030553832476429  0.4021773933349166  1.0000
  Zn  Zn3       1.0  0.0543499384405948  0.6030549834476202  0.40218025013742675  1.0000
  Zn  Zn4       1.0  0.5543557298849606  0.8969418306702223  0.5978215086672378  1.0000
  H   H1        1.0  0.31203958990712277  0.3858379877445016  0.33474362202321106  1.0000
  H   H2        1.0  0.8120570823390595  0.11416369117903  0.6652529116101321  1.0000
  H   H3        1.0  0.6879742113605262  0.6141682545109717  0.6652675861865093  1.0000
  H   H4        1.0  0.18794613473161095  0.8858323611617817  0.33474384255078593  1.0000
  H   H5        1.0  0.19031095158246103  0.17316566338360667  0.5619229823239991  1.0000
  H   H6        1.0  0.6903057011219432  0.3268265264743916  0.4380726968062162  1.0000
  H   H7        1.0  0.8096933239233409  0.8268275084973309  0.4380784748460869  1.0000
  H   H8        1.0  0.3096879904381852  0.6731793002435535  0.5619308480657493  1.0000
  H   H9        1.0  0.009960270117844101  0.39508536198016486  0.9001137386282705  1.0000
  H   H10       1.0  0.5099393234409035  0.10492090003096877  0.09988189301394357  1.0000
  H   H11       1.0  0.9900281293672393  0.6049088581056876  0.09988777634013958  1.0000
  H   H12       1.0  0.49005225124191304  0.895080431419316  0.9001158471002383  1.0000
  H   H13       1.0  0.1234424751979617  0.09571388929678898  0.8450457833077749  1.0000
  H   H14       1.0  0.6234355969161386  0.40428310428798386  0.1549530707331357  1.0000
  H   H15       1.0  0.8765543914822589  0.9042792070142904  0.15495428051140436  1.0000
  H   H16       1.0  0.37656232816043916  0.5957160928658993  0.8450438570119729  1.0000
  H   H17       1.0  0.22829148757274  0.9840036467596037  0.9697412928409291  1.0000
  H   H18       1.0  0.7282875353533244  0.5160082357876377  0.030259289752471805  1.0000
  H   H19       1.0  0.7717000871230014  0.0159946909231223  0.030259060301005995  1.0000
  H   H20       1.0  0.27170827293352323  0.4839910368914814  0.9697390313009675  1.0000
  H   H21       1.0  0.25476038752211855  0.9587714113399382  0.1383207745147388  1.0000
  H   H22       1.0  0.7547514212761187  0.5412343539636878  0.8616783041225702  1.0000
  H   H23       1.0  0.7452438880140165  0.041234188822144795  0.8616785904511346  1.0000
  H   H24       1.0  0.245245445393202  0.4587607256032412  0.13831978545847787  1.0000
  H   H25       1.0  0.13708083345666472  0.12859799494706434  0.2579284309970404  1.0000
  H   H26       1.0  0.6370711921244238  0.3714073615684084  0.7420682212605312  1.0000
  H   H27       1.0  0.8629319093095378  0.8714097395808265  0.7420717464041429  1.0000
  H   H28       1.0  0.3629309665465712  0.6285876802557412  0.2579291716852694  1.0000
  H   H29       1.0  0.9963847996280892  0.32762452043321827  0.20769728943360377  1.0000
  H   H30       1.0  0.4963796453902917  0.17237663791085106  0.7922979895465616  1.0000
  H   H31       1.0  0.003617359090228001  0.6723779348810837  0.7923019019149675  1.0000
  H   H32       1.0  0.5036161628712393  0.8276214731862551  0.2076981836609022  1.0000
  H   H33       1.0  0.9704365772849146  0.3520539633621809  0.040501158645732  1.0000
  H   H34       1.0  0.470440782710611  0.14795211777457237  0.959492784459293  1.0000
  H   H35       1.0  0.029558172618706594  0.6479464331264139  0.959498613590057  1.0000
  H   H36       1.0  0.5295571423776125  0.8520481654261755  0.04050489781398878  1.0000
  C   C1        1.0  0.2552324460366934  0.3553486651496769  0.3946196449842602  1.0000
  C   C2        1.0  0.7552395115193065  0.1446515465145382  0.6053784129230523  1.0000
  C   C3        1.0  0.7447771215714952  0.6446562644336494  0.6053866287249718  1.0000
  C   C4        1.0  0.24476053037434306  0.855347726184412  0.3946199081493161  1.0000
  C   C5        1.0  0.19602505370465914  0.24564021616288303  0.5095272681021186  1.0000
  C   C6        1.0  0.6960212790064874  0.25435524761124373  0.4904700290374605  1.0000
  C   C7        1.0  0.8039802802240956  0.7543561383284468  0.49047505933944535  1.0000
  C   C8        1.0  0.30397452931730834  0.7456462726967458  0.5095311943901351  1.0000
  C   C9        1.0  0.026761691719954704  0.3031715681500486  0.7550824434886322  1.0000
  C   C10       1.0  0.5267453310384838  0.19683769399465226  0.2449079386950359  1.0000
  C   C11       1.0  0.9732447006168102  0.6968319732309496  0.24491750240703417  1.0000
  C   C12       1.0  0.4732483604457016  0.8031646479772618  0.7550891626389953  1.0000
  C   C13       1.0  0.042905394546913604  0.3000369688960091  0.8565020258424525  1.0000
  C   C14       1.0  0.5428892305242172  0.19996117780303282  0.1434927406973685  1.0000
  C   C15       1.0  0.957087238529276  0.6999581861862367  0.14349745703746916  1.0000
  C   C16       1.0  0.45710551935409427  0.8000380571035489  0.8565048836924375  1.0000
  C   C17       1.0  0.09054712498253542  0.18627653926954216  0.8936122241046716  1.0000
  C   C18       1.0  0.5905375221276686  0.3137180495428565  0.10638622014103298  1.0000
  C   C19       1.0  0.9094444497083958  0.8137207501338962  0.10638807116797722  1.0000
  C   C20       1.0  0.40945828613589447  0.6862790510425397  0.8936105918560528  1.0000
  C   C21       1.0  0.10200204724808512  0.17280206690909947  0.9930412744465043  1.0000
  C   C22       1.0  0.6019969967190376  0.3272008644113597  0.006954948531294697  1.0000
  C   C23       1.0  0.8979948194678044  0.8271973568452748  0.006959833247265097  1.0000
  C   C24       1.0  0.39799563634144874  0.6727952256474551  0.9930425022412166  1.0000
  C   C25       1.0  0.17961228641050303  0.0605352508370842  0.022282886167253893  1.0000
  C   C26       1.0  0.6796098343079039  0.4394661222400557  0.9777104315303402  1.0000
  C   C27       1.0  0.8203845802950269  0.9394590070560082  0.9777193254979009  1.0000
  C   C28       1.0  0.3203923243686475  0.5605330371660883  0.022285799574788698  1.0000
  C   C29       1.0  0.1931395061492083  0.04534128837815389  0.1169071162621975  1.0000
  C   C30       1.0  0.6931343037628395  0.4546678892876414  0.883092997355071  1.0000
  C   C31       1.0  0.8068637110290099  0.9546665971754105  0.8830958477320009  1.0000
  C   C32       1.0  0.30686362130412453  0.545329211307667  0.1169038146514723  1.0000
  C   C33       1.0  0.1274677699235696  0.14104836299589607  0.1839302456940928  1.0000
  C   C34       1.0  0.6274668559515818  0.3589558552150649  0.8160662628040923  1.0000
  C   C35       1.0  0.8725354472060544  0.8589561888819401  0.8160690613977692  1.0000
  C   C36       1.0  0.3725353027214453  0.6410381760973676  0.18393176893132326  1.0000
  C   C37       1.0  0.047737494162454694  0.2517945184548863  0.15617125929372827  1.0000
  C   C38       1.0  0.5477330392721101  0.24820472185089673  0.8438236083608146  1.0000
  C   C39       1.0  0.9522667813681237  0.7482069641251953  0.8438292675128166  1.0000
  C   C40       1.0  0.4522659442218711  0.751793540331384  0.1561753514964366  1.0000
  C   C41       1.0  0.03531842372102291  0.2673192025680748  0.0616903143613143  1.0000
  C   C42       1.0  0.5353177722043229  0.23267494437614988  0.9383090295647063  1.0000
  C   C43       1.0  0.9646752678239351  0.732680410009301  0.9383142766127575  1.0000
  C   C44       1.0  0.4646812112499249  0.7673190113862629  0.06168760883871729  1.0000
  N   N1        1.0  0.10722981867899509  0.35317716937648663  0.5093261159008904  1.0000
  N   N2        1.0  0.6072262341149325  0.1468197478602633  0.4906739865510801  1.0000
  N   N3        1.0  0.8927744568186925  0.6468200445512976  0.49067278611072845  1.0000
  N   N4        1.0  0.3927748661872599  0.8531795626112167  0.5093250311849076  1.0000
  N   N5        1.0  0.14466506179743283  0.42329952242039326  0.4353626585201056  1.0000
  N   N6        1.0  0.6446697362073409  0.07670085266125429  0.5646372555433175  1.0000
  N   N7        1.0  0.8553402721553526  0.5767020734673663  0.5646399582678682  1.0000
  N   N8        1.0  0.35533136407433835  0.9232983445075078  0.43535967221597355  1.0000
  N   N9        1.0  0.29028456212111564  0.24330937878916353  0.4387059487142153  1.0000
  N   N10       1.0  0.790289573743884  0.2566910857383532  0.5612910291894478  1.0000
  N   N11       1.0  0.7097239470648661  0.7566954374864847  0.5612982350135951  1.0000
  N   N12       1.0  0.20971046818672792  0.7433104345894677  0.4387101942570695  1.0000
  O   O1        1.0  0.9818615305694608  0.4235947866084472  0.7312696077056983  1.0000
  O   O2        1.0  0.4818466126497754  0.07642428297271657  0.2687307051416282  1.0000
  O   O3        1.0  0.0181533290158384  0.5764120129528009  0.2687326018123599  1.0000
  O   O4        1.0  0.5181566044818736  0.9235792583934097  0.7312692407398486  1.0000
  O   O5        1.0  0.049865606464422306  0.19860569075238027  0.6956167323555889  1.0000
  O   O6        1.0  0.5498607602040267  0.3014016913514297  0.3043737406619016  1.0000
  O   O7        1.0  0.9501386690572888  0.8013967645718408  0.30438245900244  1.0000
  O   O8        1.0  0.4501297560641646  0.698602633861462  0.695621386419802  1.0000
