data_image0
_chemical_formula_structural       Cd4H32C52S4N20O12
_chemical_formula_sum              "Cd4 H32 C52 S4 N20 O12"
_cell_length_a       6.834162229
_cell_length_b       10.64210591045482
_cell_length_c       20.3073
_cell_angle_alpha    90.0
_cell_angle_beta     90.0
_cell_angle_gamma    100.52287271438685

_space_group_name_H-M_alt    "P 1"
_space_group_IT_number       1

loop_
  _space_group_symop_operation_xyz
  'x, y, z'

loop_
  _atom_site_type_symbol
  _atom_site_label
  _atom_site_symmetry_multiplicity
  _atom_site_fract_x
  _atom_site_fract_y
  _atom_site_fract_z
  _atom_site_occupancy
  Cd  Cd1       1.0  0.2256748082616227  0.2765501911470736  0.9008962294347354  1.0000
  Cd  Cd2       1.0  0.2743117101598855  0.22344752344645977  0.4008952445672236  1.0000
  Cd  Cd3       1.0  0.7743276608823564  0.7234509724629135  0.09910426299902039  1.0000
  Cd  Cd4       1.0  0.7256814359628194  0.7765517286892207  0.5991047554327764  1.0000
  H   H1        1.0  0.5707170916962312  0.10295774055498441  0.1152033997626489  1.0000
  H   H2        1.0  0.9292761449562121  0.39703901830139193  0.6152043846301609  1.0000
  H   H3        1.0  0.4292745911893334  0.8970415115806887  0.884796600237351  1.0000
  H   H4        1.0  0.0707232301553375  0.6029564108856746  0.38479758510486306  1.0000
  H   H5        1.0  0.11869166694720691  0.7487177955794523  0.7345373338651626  1.0000
  H   H6        1.0  0.3813108159081082  0.7512810826240682  0.23453684143140655  1.0000
  H   H7        1.0  0.8813046774489947  0.2512824122933779  0.2654616812673254  1.0000
  H   H8        1.0  0.6186881831631581  0.24871816951161213  0.7654631585685934  1.0000
  H   H9        1.0  0.2516156249092063  0.3686106166823961  0.749769294785622  1.0000
  H   H10       1.0  0.24837912933671188  0.13138518643683034  0.24976880235186627  1.0000
  H   H11       1.0  0.7483868442347656  0.6313905469275839  0.2502307052143777  1.0000
  H   H12       1.0  0.7516242594459758  0.8686140656988501  0.7502297203468729  1.0000
  H   H13       1.0  0.316408825624137  0.43983979522872835  0.1511550033731694  1.0000
  H   H14       1.0  0.1835919491284983  0.0601617423134186  0.6511545109394135  1.0000
  H   H15       1.0  0.6835880623704895  0.5601623241184086  0.8488440117593185  1.0000
  H   H16       1.0  0.8164146379276858  0.9398384655594116  0.3488449966268306  1.0000
  H   H17       1.0  0.03262739841390073  0.7363295306009477  0.8531104578156601  1.0000
  H   H18       1.0  0.4673768194777637  0.7636703033397154  0.3531104578156601  1.0000
  H   H19       1.0  0.9673686741830848  0.2636697215347255  0.1468880648830719  1.0000
  H   H20       1.0  0.5326261932646403  0.23633277174457132  0.6468890497505839  1.0000
  H   H21       1.0  0.5161981289538105  0.2832613774361477  0.190689062553858  1.0000
  H   H22       1.0  0.9837997692092628  0.21673633715738566  0.6906895549876138  1.0000
  H   H23       1.0  0.4837955607673193  0.7167397861738323  0.8093104450123859  1.0000
  H   H24       1.0  0.016205730650064316  0.7832600477668381  0.30931142987989796  1.0000
  H   H25       1.0  0.41802240967381715  0.09224010412010841  0.0027241435345928  1.0000
  H   H26       1.0  0.08197343176895801  0.4077595219477318  0.5027256208358536  1.0000
  H   H27       1.0  0.5819742065215935  0.9077610594898787  0.9972753640316511  1.0000
  H   H28       1.0  0.9180258391015172  0.5922406859250985  0.4972773337666752  1.0000
  H   H29       1.0  0.2267277812678898  0.5601843060729337  0.6801110930552098  1.0000
  H   H30       1.0  0.2732715033139216  0.9398136163934298  0.1801110930552099  1.0000
  H   H31       1.0  0.7732732246389417  0.4398168575370534  0.3198879220772852  1.0000
  H   H32       1.0  0.7267286871952691  0.0601846800050936  0.8198879220772852  1.0000
  C   C1        1.0  0.028928319640158417  0.5227920456949988  0.9337711069418403  1.0000
  C   C2        1.0  0.4710732435764342  0.9772087439828284  0.43377159937559634  1.0000
  C   C3        1.0  0.9710680247560363  0.4772081621778312  0.0662279081906476  1.0000
  C   C4        1.0  0.5289358939137471  0.022795286838615404  0.5662274157568987  1.0000
  C   C5        1.0  0.11660951002690469  0.4258802983705294  0.030799761662059697  1.0000
  C   C6        1.0  0.38338687501430974  0.0741212391716175  0.5308007465295717  1.0000
  C   C7        1.0  0.8833839078950163  0.5741199095023007  0.9691987610366722  1.0000
  C   C8        1.0  0.6166202556403063  0.9258808801755195  0.46919974590418423  1.0000
  C   C9        1.0  0.4811296795664006  0.1730744410551068  0.10033288521861289  1.0000
  C   C10       1.0  0.018865618277949636  0.3269232735384265  0.600332392784864  1.0000
  C   C11       1.0  0.5188637383555204  0.8269257668177232  0.899667607215136  1.0000
  C   C12       1.0  0.9811360354683814  0.6730750228600968  0.3996690845164039  1.0000
  C   C13       1.0  0.12302700511986592  0.6613920919005878  0.7618772559621404  1.0000
  C   C14       1.0  0.3769742862975178  0.8386077420400824  0.26187627109462847  1.0000
  C   C15       1.0  0.8769678760391955  0.33860811597224233  0.23812274403785946  1.0000
  C   C16       1.0  0.6230293742843855  0.16139246583274772  0.7381242213391273  1.0000
  C   C17       1.0  0.07938456807985973  0.54100935157026  0.8628045087234638  1.0000
  C   C18       1.0  0.4206140686624593  0.9589914381075603  0.3628040162897079  1.0000
  C   C19       1.0  0.9206120481155579  0.4589918120397202  0.1371954912765361  1.0000
  C   C20       1.0  0.5793918705542325  0.041011636976726606  0.637195491276536  1.0000
  C   C21       1.0  0.197224157865648  0.4505278038118591  0.7700915434351217  1.0000
  C   C22       1.0  0.3027728750150587  0.049470866518824215  0.2700915434351217  1.0000
  C   C23       1.0  0.8027785830775472  0.5494743155352779  0.22990747169737347  1.0000
  C   C24       1.0  0.6972298659281294  0.950531252828313  0.7299074716973734  1.0000
  C   C25       1.0  0.3369716692403841  0.360057724899292  0.1199593249718092  1.0000
  C   C26       1.0  0.1630259072387474  0.139942856905698  0.6199593249718092  1.0000
  C   C27       1.0  0.6630222922799618  0.6399443944478449  0.8800396901606786  1.0000
  C   C28       1.0  0.836978672981864  0.8600554394928253  0.38004067502819067  1.0000
  C   C29       1.0  0.07191974609636284  0.6537538405730035  0.8284006244060009  1.0000
  C   C30       1.0  0.4280830085581612  0.846245993367667  0.3284001319722449  1.0000
  C   C31       1.0  0.9280768700990549  0.3462473230369838  0.1715983907264871  1.0000
  C   C32       1.0  0.5719226588593074  0.15375612597947  0.671599375593999  1.0000
  C   C33       1.0  0.2503840921866427  0.3430972133803607  0.057520202094813996  1.0000
  C   C34       1.0  0.2496132124932799  0.1569024126874794  0.5575202020948139  1.0000
  C   C35       1.0  0.7496107889724187  0.6569029944924695  0.9424797979051859  1.0000
  C   C36       1.0  0.7503919113257638  0.8430977951853507  0.442479797905186  1.0000
  C   C37       1.0  0.45189112807676673  0.2726393147165851  0.1415870155067367  1.0000
  C   C38       1.0  0.048105633004723806  0.22735839987694825  0.6415870155067367  1.0000
  C   C39       1.0  0.5481008266080067  0.7273608931562522  0.8584129844932632  1.0000
  C   C40       1.0  0.9518989472158951  0.7726398965215752  0.3584144617945242  1.0000
  C   C41       1.0  0.3968642701092336  0.1664301563667436  0.0375756501356648  1.0000
  C   C42       1.0  0.10312983629719237  0.3335685139639395  0.5375761425694208  1.0000
  C   C43       1.0  0.6031274127763311  0.8335690957689295  0.962424349864335  1.0000
  C   C44       1.0  0.8968711696096392  0.6664326496460475  0.4624258271656032  1.0000
  C   C45       1.0  0.18422416215286566  0.5575053748327861  0.7318506152959755  1.0000
  C   C46       1.0  0.3157739309910212  0.9424935033707272  0.2318506152959756  1.0000
  C   C47       1.0  0.8157751087176165  0.4424948330400441  0.2681483998365124  1.0000
  C   C48       1.0  0.6842288099521666  0.0575086159764098  0.7681493847040244  1.0000
  C   C49       1.0  0.6840246773133956  0.2485021729150105  0.9109655148641095  1.0000
  C   C50       1.0  0.815961786751771  0.25149649741567265  0.4109655148641096  1.0000
  C   C51       1.0  0.3159710601672998  0.7514856103748286  0.0890374397384193  1.0000
  C   C52       1.0  0.1840312551298666  0.7485075334057641  0.5890349775696392  1.0000
  S   S1        1.0  0.8384237150916221  0.16286907973429274  0.9401333510609502  1.0000
  S   S2        1.0  0.66156979336003  0.3371286348592406  0.44013088889217034  1.0000
  S   S3        1.0  0.1615851915233364  0.8371187035555465  0.05986861867407359  1.0000
  S   S4        1.0  0.3384291014701688  0.6628753959622032  0.5598681262403176  1.0000
  N   N1        1.0  0.1374489802259973  0.450227702345785  0.9663190084353913  1.0000
  N   N2        1.0  0.3625515227274221  0.049772879459204916  0.46631950086914736  1.0000
  N   N3        1.0  0.8625470923709883  0.5497715497898952  0.0336800066970966  1.0000
  N   N4        1.0  0.6374546882884786  0.950231151362239  0.5336800066970966  1.0000
  N   N5        1.0  0.14596720079202896  0.4423734544215989  0.8338055773047159  1.0000
  N   N6        1.0  0.3540286406507533  0.0576261716462412  0.333804592437204  1.0000
  N   N7        1.0  0.8540326136768854  0.5576286649255381  0.1661944226952841  1.0000
  N   N8        1.0  0.6459787618030716  0.9423769034380528  0.6661939302615281  1.0000
  N   N9        1.0  0.2854624579788024  0.24956781984072055  0.016468954513896995  1.0000
  N   N10       1.0  0.2145313766284076  0.2504298947528127  0.5164694469476458  1.0000
  N   N11       1.0  0.7145338864173922  0.7504323880321095  0.983530553052354  1.0000
  N   N12       1.0  0.7854678942420746  0.7495703131200173  0.483531537919859  1.0000
  N   N13       1.0  0.566514211778518  0.3085750316731862  0.8904364440373627  1.0000
  N   N14       1.0  0.9334787530747022  0.1914207714460403  0.3904354591698578  1.0000
  N   N15       1.0  0.43349160080401117  0.6914070171937328  0.10956651056516617  1.0000
  N   N16       1.0  0.06651575204407581  0.8085832593754035  0.6095635559626373  1.0000
  N   N17       1.0  0.1895168895344099  0.050757288726899205  0.819248250629087  1.0000
  N   N18       1.0  0.3104801433462967  0.4492413816037839  0.3192477581953312  1.0000
  N   N19       1.0  0.8104823813360653  0.9492429191459308  0.1807527342384248  1.0000
  N   N20       1.0  0.6895159292506889  0.5507578705318963  0.6807527342384248  1.0000
  O   O1        1.0  0.22918148627009322  0.0409886992850517  0.8804848502755148  1.0000
  O   O2        1.0  0.2708138115742571  0.4590090153084816  0.38048386540800283  1.0000
  O   O3        1.0  0.7708187042390976  0.9590095971134716  0.11951564215824109  1.0000
  O   O4        1.0  0.7291854592962252  0.5409911925643485  0.619516627025746  1.0000
  O   O5        1.0  0.1716081803716918  0.16149759691958823  0.797384191891588  1.0000
  O   O6        1.0  0.3283923225817205  0.33850298488540187  0.29738419189158793  1.0000
  O   O7        1.0  0.8283954802102116  0.8385026109532419  0.2026167929759239  1.0000
  O   O8        1.0  0.6716040218144741  0.6614972229874283  0.7026172854096799  1.0000
  O   O9        1.0  0.1683937630768781  0.9566737755112911  0.7816982070486984  1.0000
  O   O10       1.0  0.33160871977842993  0.5433251026922221  0.2816986994824546  1.0000
  O   O11       1.0  0.8316055077936042  0.043326432361539  0.2183022853850574  1.0000
  O   O12       1.0  0.6683917425299768  0.456674149443451  0.7183017929513014  1.0000
