data_image0
_chemical_formula_structural       Zn4H12C28N4O16
_chemical_formula_sum              "Zn4 H12 C28 N4 O16"
_cell_length_a       6.567314980014623
_cell_length_b       8.504574374037144
_cell_length_c       12.94144099405132
_cell_angle_alpha    90.00028450611423
_cell_angle_beta     89.99984548494014
_cell_angle_gamma    89.99981604677193

_space_group_name_H-M_alt    "P 1"
_space_group_IT_number       1

loop_
  _space_group_symop_operation_xyz
  'x, y, z'

loop_
  _atom_site_type_symbol
  _atom_site_label
  _atom_site_symmetry_multiplicity
  _atom_site_fract_x
  _atom_site_fract_y
  _atom_site_fract_z
  _atom_site_occupancy
  Zn  Zn1       1.0  0.0578406910319842  0.6628871889991641  0.7487901472255629  1.0000
  Zn  Zn2       1.0  0.9421629897633323  0.3371089325439768  0.24879058871184873  1.0000
  Zn  Zn3       1.0  0.4421616493985355  0.16288990659084848  0.7487875194561511  1.0000
  Zn  Zn4       1.0  0.5578405087134756  0.8371097424442693  0.2487870347962513  1.0000
  H   H1        1.0  0.8622276666913393  0.7293343614648788  0.5445211037793882  1.0000
  H   H2        1.0  0.1377694777706679  0.2706672745350644  0.044517028418894704  1.0000
  H   H3        1.0  0.6377640590778527  0.2293272554883146  0.5445119413888051  1.0000
  H   H4        1.0  0.3622300400438903  0.7706696771147036  0.044513054708765806  1.0000
  H   H5        1.0  0.5350032885248766  0.5183303336115371  0.4535434804849103  1.0000
  H   H6        1.0  0.4649901764227025  0.4816685080054625  0.9535465212758185  1.0000
  H   H7        1.0  0.9649852211105312  0.018331818443733997  0.4535423666501118  1.0000
  H   H8        1.0  0.0350112892204848  0.9816705506741243  0.9535453169798489  1.0000
  H   H9        1.0  0.43364468214773677  0.5724279176528241  0.6360264087811842  1.0000
  H   H10       1.0  0.5663504571059477  0.42756735345980695  0.1360276642989007  1.0000
  H   H11       1.0  0.0663464452848999  0.0724362756719827  0.636024299313334  1.0000
  H   H12       1.0  0.9336441258805763  0.927568402137069  0.13602668293936662  1.0000
  C   C1        1.0  0.0087526999917529  0.6802241212338485  0.5214476745797398  1.0000
  C   C2        1.0  0.9912460888211003  0.31977851659684114  0.0214464462777428  1.0000
  C   C3        1.0  0.49124163143437743  0.18021966139973236  0.521442660970699  1.0000
  C   C4        1.0  0.5087541120239507  0.8197782730544245  0.021443732766414307  1.0000
  C   C5        1.0  0.0495886025717738  0.6479692723647756  0.4176701240431626  1.0000
  C   C6        1.0  0.950411142306031  0.35203400203510427  0.9176705261273669  1.0000
  C   C7        1.0  0.4504048867132653  0.14796844187471683  0.41766671218183404  1.0000
  C   C8        1.0  0.5495963808889783  0.8520301291400256  0.9176654381536979  1.0000
  C   C9        1.0  0.24140387275208042  0.5852967813709142  0.39188141645250607  1.0000
  C   C10       1.0  0.7585975307963081  0.4147086502132992  0.8918830606876327  1.0000
  C   C11       1.0  0.258593056985049  0.08529290165202497  0.3918782691230547  1.0000
  C   C12       1.0  0.7414098692930294  0.9147042990365718  0.8918784808877974  1.0000
  C   C13       1.0  0.3839048671471729  0.5642011964084686  0.4710726195433495  1.0000
  C   C14       1.0  0.6160930734466348  0.43580012907013094  0.9710729838480606  1.0000
  C   C15       1.0  0.11609020951193122  0.06420237536451617  0.47106889604014424  1.0000
  C   C16       1.0  0.8839077310981837  0.9357989500907704  0.9710705256594425  1.0000
  C   C17       1.0  0.328956660073743  0.5956082751542837  0.5725521344894418  1.0000
  C   C18       1.0  0.6710418592619477  0.4043900447578253  0.0725539425578035  1.0000
  C   C19       1.0  0.17104079702286873  0.09561166877324467  0.5725491079186682  1.0000
  C   C20       1.0  0.828954676937606  0.9043890027978633  0.07255156015416732  1.0000
  C   C21       1.0  0.889562164346721  0.6797120163219146  0.3376282782482036  1.0000
  C   C22       1.0  0.11043495722285003  0.3202894785742814  0.8376266441448126  1.0000
  C   C23       1.0  0.6104308574969863  0.1797085060299111  0.33762301711796994  1.0000
  C   C24       1.0  0.3895708321840701  0.8202871096395509  0.8376234054360269  1.0000
  C   C25       1.0  0.3044041322637767  0.5340920907132443  0.2848653858503809  1.0000
  C   C26       1.0  0.6955978356067618  0.465911357917001  0.7848618753930767  1.0000
  C   C27       1.0  0.1955981415345818  0.03408836806343629  0.2848584618459995  1.0000
  C   C28       1.0  0.8044114398239018  0.9659092013479339  0.7848633904022436  1.0000
  N   N1        1.0  0.14271141671009246  0.6505578531264433  0.5974328896279246  1.0000
  N   N2        1.0  0.8572915395086654  0.34944183025380937  0.09743194305463021  1.0000
  N   N3        1.0  0.3572872047357833  0.15055960650317948  0.597428833484777  1.0000
  N   N4        1.0  0.6427096607280022  0.8494400768642761  0.09743059022162731  1.0000
  O   O1        1.0  0.7708405995521659  0.7972783751316754  0.3558251348962997  1.0000
  O   O2        1.0  0.22916099412979213  0.20272913618335048  0.8558229527018781  1.0000
  O   O3        1.0  0.7291609765057316  0.2972651621105271  0.3558235735685785  1.0000
  O   O4        1.0  0.2708512760661961  0.7027270632823529  0.8558198777283863  1.0000
  O   O5        1.0  0.8792112882177107  0.5934557985816865  0.258777574307878  1.0000
  O   O6        1.0  0.12078015838697098  0.40654157411653097  0.7587723443701153  1.0000
  O   O7        1.0  0.6207779378975005  0.09345931749685117  0.25876843535910155  1.0000
  O   O8        1.0  0.3792211221863441  0.9065462860069214  0.758768347231964  1.0000
  O   O9        1.0  0.23632339344327144  0.4026851246622981  0.2525017431496863  1.0000
  O   O10       1.0  0.763678745092399  0.5973145523718131  0.7524977956964137  1.0000
  O   O11       1.0  0.26367752730715205  0.9026854213016546  0.25249635993138503  1.0000
  O   O12       1.0  0.7363261339265463  0.09731543155669438  0.752500088069681  1.0000
  O   O13       1.0  0.4350602365461711  0.6121027014178325  0.23578665374047603  1.0000
  O   O14       1.0  0.5649450355053319  0.3878968495631269  0.7357861592695161  1.0000
  O   O15       1.0  0.0649434962532922  0.11210400790084656  0.2357783645128251  1.0000
  O   O16       1.0  0.9350632985186493  0.8878967188723053  0.7357828578258748  1.0000
