data_image0
_chemical_formula_structural       Cd12H32C32N48Cl8
_chemical_formula_sum              "Cd12 H32 C32 N48 Cl8"
_cell_length_a       8.336446190000043
_cell_length_b       13.173261050000102
_cell_length_c       17.033385962000082
_cell_angle_alpha    90.00000988659262
_cell_angle_beta     90.00000549734072
_cell_angle_gamma    90.00001025122629

_space_group_name_H-M_alt    "P 1"
_space_group_IT_number       1

loop_
  _space_group_symop_operation_xyz
  'x, y, z'

loop_
  _atom_site_type_symbol
  _atom_site_label
  _atom_site_symmetry_multiplicity
  _atom_site_fract_x
  _atom_site_fract_y
  _atom_site_fract_z
  _atom_site_occupancy
  Cd  Cd1       1.0  0.24999996640188019  0.6803980410890346  0.563597331442452  1.0000
  Cd  Cd2       1.0  0.7499995605432943  0.18039815064049952  0.9364022244723247  1.0000
  Cd  Cd3       1.0  0.749999531345715  0.31960204696807176  0.43640240877360986  1.0000
  Cd  Cd4       1.0  0.2499999372043078  0.819601937416607  0.0635975157437301  1.0000
  Cd  Cd5       1.0  0.9971864620244587  0.5614207308904328  0.7542452842829521  1.0000
  Cd  Cd6       1.0  0.0028130310677028005  0.061420713863277916  0.7457548428303867  1.0000
  Cd  Cd7       1.0  0.497186765975698  0.4385793849753483  0.24575446754263205  1.0000
  Cd  Cd8       1.0  0.5028127364274012  0.938579346385218  0.2542454728584859  1.0000
  Cd  Cd9       1.0  0.0028130357231433  0.4385793571666738  0.2457544559331098  1.0000
  Cd  Cd10      1.0  0.9971876662318733  0.9385793741939639  0.2542454844680436  1.0000
  Cd  Cd11      1.0  0.5028127317718967  0.5614207030817582  0.7542452726734298  1.0000
  Cd  Cd12      1.0  0.49718676132020073  0.06142074167188841  0.745754267357576  1.0000
  H   H1        1.0  0.9975486942884115  0.5556446005155776  0.4318795480357665  1.0000
  H   H2        1.0  0.0024506991567676997  0.05564454383024041  0.0681197541602501  1.0000
  H   H3        1.0  0.4975490630690231  0.44435551539095997  0.568120203806828  1.0000
  H   H4        1.0  0.5024517385330184  0.944356275490982  0.9318799744293501  1.0000
  H   H5        1.0  0.0024508034592968997  0.44435624665500467  0.568120192180345  1.0000
  H   H6        1.0  0.9975487985909408  0.9443563033403425  0.9318799860558615  1.0000
  H   H7        1.0  0.502450434678522  0.5556438135527344  0.4318801234915172  1.0000
  H   H8        1.0  0.4975489587666004  0.055644571679671614  0.0681197657867898  1.0000
  H   H9        1.0  0.9975535585485745  0.6699618330207288  0.9399124282444334  1.0000
  H   H10       1.0  0.0024459654270784998  0.16996101542991235  0.5600877133593656  1.0000
  H   H11       1.0  0.4975537952241922  0.3300382828863492  0.0600873235983954  1.0000
  H   H12       1.0  0.5024456762952524  0.8300382856637467  0.4399120152298793  1.0000
  H   H13       1.0  0.0024459391990277  0.33003825503637785  0.06008731197162831  1.0000
  H   H14       1.0  0.9975535323205235  0.8300390726271943  0.43991202685669617  1.0000
  H   H15       1.0  0.5024457025234099  0.6699618051707571  0.9399124166176663  1.0000
  H   H16       1.0  0.49755382145234955  0.16996180239335956  0.5600877249861826  1.0000
  H   H17       1.0  0.9129659617769477  0.8067555798978744  0.8039694111915452  1.0000
  H   H18       1.0  0.0870336011212487  0.30675556125573433  0.6960307486746161  1.0000
  H   H19       1.0  0.4129661861758365  0.1932437673796343  0.19603092376077316  1.0000
  H   H20       1.0  0.5870332464210648  0.6932437493541458  0.3039695709697554  1.0000
  H   H21       1.0  0.0870335359707113  0.19324450815929586  0.19603091610684942  1.0000
  H   H22       1.0  0.9129658966263036  0.6932437676879601  0.303969578623729  1.0000
  H   H23       1.0  0.5870333115718224  0.806756320677536  0.8039694035376217  1.0000
  H   H24       1.0  0.4129662513265941  0.3067563387030248  0.6960307563286393  1.0000
  H   H25       1.0  0.07629528709698971  0.9085594577045557  0.5849242825693822  1.0000
  H   H26       1.0  0.923705504319784  0.40855958204155485  0.9150758908878914  1.0000
  H   H27       1.0  0.5762947829408702  0.09143985169718147  0.41507544948831315  1.0000
  H   H28       1.0  0.423705820241338  0.591440525557644  0.08492444456887682  1.0000
  H   H29       1.0  0.9237054102025296  0.09144063035261499  0.415075457646708  1.0000
  H   H30       1.0  0.0762951929797921  0.5914405060156868  0.08492443641053171  1.0000
  H   H31       1.0  0.4237047148066182  0.9085594772464489  0.5849242907276988  1.0000
  H   H32       1.0  0.5762948770582312  0.4085595624995976  0.9150758827295464  1.0000
  C   C1        1.0  0.12237960418611488  0.5439375014823397  0.4160846635671831  1.0000
  C   C2        1.0  0.8776197859281751  0.043938305890300504  0.0839152241482992  1.0000
  C   C3        1.0  0.6223804364229721  0.456062572217462  0.5839150706550102  1.0000
  C   C4        1.0  0.3776203685095751  0.9560602782971517  0.9160839349792129  1.0000
  C   C5        1.0  0.8776186940093493  0.45606106834774357  0.5839150766487435  1.0000
  C   C6        1.0  0.1223809113712875  0.9560610230534581  0.9160851031500743  1.0000
  C   C7        1.0  0.3776190613248429  0.5439390340665966  0.4160846695611512  1.0000
  C   C8        1.0  0.622381528341691  0.043939050646549994  0.083915218154516  1.0000
  C   C9        1.0  0.1227071480962181  0.6596917357950859  0.9239144133915078  1.0000
  C   C10       1.0  0.8772923729574129  0.1596925384199182  0.5760851397589806  1.0000
  C   C11       1.0  0.6227066483069945  0.34030757882801776  0.07608532084599062  1.0000
  C   C12       1.0  0.3772928261344646  0.8403075639577154  0.423914606435595  1.0000
  C   C13       1.0  0.8772923496512771  0.3403075931485446  0.0760853268245043  1.0000
  C   C14       1.0  0.12270712479028836  0.8403083087506644  0.4239146004571382  1.0000
  C   C15       1.0  0.3772928494406641  0.6596925092291527  0.9239150064524042  1.0000
  C   C16       1.0  0.6227066716131304  0.1596925240993912  0.5760851337804669  1.0000
  C   C17       1.0  0.959376619890719  0.8089311951040444  0.7445173456291699  1.0000
  C   C18       1.0  0.040622943626516396  0.3089311845001248  0.7554828145274399  1.0000
  C   C19       1.0  0.45937685532358324  0.19106815739468894  0.2554829915029019  1.0000
  C   C20       1.0  0.5406225766542293  0.6910681208884597  0.24451691585484536  1.0000
  C   C21       1.0  0.04062287785693999  0.19106889295312612  0.2554829816692248  1.0000
  C   C22       1.0  0.9593765541210857  0.6910689035569818  0.24451692568862168  1.0000
  C   C23       1.0  0.5406226424240755  0.8089319306624817  0.7445173357955002  1.0000
  C   C24       1.0  0.4593769210933728  0.3089319671686468  0.7554828243612166  1.0000
  C   C25       1.0  0.039854097305031595  0.8602259468508962  0.633300449956572  1.0000
  C   C26       1.0  0.9601466803591663  0.3602260644982564  0.8666991299657172  1.0000
  C   C27       1.0  0.5398535974194801  0.1397741175646701  0.3666992803896535  1.0000
  C   C28       1.0  0.46014581996343645  0.6397740472004614  0.13330062012020963  1.0000
  C   C29       1.0  0.9601465999944806  0.13977414120628137  0.3666992902595184  1.0000
  C   C30       1.0  0.0398540169403532  0.6397740235589141  0.13330061025036602  1.0000
  C   C31       1.0  0.46014590032812197  0.8602259704924364  0.6333004598264083  1.0000
  C   C32       1.0  0.5398536777842222  0.3602260408567162  0.8666997071781923  1.0000
  N   N1        1.0  0.9827822849608622  0.8948036264719618  0.7023554469554157  1.0000
  N   N2        1.0  0.017217302989969596  0.3948036226381575  0.7976447246653822  1.0000
  N   N3        1.0  0.48278250422414  0.10519572865992899  0.2976448912759367  1.0000
  N   N4        1.0  0.5172169033200618  0.6051956801172838  0.20235500461762265  1.0000
  N   N5        1.0  0.0172172127867896  0.10519646158520861  0.297644880342979  1.0000
  N   N6        1.0  0.9827821947576254  0.6051964654189491  0.2023550155506797  1.0000
  N   N7        1.0  0.5172169935233484  0.8948036002837013  0.7023548489400755  1.0000
  N   N8        1.0  0.4827825944274338  0.39480364882634694  0.7976447355983896  1.0000
  N   N9        1.0  0.24999874157501267  0.574475130453635  0.4594618339910355  1.0000
  N   N10       1.0  0.7500006572281491  0.0744751517165838  0.04053805780124971  1.0000
  N   N11       1.0  0.7499995566206721  0.42552495760340764  0.540537906224998  1.0000
  N   N12       1.0  0.25000243917502735  0.9255241772271818  0.9594610953325143  1.0000
  N   N13       1.0  0.9996203713996081  0.72607775243641  0.7043726509905143  1.0000
  N   N14       1.0  0.0003791685429704  0.2260777462583476  0.7956269110226162  1.0000
  N   N15       1.0  0.4996206382757507  0.2739223637031856  0.29562710094938194  1.0000
  N   N16       1.0  0.5003788172768677  0.7739223137162697  0.20437281746960426  1.0000
  N   N17       1.0  0.00037912634798689996  0.27392233562069634  0.2956270892255475  1.0000
  N   N18       1.0  0.9996215287565489  0.7739223417988228  0.20437282919347416  1.0000
  N   N19       1.0  0.5003788594718444  0.726077724353921  0.70437263926668  1.0000
  N   N20       1.0  0.49962068047073416  0.22607777434083687  0.7956269227464503  1.0000
  N   N21       1.0  0.1678917903394819  0.497173070074119  0.3503801678513555  1.0000
  N   N22       1.0  0.8321089282875247  0.9971738043090069  0.1496197803722481  1.0000
  N   N23       1.0  0.667892648760926  0.5028270087458394  0.6496195685083921  1.0000
  N   N24       1.0  0.3321080272111558  0.0028270520987945004  0.8503793766178946  1.0000
  N   N25       1.0  0.8321089069599807  0.5028262588696465  0.6496201594470179  1.0000
  N   N26       1.0  0.16789176901215797  0.0028270428617105  0.8503805469262249  1.0000
  N   N27       1.0  0.3321080485385933  0.4971730793113309  0.35038017170769825  1.0000
  N   N28       1.0  0.6678926700884134  0.9971737950717955  0.1496197765159124  1.0000
  N   N29       1.0  0.0512498259823246  0.7588926484280023  0.6321932061766377  1.0000
  N   N30       1.0  0.9487509228490792  0.25889200592687445  0.8678069472996912  1.0000
  N   N31       1.0  0.5512493551467016  0.24110817638312906  0.36780711178719383  1.0000
  N   N32       1.0  0.4487512906211464  0.7411081044899536  0.13219338933338073  1.0000
  N   N33       1.0  0.9487508713172943  0.2411081987426513  0.3678065340395024  1.0000
  N   N34       1.0  0.0512497744504969  0.7411080821303669  0.13219337999873915  1.0000
  N   N35       1.0  0.44875014260095003  0.7588919116740415  0.6321932155112011  1.0000
  N   N36       1.0  0.5512494066784297  0.2588919835672884  0.8678069379650426  1.0000
  N   N37       1.0  0.25000000716539  0.6880636141225904  0.9684093884285757  1.0000
  N   N38       1.0  0.7499995219610511  0.1880643925033638  0.5315907555919566  1.0000
  N   N39       1.0  0.7499994905821552  0.3119357148211038  0.031590938869769006  1.0000
  N   N40       1.0  0.24999997578655098  0.8119356955537426  0.46840898462410513  1.0000
  N   N41       1.0  0.1678966551283594  0.6164085986026249  0.856668239689313  1.0000
  N   N42       1.0  0.8321016540577942  0.11640865202787859  0.6433318947650194  1.0000
  N   N43       1.0  0.6678973803874368  0.3835914802179374  0.1433320837529948  1.0000
  N   N44       1.0  0.33210330592167037  0.8835914452658359  0.35666784930712947  1.0000
  N   N45       1.0  0.8321028426192995  0.38359148945454546  0.14333208760908187  1.0000
  N   N46       1.0  0.16789784368980065  0.8835914360292279  0.3566678454510425  1.0000
  N   N47       1.0  0.3321021173602219  0.6164086078392329  0.8566682435454  1.0000
  N   N48       1.0  0.6678973913778493  0.1164086427913418  0.6433318909089609  1.0000
  Cl  Cl1       1.0  0.24999995199240027  0.5161084352405326  0.6550582903309703  1.0000
  Cl  Cl2       1.0  0.7499995282068994  0.016108524393750705  0.8449418307330705  1.0000
  Cl  Cl3       1.0  0.7499995457552019  0.483891652816574  0.34494144988509134  1.0000
  Cl  Cl4       1.0  0.24999996954075954  0.9838915636634197  0.15505849656533144  1.0000
  Cl  Cl5       1.0  0.7499996120429059  0.602610224816644  0.8489851059225162  1.0000
  Cl  Cl6       1.0  0.24999989276905407  0.1026102144685694  0.6510150266897201  1.0000
  Cl  Cl7       1.0  0.24999988570469606  0.39738986324046266  0.15101463429354572  1.0000
  Cl  Cl8       1.0  0.749999604978548  0.897389873588537  0.3489847135263417  1.0000
