data_image0
_chemical_formula_structural       Bi4P8H144C96Br12O24
_chemical_formula_sum              "Bi4 P8 H144 C96 Br12 O24"
_cell_length_a       13.014739928518456
_cell_length_b       15.137710570466599
_cell_length_c       18.370988637007184
_cell_angle_alpha    91.08850017554897
_cell_angle_beta     94.03283562340197
_cell_angle_gamma    93.56375651749883

_space_group_name_H-M_alt    "P 1"
_space_group_IT_number       1

loop_
  _space_group_symop_operation_xyz
  'x, y, z'

loop_
  _atom_site_type_symbol
  _atom_site_label
  _atom_site_symmetry_multiplicity
  _atom_site_fract_x
  _atom_site_fract_y
  _atom_site_fract_z
  _atom_site_occupancy
  Bi  Bi1       1.0  0.05758124211806858  0.9762945455385861  0.3949322803084527  1.0000
  Bi  Bi2       1.0  0.9424179901132491  0.023709806676599495  0.6050648197541335  1.0000
  Bi  Bi3       1.0  0.651101324038258  0.48560833289413097  0.9698910219707173  1.0000
  Bi  Bi4       1.0  0.34889613490163646  0.5143927065820009  0.030108661269238703  1.0000
  P   P1        1.0  0.09420977307581782  0.16042630978356703  0.2552363771423458  1.0000
  P   P2        1.0  0.9057930768304205  0.839574718936184  0.7447635526863507  1.0000
  P   P3        1.0  0.22993007112872024  0.08704443003685469  0.692283838055218  1.0000
  P   P4        1.0  0.7700704304202619  0.9129559379283732  0.3077176058695273  1.0000
  P   P5        1.0  0.6891197523701964  0.3001402021742051  0.11270716071217632  1.0000
  P   P6        1.0  0.31087990645779945  0.6998595107710129  0.8872915115598377  1.0000
  P   P7        1.0  0.2510677229243329  0.6904999405761528  0.1541717099953956  1.0000
  P   P8        1.0  0.7489311830855315  0.30949976950180497  0.8458291051510045  1.0000
  H   H1        1.0  0.17587107370852104  0.28562988979459897  0.1516723890319653  1.0000
  H   H2        1.0  0.8241286999754963  0.7143711439706879  0.8483279444142158  1.0000
  H   H3        1.0  0.21122398384687818  0.2696002755701413  0.023142381824179402  1.0000
  H   H4        1.0  0.7887743470971531  0.7304020864923475  0.9768573642408925  1.0000
  H   H5        1.0  0.13863711496471612  0.9875379499317489  0.031224094654433505  1.0000
  H   H6        1.0  0.8613679478195524  0.012461748954180498  0.968776457782333  1.0000
  H   H7        1.0  0.10009782581735042  0.004373026692149998  0.1608127508137613  1.0000
  H   H8        1.0  0.899908832506043  0.9956273300810424  0.8391884304013432  1.0000
  H   H9        1.0  0.30878100418275534  0.22558024474840718  0.9369832391752694  1.0000
  H   H10       1.0  0.6912187565113259  0.7744207923197877  0.0630154606948992  1.0000
  H   H11       1.0  0.32769670888994545  0.21242201243589418  0.804834480700471  1.0000
  H   H12       1.0  0.6723022220730858  0.7875783663093827  0.19516308109297853  1.0000
  H   H13       1.0  0.0896801908434455  0.9999005325083484  0.7863408410039555  1.0000
  H   H14       1.0  0.9103194387014003  9.851287052239959e-05  0.21366054009566682  1.0000
  H   H15       1.0  0.07047674954606721  0.012969529932554699  0.9191504871229982  1.0000
  H   H16       1.0  0.9295261176800836  0.9870314943833163  0.0808516208070458  1.0000
  H   H17       1.0  0.25296338123158085  0.18130994141365156  0.3767527220725597  1.0000
  H   H18       1.0  0.7470379793316015  0.8186917524408412  0.6232471511012889  1.0000
  H   H19       1.0  0.23692443838158544  0.34381495508831955  0.4009244841018359  1.0000
  H   H20       1.0  0.7630769644546832  0.6561874030296124  0.5990743138204097  1.0000
  H   H21       1.0  0.30836879142396617  0.36891591910531213  0.32351990989111107  1.0000
  H   H22       1.0  0.691632458613171  0.6310844528281407  0.6764788466339057  1.0000
  H   H23       1.0  0.3690034110337594  0.319180689987995  0.401174364811837  1.0000
  H   H24       1.0  0.6309979408694631  0.6808210060684416  0.5988244193113348  1.0000
  H   H25       1.0  0.31964235367920685  0.1309331692660223  0.261518576543601  1.0000
  H   H26       1.0  0.6803596794859176  0.8690671978278957  0.7384818487843887  1.0000
  H   H27       1.0  0.4180663051599397  0.19576284973584987  0.3125247024689202  1.0000
  H   H28       1.0  0.581934289595168  0.8042388445543054  0.6874756800033027  1.0000
  H   H29       1.0  0.34995787542655427  0.24280008401817096  0.23680357779784342  1.0000
  H   H30       1.0  0.6500433832705356  0.7572002857133454  0.7631962677778505  1.0000
  H   H31       1.0  0.9886180742278373  0.2233033696272528  0.3586018120188897  1.0000
  H   H32       1.0  0.011379036840700987  0.7766930332165033  0.641398863678198  1.0000
  H   H33       1.0  0.8397541035744712  0.12069680858713377  0.3193842085671221  1.0000
  H   H34       1.0  0.1602401176841184  0.879302251951998  0.6806147478424123  1.0000
  H   H35       1.0  0.7854025731874474  0.20408576654755714  0.263105804642386  1.0000
  H   H36       1.0  0.21459637076552  0.7959146088948045  0.736893390727083  1.0000
  H   H37       1.0  0.7962748413255911  0.21734318684501366  0.3601399403886276  1.0000
  H   H38       1.0  0.2037209668121563  0.7826565337833247  0.6398585557485746  1.0000
  H   H39       1.0  0.017089468387872796  0.3681232483342782  0.2982237328814392  1.0000
  H   H40       1.0  0.9829129231209565  0.6318718218320638  0.7017760727555569  1.0000
  H   H41       1.0  0.9072789807305882  0.3673546470390007  0.3509655335311521  1.0000
  H   H42       1.0  0.09272294190848382  0.6326443981338841  0.6490337751480126  1.0000
  H   H43       1.0  0.8896938372267658  0.3549929129186893  0.2541545771819855  1.0000
  H   H44       1.0  0.11030875801424142  0.6450048054936134  0.7458452836513203  1.0000
  H   H45       1.0  0.15244285721155396  0.19237298497488103  0.581702310727927  1.0000
  H   H46       1.0  0.8475581002172491  0.8076234112867199  0.4182979965786374  1.0000
  H   H47       1.0  0.1104639741996678  0.2668677407862674  0.6970156769979496  1.0000
  H   H48       1.0  0.8895326463492171  0.7331326425688754  0.3029817791146172  1.0000
  H   H49       1.0  0.1130103316203872  0.3428418884712912  0.6252009636602054  1.0000
  H   H50       1.0  0.8869852977383491  0.6571558525784057  0.3747942239277365  1.0000
  H   H51       1.0  0.21932737367581723  0.3440557280816633  0.6922889844123503  1.0000
  H   H52       1.0  0.7806678507361442  0.6559466467331487  0.3077073535928464  1.0000
  H   H53       1.0  0.3156271819918502  0.22816971437268307  0.5264352186499722  1.0000
  H   H54       1.0  0.6843713631567212  0.7718253623758144  0.47356495537754745  1.0000
  H   H55       1.0  0.3513671474329243  0.3136624008001405  0.5935971123222856  1.0000
  H   H56       1.0  0.6486337504028798  0.6863333356019153  0.4064020921345275  1.0000
  H   H57       1.0  0.24600213346128905  0.3256800742612639  0.5280605238789136  1.0000
  H   H58       1.0  0.7539980408395268  0.674316326839879  0.4719381146246775  1.0000
  H   H59       1.0  0.3131080697407996  0.9757497868441546  0.5936288023728267  1.0000
  H   H60       1.0  0.6868900411778401  0.0242492561031113  0.4063752308995632  1.0000
  H   H61       1.0  0.3656366070530269  0.8639242117327299  0.6867925673517803  1.0000
  H   H62       1.0  0.634366319766123  0.13607747244268606  0.3132106434280146  1.0000
  H   H63       1.0  0.48454804803444074  0.927114159700139  0.7068959835490816  1.0000
  H   H64       1.0  0.5154526106436566  0.07288819334858938  0.2931060462982273  1.0000
  H   H65       1.0  0.4569672557695626  0.8754647245618017  0.6190048512446326  1.0000
  H   H66       1.0  0.5430341307734994  0.12453696268686798  0.3809982890812408  1.0000
  H   H67       1.0  0.4188028307726982  0.11805628475713087  0.5881910482317068  1.0000
  H   H68       1.0  0.581191445748914  0.8819434367425174  0.41180846650224373  1.0000
  H   H69       1.0  0.4936678831790645  0.028833040841128397  0.5641780587582519  1.0000
  H   H70       1.0  0.5063280311547517  0.9711680028092217  0.43582100950244046  1.0000
  H   H71       1.0  0.5139582523374318  0.0789755326305297  0.652618967818441  1.0000
  H   H72       1.0  0.4860401208796859  0.9210274936953836  0.3473797029950347  1.0000
  H   H73       1.0  0.7389919337554717  0.1155841164088827  0.1106965346218374  1.0000
  H   H74       1.0  0.26100858841670066  0.884416921324636  0.8893011114246222  1.0000
  H   H75       1.0  0.6303565325757318  0.975923008792776  0.11234557876615271  1.0000
  H   H76       1.0  0.3696455515224316  0.0240780203626372  0.8876548603609109  1.0000
  H   H77       1.0  0.35822937846648983  0.12435298042219499  0.1143973206715216  1.0000
  H   H78       1.0  0.641771782694491  0.875646064085373  0.8856030418313453  1.0000
  H   H79       1.0  0.4661340811729248  0.2644118394836994  0.1124244337761056  1.0000
  H   H80       1.0  0.5338663348031789  0.7355878752278002  0.8875726401468572  1.0000
  H   H81       1.0  0.5045409881379755  0.88599630806263  0.039227009016265406  1.0000
  H   H82       1.0  0.4954632329520125  0.11400206053014728  0.9607772922727449  1.0000
  H   H83       1.0  0.40608047117661544  0.7430557141331987  0.0543009441194684  1.0000
  H   H84       1.0  0.5939229970952412  0.2569426515923183  0.9457055000439283  1.0000
  H   H85       1.0  0.23064014129860064  0.8660319006517766  0.21562436185717365  1.0000
  H   H86       1.0  0.7693583001714757  0.1339717833317451  0.7843765008567303  1.0000
  H   H87       1.0  0.32886211533515564  0.008452709676902299  0.1995790579118051  1.0000
  H   H88       1.0  0.6711385856160278  0.9915503076352508  0.8004218966839077  1.0000
  H   H89       1.0  0.5812683910097862  0.43031257974183745  0.17153603289923322  1.0000
  H   H90       1.0  0.41872958340293576  0.5696851478902191  0.8284636165723  1.0000
  H   H91       1.0  0.5398029829305458  0.34320441553753506  0.27961612456014256  1.0000
  H   H92       1.0  0.46019664661429976  0.656794629841343  0.7203852565394797  1.0000
  H   H93       1.0  0.5565617766652126  0.45745366536059606  0.3041627045113273  1.0000
  H   H94       1.0  0.4434393292327456  0.5425447181864483  0.6958370996671306  1.0000
  H   H95       1.0  0.6569966841965709  0.3858830769848963  0.328112575282546  1.0000
  H   H96       1.0  0.34300366022329604  0.6141153058968314  0.6718882827196282  1.0000
  H   H97       1.0  0.7553795843364456  0.5081587051704374  0.16567319148076362  1.0000
  H   H98       1.0  0.24462054336130737  0.4918370327682381  0.8343259777490887  1.0000
  H   H99       1.0  0.7833421974417833  0.4898553218583999  0.26086031504189583  1.0000
  H   H100      1.0  0.21665802779207877  0.5101417413042312  0.7391383372607694  1.0000
  H   H101      1.0  0.6831123738225459  0.5592125798005013  0.23092798058267056  1.0000
  H   H102      1.0  0.3168901618254624  0.4407844787522491  0.7690707774008844  1.0000
  H   H103      1.0  0.8388421852570861  0.3376049196145842  0.014801988951411705  1.0000
  H   H104      1.0  0.16115736737484104  0.662393470308622  0.9851961111971123  1.0000
  H   H105      1.0  0.8464465556258818  0.1773722980612931  0.9883515002600872  1.0000
  H   H106      1.0  0.1535529547329588  0.8226254275984813  0.011647675140025595  1.0000
  H   H107      1.0  0.9441759453665812  0.16925144231996106  0.06136908501113679  1.0000
  H   H108      1.0  0.055822850117230885  0.8307469458369566  0.9386306134864314  1.0000
  H   H109      1.0  0.9711544287893833  0.23011600580118596  0.9822947490525635  1.0000
  H   H110      1.0  0.028845081569450294  0.7698817198585886  0.017704426347549405  1.0000
  H   H111      1.0  0.930891273273389  0.4098680401666286  0.12313182521426573  1.0000
  H   H112      1.0  0.06910905382656547  0.5901303471189862  0.8768668546865541  1.0000
  H   H113      1.0  0.02404220153256629  0.37118846340057127  0.0666056280552851  1.0000
  H   H114      1.0  0.9759573001663145  0.6288092644611466  0.9333924582941577  1.0000
  H   H115      1.0  0.9923314069141828  0.3105498985699811  0.1454458769013556  1.0000
  H   H116      1.0  0.007668090454714585  0.6894478303927086  0.8545516649227453  1.0000
  H   H117      1.0  0.41253083651820793  0.6001530588480362  0.21263126863929221  1.0000
  H   H118      1.0  0.5874663590965029  0.39984467252258327  0.787367256554596  1.0000
  H   H119      1.0  0.3138734592467216  0.5170915175069482  0.3007128012567081  1.0000
  H   H120      1.0  0.6861284254492406  0.48290686230153307  0.699288127199388  1.0000
  H   H121      1.0  0.331251843494023  0.6076834976518269  0.3652630197786237  1.0000
  H   H122      1.0  0.6687499859389165  0.39231422119613063  0.6347373503530562  1.0000
  H   H123      1.0  0.4389182943374763  0.5479206503550954  0.34227655366570536  1.0000
  H   H124      1.0  0.5610837258377047  0.4520797200417306  0.6577222380862722  1.0000
  H   H125      1.0  0.46856792916064205  0.7607626306317455  0.2362144680908855  1.0000
  H   H126      1.0  0.5314307980702112  0.2392350998675639  0.7637830385062544  1.0000
  H   H127      1.0  0.5347798900952795  0.693423739611262  0.2993919643499581  1.0000
  H   H128      1.0  0.4652188414655499  0.30657398978708267  0.7006060867725239  1.0000
  H   H129      1.0  0.42970473410525056  0.7530888434217716  0.3270504446820226  1.0000
  H   H130      1.0  0.5702949203927618  0.24691087062441847  0.6729476830646491  1.0000
  H   H131      1.0  0.04818496436294589  0.6037704199387051  0.0999647760562397  1.0000
  H   H132      1.0  0.9518156260621853  0.39623127545241493  0.9000350618906411  1.0000
  H   H133      1.0  0.12604696192196493  0.5369006043427685  0.21136460199956283  1.0000
  H   H134      1.0  0.87395131808902  0.46310109565822444  0.7886351302664354  1.0000
  H   H135      1.0  0.9894348843641083  0.529269805166855  0.2116351424032032  1.0000
  H   H136      1.0  0.010563395646883588  0.470731894834138  0.7883645898627949  1.0000
  H   H137      1.0  0.06313604063501542  0.6111551224904801  0.2679300140160734  1.0000
  H   H138      1.0  0.9368621884429233  0.38884591544902486  0.7320697044508436  1.0000
  H   H139      1.0  0.943447864077243  0.734631697481099  0.10704795054054733  1.0000
  H   H140      1.0  0.05654959053266851  0.26536934309600463  0.8929511881740737  1.0000
  H   H141      1.0  0.9579250421760579  0.7349553809879978  0.20392128510614072  1.0000
  H   H142      1.0  0.042070923090804506  0.2650463247238406  0.7960777969536326  1.0000
  H   H143      1.0  0.8822896263247133  0.6476074025808173  0.15439623004116504  1.0000
  H   H144      1.0  0.11770859409327272  0.3523936375606311  0.8456023993750749  1.0000
  C   C1        1.0  0.1307584767376327  0.1465399472593631  0.1639716334784822  1.0000
  C   C2        1.0  0.8692427862894407  0.8534604213711814  0.8360287566225466  1.0000
  C   C3        1.0  0.16570390444189093  0.2203079149187985  0.1253295583213401  1.0000
  C   C4        1.0  0.834296592777115  0.7796924541474012  0.874671341078063  1.0000
  C   C5        1.0  0.1874199641607533  0.2108238761406867  0.0526987436851414  1.0000
  C   C6        1.0  0.812578375443238  0.7891784837198583  0.9473020914306076  1.0000
  C   C7        1.0  0.17429524313387657  0.127608737500708  0.016737823333834004  1.0000
  C   C8        1.0  0.8257068452942706  0.8723922905537335  0.9832631603185716  1.0000
  C   C9        1.0  0.14402780633684392  0.053335308485451094  0.056988606013845804  1.0000
  C   C10       1.0  0.8559742224982971  0.9466650597094386  0.9430112747888089  1.0000
  C   C11       1.0  0.12241448667722925  0.062389621454954594  0.1298355075250441  1.0000
  C   C12       1.0  0.8775906270400854  0.937610739492463  0.8701650587108034  1.0000
  C   C13       1.0  0.18911729968678515  0.11913759612639302  0.9380654747841888  1.0000
  C   C14       1.0  0.810882482657192  0.8808634354369502  0.061935947712669304  1.0000
  C   C15       1.0  0.26039633351737024  0.1758709161799814  0.9045121432010961  1.0000
  C   C16       1.0  0.739603389233608  0.8241294555238171  0.0954881764460112  1.0000
  C   C17       1.0  0.271260012600422  0.16859354232492763  0.8298360061878968  1.0000
  C   C18       1.0  0.7287398120166415  0.8314081535018473  0.1701643410573581  1.0000
  C   C19       1.0  0.21048767081811096  0.10466843995843787  0.7869874618672412  1.0000
  C   C20       1.0  0.7895128264008947  0.8953319291077618  0.21301343753216173  1.0000
  C   C21       1.0  0.13818813050320952  0.0486180799921812  0.8197362031331253  1.0000
  C   C22       1.0  0.8618123667157892  0.9513822890740115  0.18026469626627772  1.0000
  C   C23       1.0  0.12813150085039385  0.0558031294122401  0.8944465955216357  1.0000
  C   C24       1.0  0.8718689920386283  0.9441972407549315  0.1055537593524321  1.0000
  C   C25       1.0  0.26562606500585423  0.2300408741357529  0.3340571750100025  1.0000
  C   C26       1.0  0.7343752446242819  0.769960157657252  0.6659426843647652  1.0000
  C   C27       1.0  0.29658624817727036  0.32119369816233956  0.36692969940763487  1.0000
  C   C28       1.0  0.7034151037259521  0.67880799789409  0.6330690847155368  1.0000
  C   C29       1.0  0.34232986745934124  0.19807512699598112  0.2827678422557582  1.0000
  C   C30       1.0  0.657670625429681  0.8019252431711905  0.7172325126183097  1.0000
  C   C31       1.0  0.9393248301054272  0.23903882438088428  0.3100311545443191  1.0000
  C   C32       1.0  0.06067309337424831  0.7609582411896839  0.6899684811281334  1.0000
  C   C33       1.0  0.8337176043366271  0.1921010538226255  0.3128746156442546  1.0000
  C   C34       1.0  0.16627964221112992  0.8078973396094895  0.6871239233487145  1.0000
  C   C35       1.0  0.9386298624035307  0.3385753210474931  0.3024466681569323  1.0000
  C   C36       1.0  0.06137186083334711  0.6614210747784597  0.6975531298512508  1.0000
  C   C37       1.0  0.21151449598369962  0.23533958137846156  0.6131218090452393  1.0000
  C   C38       1.0  0.7884843504331587  0.7646594688399446  0.38687790325140986  1.0000
  C   C39       1.0  0.16113565697160231  0.301204332471073  0.6600446170092696  1.0000
  C   C40       1.0  0.8388609592472992  0.6987960519850418  0.3399522945779624  1.0000
  C   C41       1.0  0.2859535802564396  0.2779917237625326  0.5622771443999568  1.0000
  C   C42       1.0  0.7140465983743597  0.7220046762376384  0.4377220386289694  1.0000
  C   C43       1.0  0.37565065795472924  0.9922200022446858  0.6361082020614006  1.0000
  C   C44       1.0  0.6243490821161689  0.0077803650552255  0.3638942956870538  1.0000
  C   C45       1.0  0.42316816484301983  0.9094180581729177  0.6640631767382317  1.0000
  C   C46       1.0  0.5768340427711325  0.09058428960062058  0.3359400126136762  1.0000
  C   C47       1.0  0.4548769862092216  0.0590900270017869  0.6087037998268273  1.0000
  C   C48       1.0  0.5451204684006968  0.9409110135753167  0.3912953388877938  1.0000
  C   C49       1.0  0.6102220725006476  0.1990838770061742  0.11235859657799098  1.0000
  C   C50       1.0  0.38977762427045093  0.8009165013034478  0.8876384559170847  1.0000
  C   C51       1.0  0.6556214097824979  0.11743826631031598  0.11122679749059472  1.0000
  C   C52       1.0  0.34437984025463925  0.882562105623137  0.888771959034422  1.0000
  C   C53       1.0  0.5943715038337205  0.039012334124890885  0.11153697336457921  1.0000
  C   C54       1.0  0.40563046540842157  0.9609873742104469  0.8884618045883244  1.0000
  C   C55       1.0  0.4869892135833568  0.040508342167058196  0.11400422927395232  1.0000
  C   C56       1.0  0.5130128369016802  0.9594920205229795  0.885998374155385  1.0000
  C   C57       1.0  0.4418196498505014  0.12249436905208459  0.11423195333097172  1.0000
  C   C58       1.0  0.5581815449236063  0.8775053419208517  0.8857662448696291  1.0000
  C   C59       1.0  0.5025962142541476  0.20133818715701318  0.1130276846881628  1.0000
  C   C60       1.0  0.4974042613149551  0.7986621874140383  0.8869704920845508  1.0000
  C   C61       1.0  0.424188820232935  0.9568307396797023  0.11888330808847063  1.0000
  C   C62       1.0  0.5758140513231994  0.043170283535196995  0.8811193443669084  1.0000
  C   C63       1.0  0.4449891799141383  0.8814154772985603  0.07813870063195341  1.0000
  C   C64       1.0  0.5550143176408684  0.11858355599330389  0.921865034703835  1.0000
  C   C65       1.0  0.38914404168138367  0.8011826168059671  0.0861029319478419  1.0000
  C   C66       1.0  0.610859524126582  0.19881707414349847  0.9139029952883676  1.0000
  C   C67       1.0  0.3120496673355434  0.7954288940648623  0.1357945688987527  1.0000
  C   C68       1.0  0.6879509024663976  0.20457213155796694  0.8642090669264136  1.0000
  C   C69       1.0  0.28964466327307303  0.8706472164377389  0.1762162670120162  1.0000
  C   C70       1.0  0.710355225266973  0.12935513814761626  0.823785727608332  1.0000
  C   C71       1.0  0.3449515831615885  0.9505708720435065  0.16709470166986762  1.0000
  C   C72       1.0  0.6550521094656362  0.049430811696254295  0.8329079998115532  1.0000
  C   C73       1.0  0.6428295282035068  0.4202221438194654  0.21413862382456733  1.0000
  C   C74       1.0  0.35716993988224743  0.5797749175768769  0.7858616268271491  1.0000
  C   C75       1.0  0.5964743412080084  0.40009414337701804  0.2859212233022603  1.0000
  C   C76       1.0  0.4035252796768847  0.5999049042037968  0.714079068746692  1.0000
  C   C77       1.0  0.721444480510961  0.49874055384950117  0.2182595458228818  1.0000
  C   C78       1.0  0.27855646825788233  0.5012558446140429  0.7817396724330052  1.0000
  C   C79       1.0  0.8773241034747347  0.2962459002904652  0.05561435523378582  1.0000
  C   C80       1.0  0.1226747895451865  0.7037538130904082  0.944384826336602  1.0000
  C   C81       1.0  0.9116113860752013  0.2129149817551053  0.019837603388772617  1.0000
  C   C82       1.0  0.08838817521668572  0.7870834059661646  0.9801615858104212  1.0000
  C   C83       1.0  0.9614687545873796  0.3500602497154616  0.10062870224709292  1.0000
  C   C84       1.0  0.03853156818259147  0.6499381386711175  0.8993694331283919  1.0000
  C   C85       1.0  0.38513903772796004  0.636478806924316  0.2593004766582894  1.0000
  C   C86       1.0  0.6148605235639267  0.3635195807969539  0.7406987125409046  1.0000
  C   C87       1.0  0.3659410689841566  0.5734056143737262  0.3207193882526767  1.0000
  C   C88       1.0  0.634059317708797  0.4265934327714334  0.6792803944978942  1.0000
  C   C89       1.0  0.45851761481002046  0.7158016233426991  0.2816620337435509  1.0000
  C   C90       1.0  0.5414819887549528  0.2841974286420026  0.718336080204047  1.0000
  C   C91       1.0  0.046650829572236305  0.6396582858811684  0.1525534839689016  1.0000
  C   C92       1.0  0.9533489907148439  0.36034341104657125  0.8474463187510182  1.0000
  C   C93       1.0  0.0580094973035443  0.5757164823245446  0.2149282444664138  1.0000
  C   C94       1.0  0.9419887827074478  0.42428521767645566  0.7850714877995773  1.0000
  C   C95       1.0  0.9517740628896264  0.6924000388416118  0.1546245533460606  1.0000
  C   C96       1.0  0.0482249785994497  0.3076016618246982  0.845374125096221  1.0000
  Br  Br1       1.0  0.9859729435979221  0.13379463930309043  0.485696528717277  1.0000
  Br  Br2       1.0  0.01404004925218058  0.8662083611298571  0.514301177832472  1.0000
  Br  Br3       1.0  0.2586250857428141  0.0145599534828236  0.4434488198982649  1.0000
  Br  Br4       1.0  0.7413698929048992  0.9854476896343272  0.5565622954567006  1.0000
  Br  Br5       1.0  0.0934770769977575  0.8326166247294607  0.3127494891505052  1.0000
  Br  Br6       1.0  0.906505913054872  0.16738777737037944  0.6872381587404562  1.0000
  Br  Br7       1.0  0.5638411541669444  0.6054597633130783  0.0721061116584991  1.0000
  Br  Br8       1.0  0.4361562187359028  0.39452934210601137  0.9279009817797501  1.0000
  Br  Br9       1.0  0.6435807776316838  0.5909632343056186  0.8484506261020145  1.0000
  Br  Br10      1.0  0.3564184719195539  0.4090411135056867  0.1515486520619191  1.0000
  Br  Br11      1.0  0.8469330154471708  0.5405597588684756  0.017313263765366606  1.0000
  Br  Br12      1.0  0.15305527182098902  0.459461143046667  0.9826966862508543  1.0000
  O   O1        1.0  0.09401457458113073  0.07424922255190579  0.2944507733678848  1.0000
  O   O2        1.0  0.9059936066984451  0.9257511355519268  0.7055483001997944  1.0000
  O   O3        1.0  0.16431533108571736  0.2392614436238034  0.294387881384516  1.0000
  O   O4        1.0  0.83568588100831  0.7607382629452532  0.705612494917439  1.0000
  O   O5        1.0  0.9860966686307224  0.202377373035894  0.2449668783111036  1.0000
  O   O6        1.0  0.013902655315852986  0.7976176999740404  0.7550344199940541  1.0000
  O   O7        1.0  0.13741178924097136  0.044005571152382614  0.6494042598696907  1.0000
  O   O8        1.0  0.8625901929911071  0.9559941338800471  0.3505961516592251  1.0000
  O   O9        1.0  0.32826449399404833  0.030570164905661595  0.6995150554642892  1.0000
  O   O10       1.0  0.6717377092901274  0.9694321839688411  0.30048758936228387  1.0000
  O   O11       1.0  0.27312401559307636  0.1780239584018304  0.6606574662741309  1.0000
  O   O12       1.0  0.7268758306738834  0.8219777319200856  0.3393456035978133  1.0000
  O   O13       1.0  0.6954008253368615  0.3408245399143723  0.19339220342185112  1.0000
  O   O14       1.0  0.3045978173478191  0.6591718620580806  0.8066074536784811  1.0000
  O   O15       1.0  0.7993139664368272  0.2658710437229955  0.1057096518769001  1.0000
  O   O16       1.0  0.20068573899423112  0.7341293323846826  0.8942884896688524  1.0000
  O   O17       1.0  0.6514446503014073  0.3633683870081867  0.05637696572155451  1.0000
  O   O18       1.0  0.348556710261775  0.6366333068463064  0.943622907452287  1.0000
  O   O19       1.0  0.27543679504280055  0.6203312386030501  0.1001129651385639  1.0000
  O   O20       1.0  0.7245646077934683  0.3796711195148745  0.8998858327836815  1.0000
  O   O21       1.0  0.28268107189522607  0.6671649402822056  0.23615947009651708  1.0000
  O   O22       1.0  0.7173154304943596  0.33283344808070586  0.7638423008215157  1.0000
  O   O23       1.0  0.1337832395542762  0.7080657533152175  0.15487617408945203  1.0000
  O   O24       1.0  0.8662159211208122  0.2919372670701891  0.845124710052339  1.0000
