data_image0
_chemical_formula_structural       Ba2Zn4H28C48N8O24
_chemical_formula_sum              "Ba2 Zn4 H28 C48 N8 O24"
_cell_length_a       7.4176845106164695
_cell_length_b       11.362979548051674
_cell_length_c       15.3526
_cell_angle_alpha    95.45106626198994
_cell_angle_beta     97.55872283534305
_cell_angle_gamma    105.09322833022908

_space_group_name_H-M_alt    "P 1"
_space_group_IT_number       1

loop_
  _space_group_symop_operation_xyz
  'x, y, z'

loop_
  _atom_site_type_symbol
  _atom_site_label
  _atom_site_symmetry_multiplicity
  _atom_site_fract_x
  _atom_site_fract_y
  _atom_site_fract_z
  _atom_site_occupancy
  Ba  Ba1       1.0  0.7435903750145983  0.47235252694235913  0.44042852898800783  1.0000
  Ba  Ba2       1.0  0.25640855123020856  0.5276471116208512  0.5595715076278296  1.0000
  Zn  Zn1       1.0  0.9902034388161666  0.9652652782735558  0.1195582056661237  1.0000
  Zn  Zn2       1.0  0.0097954874286401  0.0347343602896544  0.8804424823051915  1.0000
  Zn  Zn3       1.0  0.027155566034949195  0.3035986207774286  0.7376647027128342  1.0000
  Zn  Zn4       1.0  0.9728460801033804  0.6964010177857888  0.2623348554111685  1.0000
  H   H1        1.0  0.6521635039781086  0.2029031969820494  0.2623986667949438  1.0000
  H   H2        1.0  0.347837173537485  0.7970973615017202  0.737600243091606  1.0000
  H   H3        1.0  0.4254490211967479  0.2570488008882066  0.8652283105651576  1.0000
  H   H4        1.0  0.5745502963720809  0.7429517575955629  0.13476986153410306  1.0000
  H   H5        1.0  0.5512431692568638  0.6537240634302179  0.9345290560353448  1.0000
  H   H6        1.0  0.44875653963598683  0.34627741497411085  0.06547115968015758  1.0000
  H   H7        1.0  0.6009720691377893  0.4750938901942022  0.6809976101078945  1.0000
  H   H8        1.0  0.3990272484310394  0.5249066682895602  0.31900381876872064  1.0000
  H   H9        1.0  0.0706751351946195  0.7564718299822603  0.8289267708787378  1.0000
  H   H10       1.0  0.9293241823742093  0.2435287285015093  0.17107465799787747  1.0000
  H   H11       1.0  0.30618892510342016  0.12366032051318852  0.28467839364954267  1.0000
  H   H12       1.0  0.6938121437361957  0.8763411578911333  0.7153225598532413  1.0000
  H   H13       1.0  0.7076104036979273  0.1075074355000467  0.11558694561949777  1.0000
  H   H14       1.0  0.2923877398988281  0.8924903632220591  0.8844122605412108  1.0000
  H   H15       1.0  0.35644794041674993  0.9533504672541326  0.03535284654415699  1.0000
  H   H16       1.0  0.6435492345572698  0.04664825138853251  0.9646470140900405  1.0000
  H   H17       1.0  0.6809988865394274  0.9865531598208579  0.5954825377797874  1.0000
  H   H18       1.0  0.31900139965214436  0.013446478742359602  0.4045175852678682  1.0000
  H   H19       1.0  0.6821837483155946  0.7555040735591305  0.35781231303048605  1.0000
  H   H20       1.0  0.31781342665842516  0.2444946450835346  0.6421875476037114  1.0000
  H   H21       1.0  0.9199392392357807  0.14914211986759082  0.38020853270636207  1.0000
  H   H22       1.0  0.08005754441420983  0.850855678854515  0.6197899356670646  1.0000
  H   H23       1.0  0.5836012968229837  0.20590397783021075  0.7341793633822249  1.0000
  H   H24       1.0  0.416400740639375  0.7940965806535587  0.265819632936136  1.0000
  H   H25       1.0  0.670230201013851  0.3919671091450497  0.996377941106573  1.0000
  H   H26       1.0  0.3297718364485078  0.6080334493387198  0.003622357922729692  1.0000
  H   H27       1.0  0.0159853596425421  0.4216373067832251  0.936073157758635  1.0000
  H   H28       1.0  0.9840168637945083  0.5783604919388808  0.06392565634205741  1.0000
  C   C1        1.0  0.8194177997253717  0.7168508517081095  0.8902778923373303  1.0000
  C   C2        1.0  0.1805787979499343  0.2831497067756601  0.10972336367565558  1.0000
  C   C3        1.0  0.6337880211025322  0.6433823165586574  0.8823189423310964  1.0000
  C   C4        1.0  0.3662085765727667  0.356618241925112  0.11768166232641158  1.0000
  C   C5        1.0  0.5521255486743257  0.5580836030807745  0.8062422188204081  1.0000
  C   C6        1.0  0.4478731915957893  0.4419187952441064  0.1937586513685758  1.0000
  C   C7        1.0  0.6599069313110988  0.5438671508344584  0.7394412073184498  1.0000
  C   C8        1.0  0.3400941375285171  0.4561343275698633  0.2605597461843344  1.0000
  C   C9        1.0  0.8484477545784654  0.6148758184216804  0.7487214421603524  1.0000
  C   C10       1.0  0.15155117166634108  0.38512382014152996  0.2512798971664338  1.0000
  C   C11       1.0  0.9257345656728617  0.7010999719772073  0.8235800949302643  1.0000
  C   C12       1.0  0.0742647518959672  0.2989005865065621  0.176421333946351  1.0000
  C   C13       1.0  0.9067563497246593  0.8157901471653092  0.9655581686391271  1.0000
  C   C14       1.0  0.0932425765201401  0.1842094913979011  0.03444317068765199  1.0000
  C   C15       1.0  0.3526182714578354  0.48086363191084314  0.801168106532991  1.0000
  C   C16       1.0  0.6473800774882505  0.5191378464934857  0.19883202275069317  1.0000
  C   C17       1.0  0.971455329849597  0.600864508458983  0.6800646034581419  1.0000
  C   C18       1.0  0.02854534766599673  0.3991360500247866  0.31993626049481344  1.0000
  C   C19       1.0  0.36375521015575174  0.09516210166120233  0.2275511156341352  1.0000
  C   C20       1.0  0.6362458586838641  0.9048393767431193  0.7724491865131852  1.0000
  C   C21       1.0  0.5719144437206083  0.0870106856294584  0.13796174151756446  1.0000
  C   C22       1.0  0.4280840912001692  0.9129880330131996  0.8620375541929802  1.0000
  C   C23       1.0  0.3990938206521264  0.0108339043681127  0.0987829995807274  1.0000
  C   C24       1.0  0.6009047142686512  0.9891648142745454  0.9012175988407591  1.0000
  C   C25       1.0  0.8076518136436022  0.08078650315898982  0.49378092247939515  1.0000
  C   C26       1.0  0.19234944117071248  0.9192122154836682  0.5062185460947717  1.0000
  C   C27       1.0  0.7146479335238567  0.9763769986490729  0.5288031612099218  1.0000
  C   C28       1.0  0.2853509927209501  0.0236226399141373  0.4711968754059228  1.0000
  C   C29       1.0  0.6681490475626148  0.8593824224724216  0.4797907084113717  1.0000
  C   C30       1.0  0.331847158788662  0.14061721609079572  0.5202091553408437  1.0000
  C   C31       1.0  0.7143627543528623  0.8471125221190263  0.394849264011178  1.0000
  C   C32       1.0  0.2856357805679153  0.1528861965236317  0.6051506830548378  1.0000
  C   C33       1.0  0.803001628215682  0.950966033177359  0.35840535960061  1.0000
  C   C34       1.0  0.1969972980291246  0.0490336053858584  0.6415946770152345  1.0000
  C   C35       1.0  0.8487455377105206  0.068136675616671  0.4077812942687942  1.0000
  C   C36       1.0  0.15125474848105114  0.9318629629465464  0.5922181774233977  1.0000
  C   C37       1.0  0.8798761947330148  0.20403285942273905  0.5509203209826268  1.0000
  C   C38       1.0  0.12012409145854969  0.7959667791404712  0.449079150709565  1.0000
  C   C39       1.0  0.5751724828492186  0.7463453445204139  0.5180971312686111  1.0000
  C   C40       1.0  0.4248250834488232  0.2536542940428035  0.4819034702708861  1.0000
  C   C41       1.0  0.8557071426860716  0.9361148357485689  0.2692299725905656  1.0000
  C   C42       1.0  0.1442931435055002  0.0638848028146484  0.7307701504570899  1.0000
  C   C43       1.0  0.6549553582592935  0.2596871330379713  0.7971698831070384  1.0000
  C   C44       1.0  0.34504628787903596  0.740312505525246  0.20282967501696447  1.0000
  C   C45       1.0  0.7038239812551693  0.3559319811915956  0.9343859172973621  1.0000
  C   C46       1.0  0.2961803847766902  0.6440676573716146  0.06561446504574057  1.0000
  C   C47       1.0  0.8738606489903586  0.3719450382804794  0.9043575462326527  1.0000
  C   C48       1.0  0.12614157444669158  0.6280527604416264  0.09564061651256847  1.0000
  N   N1        1.0  0.269639850894059  0.0167563528967634  0.1551506245683427  1.0000
  N   N2        1.0  0.7303604352975127  0.9832432856664468  0.8448494984793129  1.0000
  N   N3        1.0  0.5468919364651939  0.13812791107082492  0.2189475148590816  1.0000
  N   N4        1.0  0.4531087410503929  0.8618726474129377  0.7810520463829391  1.0000
  N   N5        1.0  0.8413983235554952  0.3116976013375776  0.8187174703784591  1.0000
  N   N6        1.0  0.1586050738536287  0.6883029571461919  0.18128161237171977  1.0000
  N   N7        1.0  0.5683865412637488  0.2847255306851935  0.8659125522159313  1.0000
  N   N8        1.0  0.4316151048745809  0.7152741078780238  0.1340863545526076  1.0000
  O   O1        1.0  0.8331195260684794  0.817798333735368  0.0363727135485519  1.0000
  O   O2        1.0  0.1668794001763274  0.1822013048278421  0.9636286257782344  1.0000
  O   O3        1.0  0.05550827050470275  0.8989932816204771  0.9570167007095518  1.0000
  O   O4        1.0  0.944492015686869  0.10100635694274021  0.04298407369358161  1.0000
  O   O5        1.0  0.2630258317417358  0.42561596318061856  0.72236549366373  1.0000
  O   O6        1.0  0.7369758143965939  0.5743836753825989  0.27763276174933077  1.0000
  O   O7        1.0  0.28062990766100165  0.4685403761653006  0.86986109775129  1.0000
  O   O8        1.0  0.7193680499610621  0.5314601823184688  0.1301382906270945  1.0000
  O   O9        1.0  0.8978824270730923  0.5211267147318992  0.6119211257098485  1.0000
  O   O10       1.0  0.10211825044250128  0.47887384375187037  0.3880810409540487  1.0000
  O   O11       1.0  0.1428720204175136  0.6659534872792179  0.6938386965702534  1.0000
  O   O12       1.0  0.8571272971513152  0.3340470712045516  0.30616142959542  1.0000
  O   O13       1.0  0.8586589554140783  0.2016015093976975  0.6331020382599987  1.0000
  O   O14       1.0  0.1413436593470009  0.7983972092449605  0.3668975167459934  1.0000
  O   O15       1.0  0.959771149793518  0.29741123512913253  0.5183533501620232  1.0000
  O   O16       1.0  0.04023049634481878  0.7025884034340777  0.48164685931745044  1.0000
  O   O17       1.0  0.5201758253269446  0.7587357544664217  0.5922918757265663  1.0000
  O   O18       1.0  0.4798231009178622  0.2412638840967958  0.4077075095338074  1.0000
  O   O19       1.0  0.5526794199515663  0.6413106554703489  0.4723481852787472  1.0000
  O   O20       1.0  0.4473212575640276  0.3586899030134205  0.5276526786742153  1.0000
  O   O21       1.0  0.8379814711404805  0.8286267185801608  0.22767728120228978  1.0000
  O   O22       1.0  0.1620188150510913  0.1713729199830567  0.7723221904898949  1.0000
  O   O23       1.0  0.9175704978072757  0.0318467296696738  0.2328723298273587  1.0000
  O   O24       1.0  0.08242803711350187  0.9681519889729843  0.767127617238657  1.0000
