data_image0
_chemical_formula_structural       Cd2H32C32N8O14
_chemical_formula_sum              "Cd2 H32 C32 N8 O14"
_cell_length_a       7.919374160100648
_cell_length_b       8.328472772716466
_cell_length_c       16.45318694040268
_cell_angle_alpha    99.03005087013159
_cell_angle_beta     90.14252251542399
_cell_angle_gamma    120.88739955258289

_space_group_name_H-M_alt    "P 1"
_space_group_IT_number       1

loop_
  _space_group_symop_operation_xyz
  'x, y, z'

loop_
  _atom_site_type_symbol
  _atom_site_label
  _atom_site_symmetry_multiplicity
  _atom_site_fract_x
  _atom_site_fract_y
  _atom_site_fract_z
  _atom_site_occupancy
  Cd  Cd1       1.0  0.3808189695552358  0.9728460016326677  0.2643263604403431  1.0000
  Cd  Cd2       1.0  0.6191681167131121  0.02715270292883786  0.7356725810321267  1.0000
  H   H1        1.0  0.7895635738953499  0.9396232795104918  0.22141221006090464  1.0000
  H   H2        1.0  0.21043658375980098  0.06038414199453969  0.7785896015547779  1.0000
  H   H3        1.0  0.8773091133016634  0.15254978615744355  0.25346120122687676  1.0000
  H   H4        1.0  0.12268746636621576  0.8474550002008312  0.7465372583884078  1.0000
  H   H5        1.0  0.04964695641047709  0.20130440278288825  0.14820793743581362  1.0000
  H   H6        1.0  0.9503674222342865  0.7986929052226655  0.8517890333858491  1.0000
  H   H7        1.0  0.7085124268121064  0.7476962891588527  0.3167589323544179  1.0000
  H   H8        1.0  0.29148910803898076  0.2523112496890149  0.6832423102245786  1.0000
  H   H9        1.0  0.41905456099797067  0.7626999174959292  0.8675415512288186  1.0000
  H   H10       1.0  0.5809512203495544  0.2373134230938304  0.13245968105213282  1.0000
  H   H11       1.0  0.4816719465123072  0.7287727609006395  0.010202741430283895  1.0000
  H   H12       1.0  0.518326955527982  0.2712158478976788  0.989790091204711  1.0000
  H   H13       1.0  0.7966866477539938  0.9847721162703136  0.0950934902877307  1.0000
  H   H14       1.0  0.2033204340925039  0.015201060672147472  0.9049030404523679  1.0000
  H   H15       1.0  0.9497537149443857  0.27962997137719725  0.8890335082328992  1.0000
  H   H16       1.0  0.05025927341778669  0.7203788456516164  0.11097418175550194  1.0000
  H   H17       1.0  0.4505678570442484  0.48798125172317  0.11772083946084425  1.0000
  H   H18       1.0  0.5494494885329287  0.5120182496906905  0.8822836940656986  1.0000
  H   H19       1.0  0.3718671374667791  0.38510214112590535  0.20767992363231264  1.0000
  H   H20       1.0  0.62813286680214  0.6148980220648707  0.7923242946836669  1.0000
  H   H21       1.0  0.7133917600342841  0.2894615551258326  0.6034118342447032  1.0000
  H   H22       1.0  0.28659341493846563  0.7105402075561212  0.3965836799442855  1.0000
  H   H23       1.0  0.7821980010707463  0.2990083319319367  0.4560604101166705  1.0000
  H   H24       1.0  0.21778610962682166  0.7009837088691951  0.5439336222280178  1.0000
  H   H25       1.0  0.8087710606860342  0.03433470098378419  0.37384642619099406  1.0000
  H   H26       1.0  0.191228801059161  0.965654625885733  0.6261537969716998  1.0000
  H   H27       1.0  0.6908147057812568  0.7763890413858615  0.5912796676477685  1.0000
  H   H28       1.0  0.3091834446463865  0.22361690478206234  0.4087219717907403  1.0000
  H   H29       1.0  0.9529122621988221  0.5821543218329522  0.3420968736763826  1.0000
  H   H30       1.0  0.04708052641709064  0.4178458945667103  0.6579035405092315  1.0000
  H   H31       1.0  0.8651566934319206  0.59851121886809  0.24736596920103449  1.0000
  H   H32       1.0  0.13483566735460067  0.40149315235618116  0.7526347990535387  1.0000
  C   C1        1.0  0.554685136697401  0.8703853202922431  0.9059788056224538  1.0000
  C   C2        1.0  0.4453172624508284  0.12961837925848838  0.09401907524153334  1.0000
  C   C3        1.0  0.5903895375990376  0.8534093589928061  0.9860060801247745  1.0000
  C   C4        1.0  0.4096145516658822  0.146584853362782  0.013989180821525305  1.0000
  C   C5        1.0  0.7655989046176043  0.9964507456808814  0.03241599072318728  1.0000
  C   C6        1.0  0.23440872638113314  0.003536244861507468  0.9675829774593725  1.0000
  C   C7        1.0  0.8993003730276924  0.15353069383235857  0.9981163993389832  1.0000
  C   C8        1.0  0.10071098070618234  0.8464617198189686  0.0018861677207979838  1.0000
  C   C9        1.0  0.8507219451642596  0.15853672604400498  0.9172283630101961  1.0000
  C   C10       1.0  0.14928419791997527  0.8414652645124006  0.0827743203728701  1.0000
  C   C11       1.0  0.0957822811523243  0.315185562343018  0.040380084796538505  1.0000
  C   C12       1.0  0.904237206061879  0.6848217564663771  0.9596172622885464  1.0000
  C   C13       1.0  0.3360719078152741  0.44721552831015277  0.16099856572495955  1.0000
  C   C14       1.0  0.663939337424182  0.552783954338949  0.8390033992221577  1.0000
  C   C15       1.0  0.35278427353458136  0.6286230861248254  0.20697684600152405  1.0000
  C   C16       1.0  0.6472251178635987  0.3713821795014169  0.7930225400681298  1.0000
  C   C17       1.0  0.7235828309253519  0.17559497661558499  0.5653486946126236  1.0000
  C   C18       1.0  0.27640785283113445  0.8244072554377198  0.4346445434295847  1.0000
  C   C19       1.0  0.7602903500685019  0.179062604778835  0.4830000209152133  1.0000
  C   C20       1.0  0.23970149781923306  0.820937809805457  0.5169979546610437  1.0000
  C   C21       1.0  0.7725608296394882  0.029886503077491983  0.43760875017373035  1.0000
  C   C22       1.0  0.22743700367733066  0.9701084805581742  0.5623900971699173  1.0000
  C   C23       1.0  0.7456089804746354  0.8803943749136706  0.47569038536325803  1.0000
  C   C24       1.0  0.2543920690927451  0.11961459390211361  0.5243103628786727  1.0000
  C   C25       1.0  0.7110082725043368  0.8888743627419087  0.5591016105808253  1.0000
  C   C26       1.0  0.2889883835945852  0.11113406472887277  0.4409026493588116  1.0000
  C   C27       1.0  0.7667334434591168  0.7180712391938683  0.4346066870065572  1.0000
  C   C28       1.0  0.23325825968074546  0.28192638742823545  0.5653910416928982  1.0000
  C   C29       1.0  0.8232113263503819  0.5652869633126727  0.30891454196378737  1.0000
  C   C30       1.0  0.17678005523035972  0.4347157974953503  0.6910878911937532  1.0000
  C   C31       1.0  0.6601234473368791  0.35694421669706594  0.29706098257373986  1.0000
  C   C32       1.0  0.3398692539854835  0.6430559365971078  0.70294003314109  1.0000
  N   N1        1.0  0.6832786590598944  0.019191615638284473  0.8718147220807284  1.0000
  N   N2        1.0  0.31672370161073354  0.9808102753115759  0.1281872622955831  1.0000
  N   N3        1.0  0.14536525731264757  0.30665804059856316  0.11753471134275632  1.0000
  N   N4        1.0  0.8546467350911727  0.6933402013991028  0.8824659433537936  1.0000
  N   N5        1.0  0.700996966160261  0.033621595257741894  0.6028745483762209  1.0000
  N   N6        1.0  0.29899857684752357  0.9663788558275994  0.39712472773600654  1.0000
  N   N7        1.0  0.7728734281982811  0.6979338673452202  0.3513109248469136  1.0000
  N   N8        1.0  0.22712110576448905  0.3020676350750761  0.6486914661035146  1.0000
  O   O1        1.0  0.2075451128460984  0.44539827059845283  0.003316992245856893  1.0000
  O   O2        1.0  0.7924645828344693  0.5545929201377361  0.9966829965199014  1.0000
  O   O3        1.0  0.9171249028285471  0.061158511969630056  0.23035801895908756  1.0000
  O   O4        1.0  0.0828744502079247  0.9388474253301452  0.7696442545011453  1.0000
  O   O5        1.0  0.1994692452583209  0.6383579747153263  0.21626546940830596  1.0000
  O   O6        1.0  0.8005317978948411  0.36163847538929866  0.7837341841342467  1.0000
  O   O7        1.0  0.5269123018529241  0.7677181947767762  0.23627850620363236  1.0000
  O   O8        1.0  0.47309829215409127  0.23228706198131008  0.7637215138877453  1.0000
  O   O9        1.0  0.7112443506741001  0.2324993596798848  0.2822734775725735  1.0000
  O   O10       1.0  0.28874420008373375  0.7674995253299525  0.7177242933339941  1.0000
  O   O11       1.0  0.4815927235902534  0.31154852004576117  0.2986680530440396  1.0000
  O   O12       1.0  0.5184007438731868  0.688451308852798  0.7013366043385646  1.0000
  O   O13       1.0  0.7900248373212265  0.6168381975157401  0.47595516647567154  1.0000
  O   O14       1.0  0.20995532671399525  0.3831500633716231  0.5240469754161198  1.0000
