data_image0
_chemical_formula_structural       Zn2H24C16S4N4O8
_chemical_formula_sum              "Zn2 H24 C16 S4 N4 O8"
_cell_length_a       5.355802552689661
_cell_length_b       9.68672406318814
_cell_length_c       10.945349044944109
_cell_angle_alpha    91.4794800373211
_cell_angle_beta     90.00000400569328
_cell_angle_gamma    89.99951105070375

_space_group_name_H-M_alt    "P 1"
_space_group_IT_number       1

loop_
  _space_group_symop_operation_xyz
  'x, y, z'

loop_
  _atom_site_type_symbol
  _atom_site_label
  _atom_site_symmetry_multiplicity
  _atom_site_fract_x
  _atom_site_fract_y
  _atom_site_fract_z
  _atom_site_occupancy
  Zn  Zn1       1.0  0.0894111089991085  0.9641293246370638  0.6989496149803075  1.0000
  Zn  Zn2       1.0  0.5894295262842774  0.035859675039276305  0.3010479776622788  1.0000
  H   H1        1.0  0.8868278819252707  0.1638138312992652  0.80673798040403  1.0000
  H   H2        1.0  0.38685918018839516  0.8361866700387995  0.19325863234094243  1.0000
  H   H3        1.0  0.6873059166735159  0.8941531344235899  0.8241954024311227  1.0000
  H   H4        1.0  0.18731677008067754  0.1058506657706175  0.17580812647588573  1.0000
  H   H5        1.0  0.8655668047176233  0.8557060495972165  0.9958397962364529  1.0000
  H   H6        1.0  0.3655645435982676  0.14429151468835502  0.004159350882588302  1.0000
  H   H7        1.0  0.9415155847509664  0.6802621178980673  0.6779619475269811  1.0000
  H   H8        1.0  0.4415369728902902  0.31973411304238647  0.3220360433270458  1.0000
  H   H9        1.0  0.6179062129578766  0.7300727376257754  0.6813622025419761  1.0000
  H   H10       1.0  0.11793428553549029  0.26992978161913317  0.3186503512226864  1.0000
  H   H11       1.0  0.996888886417217  0.6236223432622056  0.027416394139940802  1.0000
  H   H12       1.0  0.49688657386513313  0.3763809544896973  0.9725824766511693  1.0000
  H   H13       1.0  0.17272076221699706  0.615023639017963  0.8895682483800301  1.0000
  H   H14       1.0  0.672729825470448  0.3849779824848056  0.110432103478594  1.0000
  H   H15       1.0  0.6491248044437582  0.22986407284026464  0.6530580157680959  1.0000
  H   H16       1.0  0.14915638034241846  0.7701266918572784  0.3469345992745119  1.0000
  H   H17       1.0  0.8228178243200972  0.4474919726765166  0.6429437200600533  1.0000
  H   H18       1.0  0.3228772163124773  0.5525004772249034  0.357074238408444  1.0000
  H   H19       1.0  0.9142248639101567  0.3847893550514173  0.4938812752755126  1.0000
  H   H20       1.0  0.4142868506823233  0.615224691132987  0.5061321691185654  1.0000
  H   H21       1.0  0.3632647226367496  0.22213436704572598  0.7954109440978101  1.0000
  H   H22       1.0  0.8632790768911319  0.7778635932778784  0.2045755140440804  1.0000
  H   H23       1.0  0.1225221622951693  0.3392034301319171  0.8450225867581054  1.0000
  H   H24       1.0  0.6225494433474664  0.6607909947462859  0.15496845644599944  1.0000
  C   C1        1.0  0.8379059808824039  0.11859863281214442  0.5191962491676207  1.0000
  C   C2        1.0  0.3379189969273  0.8814079465449609  0.4807951787837581  1.0000
  C   C3        1.0  0.9802870746397261  0.8127310625957094  0.9210658130010501  1.0000
  C   C4        1.0  0.4802944801733986  0.1872649537616837  0.07893250085209053  1.0000
  C   C5        1.0  0.24156541857310998  0.8776123119692159  0.9342677252941697  1.0000
  C   C6        1.0  0.7415657486832002  0.12238529045835377  0.0657316404621753  1.0000
  C   C7        1.0  0.7854287920606994  0.7140424015736357  0.7366467498631265  1.0000
  C   C8        1.0  0.285448328836857  0.2859556668927965  0.263355509587889  1.0000
  C   C9        1.0  0.9998419494611566  0.6546589073648691  0.9320745902853815  1.0000
  C   C10       1.0  0.4998471981260764  0.34534460326613475  0.0679251976541906  1.0000
  C   C11       1.0  0.8472492853919462  0.2244103267929987  0.6256319843851728  1.0000
  C   C12       1.0  0.34727690511628145  0.7755892533049646  0.3743716028447396  1.0000
  C   C13       1.0  0.9314878374180751  0.36913812567048865  0.5922162179331211  1.0000
  C   C14       1.0  0.4315434461571072  0.6308656296534353  0.4077961592510775  1.0000
  C   C15       1.0  0.19217733896658729  0.2753077307444514  0.7677884818447325  1.0000
  C   C16       1.0  0.69220298751258  0.7246824774758238  0.232208846390165  1.0000
  S   S1        1.0  0.2561240410282366  0.3807940051446224  0.6374733999121105  1.0000
  S   S2        1.0  0.7561773579188438  0.6192121592353957  0.362520253864318  1.0000
  S   S3        1.0  0.7305682182333442  0.5850555185576525  0.8516684071855137  1.0000
  S   S4        1.0  0.2305849181961364  0.41494769387420394  0.1483407391526868  1.0000
  N   N1        1.0  0.9974070288977259  0.17388016272885662  0.7297710224973457  1.0000
  N   N2        1.0  0.4974270959001074  0.8261168717016788  0.2702294113476711  1.0000
  N   N3        1.0  0.8521457797833065  0.8430538445635205  0.8036228095976696  1.0000
  N   N4        1.0  0.3521604572092158  0.1569455467773935  0.196376012626601  1.0000
  O   O1        1.0  0.8613613597646078  0.9928120693962087  0.543719954993584  1.0000
  O   O2        1.0  0.361366019964187  0.0071929466985168  0.4562805584856662  1.0000
  O   O3        1.0  0.3528512204472491  0.8623558951701326  0.033530268539038795  1.0000
  O   O4        1.0  0.852846031254721  0.13764660992386266  0.9664659068369871  1.0000
  O   O5        1.0  0.3352013745177516  0.941010946888177  0.8427586541829158  1.0000
  O   O6        1.0  0.8352145158192527  0.05898336110029591  0.1572342275101875  1.0000
  O   O7        1.0  0.7844298852073948  0.1647306187219684  0.41423059633815035  1.0000
  O   O8        1.0  0.2844344649783537  0.8352728962681936  0.5857609488245856  1.0000
