data_image0
_chemical_formula_structural       Zn4H40C48Br8N8O8
_chemical_formula_sum              "Zn4 H40 C48 Br8 N8 O8"
_cell_length_a       9.228267795144905
_cell_length_b       11.255109518565241
_cell_length_c       16.023003100332524
_cell_angle_alpha    69.92053161035675
_cell_angle_beta     73.27270648063993
_cell_angle_gamma    65.80655113502927

_space_group_name_H-M_alt    "P 1"
_space_group_IT_number       1

loop_
  _space_group_symop_operation_xyz
  'x, y, z'

loop_
  _atom_site_type_symbol
  _atom_site_label
  _atom_site_symmetry_multiplicity
  _atom_site_fract_x
  _atom_site_fract_y
  _atom_site_fract_z
  _atom_site_occupancy
  Zn  Zn1       1.0  0.10308432189059868  0.6729603807946845  0.9590127935893448  1.0000
  Zn  Zn2       1.0  0.7351098929064365  0.8269236759562729  0.5408723932079766  1.0000
  Zn  Zn3       1.0  0.8969228701964412  0.3270385757639858  0.04098969314278382  1.0000
  Zn  Zn4       1.0  0.2648827543344013  0.17308139258491914  0.45912522767508074  1.0000
  H   H1        1.0  0.3902438686607327  0.3531470389592357  0.17003020179810588  1.0000
  H   H2        1.0  0.9137366105249496  0.1463333185647855  0.3297733358648073  1.0000
  H   H3        1.0  0.6097493355778525  0.646841795795524  0.8299763543768534  1.0000
  H   H4        1.0  0.08626685752088284  0.8536677006135847  0.6702260053085497  1.0000
  H   H5        1.0  0.1929965313955364  0.3896271259607076  0.23765826574854287  1.0000
  H   H6        1.0  0.8205825176134597  0.10986161278195541  0.2621446432505508  1.0000
  H   H7        1.0  0.8069974109826957  0.6103667402228297  0.7623480149718276  1.0000
  H   H8        1.0  0.17942281685585493  0.8901424454574354  0.7378533172918367  1.0000
  H   H9        1.0  0.11000069188585848  0.579046045751184  0.30750451049777894  1.0000
  H   H10       1.0  0.9970757910476069  0.9203523648538052  0.19227959790960358  1.0000
  H   H11       1.0  0.8899968471105667  0.42094586968703146  0.6924981597242377  1.0000
  H   H12       1.0  0.0029280067771894607  0.0796486408816364  0.8077205561080305  1.0000
  H   H13       1.0  0.5846097316316661  0.366559057619277  0.21210516840246638  1.0000
  H   H14       1.0  0.16336423641968176  0.1331547221073492  0.2877477950096505  1.0000
  H   H15       1.0  0.41538859374070847  0.6334369318739661  0.7878943285008403  1.0000
  H   H16       1.0  0.8366394282201388  0.8668473155847706  0.7122507528340307  1.0000
  H   H17       1.0  0.19359571891070712  0.673922254769188  0.3956940716514127  1.0000
  H   H18       1.0  0.2638159448540804  0.8255570026718715  0.10418232817723083  1.0000
  H   H19       1.0  0.8064027757540303  0.32607779837346845  0.6043028782636668  1.0000
  H   H20       1.0  0.7361875504933766  0.1744409713708421  0.8958187666546776  1.0000
  H   H21       1.0  0.6903768697298674  0.4489413307125787  0.2964369173538373  1.0000
  H   H22       1.0  0.4358862443756665  0.05086683112020298  0.203509480469954  1.0000
  H   H23       1.0  0.3096195497884795  0.5510607178351492  0.7035609512238565  1.0000
  H   H24       1.0  0.5641184305357216  0.9491372540050448  0.7964868543838861  1.0000
  H   H25       1.0  0.2838443562704358  0.734693153652671  0.4748776843051559  1.0000
  H   H26       1.0  0.4939358192244967  0.7651844056706238  0.025005700574212055  1.0000
  H   H27       1.0  0.7161555330480882  0.26530284320886466  0.5251213727814346  1.0000
  H   H28       1.0  0.5060698298510719  0.23481663128165306  0.974992574451946  1.0000
  H   H29       1.0  0.7669452947842573  0.5512974756677239  0.3378557697285345  1.0000
  H   H30       1.0  0.6564757821208931  0.9484686209599715  0.16225315758095596  1.0000
  H   H31       1.0  0.23305496042060994  0.4487036033569821  0.6621399470401599  1.0000
  H   H32       1.0  0.34352430107344417  0.05153837532166959  0.8377494991215855  1.0000
  H   H33       1.0  0.40452783514837876  0.8308238630925189  0.542923468429521  1.0000
  H   H34       1.0  0.7787200531765495  0.6690435272076273  0.9570346383931893  1.0000
  H   H35       1.0  0.5954625676537121  0.16917913720433825  0.45707761810436415  1.0000
  H   H36       1.0  0.2212914102593189  0.3309564595640709  0.04296636188963278  1.0000
  H   H37       1.0  0.8665201479229836  0.6451957094473215  0.41873697546743927  1.0000
  H   H38       1.0  0.9308333916458413  0.854712889740298  0.08127725901172064  1.0000
  H   H39       1.0  0.13347458963695397  0.35481037153299155  0.5812602251134962  1.0000
  H   H40       1.0  0.06916922965882577  0.1452910657366644  0.9187268980464438  1.0000
  C   C1        1.0  0.2156703678809891  0.5534528339234229  0.12223778042967837  1.0000
  C   C2        1.0  0.8918782548788471  0.9460203581905305  0.37752465864000573  1.0000
  C   C3        1.0  0.7843280272673497  0.4465400731427068  0.8777657221512029  1.0000
  C   C4        1.0  0.10812175549573058  0.053980659694175884  0.6224747493224997  1.0000
  C   C5        1.0  0.28869599617006997  0.43112668195827547  0.19759480410500876  1.0000
  C   C6        1.0  0.9177590545488457  0.06835793552492218  0.3021783194378784  1.0000
  C   C7        1.0  0.7112983090507188  0.5688632055643836  0.802408893235011  1.0000
  C   C8        1.0  0.08224366322841815  0.9316441052045192  0.6978200418920223  1.0000
  C   C9        1.0  0.2361530667876438  0.5545693059314943  0.30828895819841756  1.0000
  C   C10       1.0  0.09946635324217837  0.9449278252466441  0.19150537069018012  1.0000
  C   C11       1.0  0.7638446688027687  0.4454236280204781  0.6917129186939234  1.0000
  C   C12       1.0  0.9005392958333902  0.05507321170562558  0.8084929043359778  1.0000
  C   C13       1.0  0.5044601116428283  0.4339694005900867  0.25448595410971814  1.0000
  C   C14       1.0  0.1930853136375036  0.06568318977173962  0.2453755709058356  1.0000
  C   C15       1.0  0.4955378205415785  0.5660245518756497  0.7455151294529402  1.0000
  C   C16       1.0  0.8069155104146546  0.934318857032338  0.75462241739649  1.0000
  C   C17       1.0  0.28707087552376037  0.6059943483424703  0.3572303240963705  1.0000
  C   C18       1.0  0.25080232080615883  0.8935132727349496  0.14265399795279168  1.0000
  C   C19       1.0  0.712926832765028  0.39400163074516575  0.6427697991374258  1.0000
  C   C20       1.0  0.7492040785379787  0.10648674266625589  0.8573452569168368  1.0000
  C   C21       1.0  0.5602331890097574  0.48244471773484315  0.3024101391447118  1.0000
  C   C22       1.0  0.34528640468430194  0.0172980960835432  0.19748071231421696  1.0000
  C   C23       1.0  0.4397638475921824  0.5175573412184915  0.6975871031024852  1.0000
  C   C24       1.0  0.6547151423347944  0.9827059743051193  0.8025165021730345  1.0000
  C   C25       1.0  0.4525289791125716  0.5735492703037294  0.3533968256107798  1.0000
  C   C26       1.0  0.379886977250763  0.9261103622329759  0.14652982225175032  1.0000
  C   C27       1.0  0.5474674404057749  0.4264527782439984  0.6466010429669141  1.0000
  C   C28       1.0  0.6201203689559238  0.07388965013090847  0.8534696191316584  1.0000
  C   C29       1.0  0.5144982059627311  0.6327179015549049  0.3989586883957799  1.0000
  C   C30       1.0  0.5466210758829464  0.8670614611850028  0.10104400474163099  1.0000
  C   C31       1.0  0.4854995809077781  0.36728313584736577  0.6010395336948804  1.0000
  C   C32       1.0  0.45338798262757524  0.1329405344346881  0.8989571013595139  1.0000
  C   C33       1.0  0.413837496749288  0.7127907714158256  0.4583348206036105  1.0000
  C   C34       1.0  0.5854591607308065  0.787035225522942  0.04162403508816223  1.0000
  C   C35       1.0  0.5861632487211497  0.2872062170736172  0.5416650688418585  1.0000
  C   C36       1.0  0.4145457532489092  0.21296984082459858  0.958373758455032  1.0000
  C   C37       1.0  0.6802312548605516  0.6104149673215389  0.3835901567249066  1.0000
  C   C38       1.0  0.6746498637715561  0.8893914357241003  0.11647077180615638  1.0000
  C   C39       1.0  0.31976528267006227  0.38958304142531125  0.6164088196662405  1.0000
  C   C40       1.0  0.3253543848882645  0.11061457759159052  0.8835305459316629  1.0000
  C   C41       1.0  0.48064184138728905  0.7653211665226324  0.49861917993734284  1.0000
  C   C42       1.0  0.7450161318285924  0.7345665809910856  0.0013273150488472692  1.0000
  C   C43       1.0  0.51935337126551  0.23467781607822502  0.5013816949598677  1.0000
  C   C44       1.0  0.25499334717153505  0.2654344065204626  0.9986739580514907  1.0000
  C   C45       1.0  0.7384888431484459  0.6630178130834922  0.4281530308567126  1.0000
  C   C46       1.0  0.8300359583716176  0.8368865331359602  0.07185389867376554  1.0000
  C   C47       1.0  0.26150545874917724  0.3369862681607714  0.5718435043645442  1.0000
  C   C48       1.0  0.16996977565262508  0.1631144292333957  0.9281488803904807  1.0000
  Br  Br1       1.0  0.08048995292278967  0.5967781353944018  0.8427202802272191  1.0000
  Br  Br2       1.0  0.5204952907854197  0.9035102367091384  0.6571673042011595  1.0000
  Br  Br3       1.0  0.9195116790449874  0.40322586041133945  0.15728143829811356  1.0000
  Br  Br4       1.0  0.47949573181843874  0.0964827930869703  0.3428287630566089  1.0000
  Br  Br5       1.0  0.2581700166506524  0.8213384865752148  0.9028639123859392  1.0000
  Br  Br6       1.0  0.9825096125035773  0.6790914151332854  0.5971300357881403  1.0000
  Br  Br7       1.0  0.7418300507659767  0.1786697146774827  0.09712669089171301  1.0000
  Br  Br8       1.0  0.017482874855644936  0.3209135176849927  0.4028757803268094  1.0000
  N   N1        1.0  0.8656306640508196  0.7599013744854728  0.015407352741803474  1.0000
  N   N2        1.0  0.6406609020574766  0.7399773872452116  0.48460498172617145  1.0000
  N   N3        1.0  0.13437885742364866  0.24009957573461088  0.9845961723775716  1.0000
  N   N4        1.0  0.3593346764816661  0.2600266775188089  0.5153925528531431  1.0000
  N   N5        1.0  0.3442816049709307  0.4715048601848651  0.25686664790564606  1.0000
  N   N6        1.0  0.07293257107302512  0.028098827894695  0.2429044772297146  1.0000
  N   N7        1.0  0.6557128061332095  0.5284870405167653  0.7431369019497894  1.0000
  N   N8        1.0  0.9270709876834508  0.9719011966184536  0.7570942180985583  1.0000
  O   O1        1.0  0.2256759133279473  0.5216627453700369  0.05047689400791457  1.0000
  O   O2        1.0  0.7978940615382234  0.9779551264002249  0.4491374056428299  1.0000
  O   O3        1.0  0.774328922070041  0.47833726266287613  0.9495228006784159  1.0000
  O   O4        1.0  0.20210151700091922  0.0220489383637954  0.5508601289364918  1.0000
  O   O5        1.0  0.15040998442706405  0.6674787406700204  0.13657164936030597  1.0000
  O   O6        1.0  0.9554115686444291  0.8319146188823868  0.3633312297612008  1.0000
  O   O7        1.0  0.849586586772141  0.3325110900436172  0.863435485870603  1.0000
  O   O8        1.0  0.044590005676290984  0.16808640637061958  0.6366677383845953  1.0000
