data_image0
_chemical_formula_structural       Tl4H40C32N4O8
_chemical_formula_sum              "Tl4 H40 C32 N4 O8"
_cell_length_a       7.711901152290774
_cell_length_b       8.962718415394832
_cell_length_c       14.509351370283584
_cell_angle_alpha    89.99847717985631
_cell_angle_beta     90.00040223951581
_cell_angle_gamma    111.90412093365103

_space_group_name_H-M_alt    "P 1"
_space_group_IT_number       1

loop_
  _space_group_symop_operation_xyz
  'x, y, z'

loop_
  _atom_site_type_symbol
  _atom_site_label
  _atom_site_symmetry_multiplicity
  _atom_site_fract_x
  _atom_site_fract_y
  _atom_site_fract_z
  _atom_site_occupancy
  Tl  Tl1       1.0  0.39999840486409255  0.7873965118928511  0.09312381556996743  1.0000
  Tl  Tl2       1.0  0.09999424797103981  0.21260705353736853  0.5931296951939303  1.0000
  Tl  Tl3       1.0  0.5999824862169447  0.2125997811389198  0.90687858942718  1.0000
  Tl  Tl4       1.0  0.900014663163283  0.7874001805307032  0.4068692637095881  1.0000
  H   H1        1.0  0.5319625512736722  0.9474255433216359  0.7550730666783849  1.0000
  H   H2        1.0  0.9680553171374913  0.052554894029491116  0.2550809258438278  1.0000
  H   H3        1.0  0.4680513698113771  0.0525661167347025  0.24493760894412736  1.0000
  H   H4        1.0  0.031946393950669054  0.9474355045315479  0.744923546871135  1.0000
  H   H5        1.0  0.7569629856444564  0.8232630977989646  0.1361943110696799  1.0000
  H   H6        1.0  0.7430390819524391  0.1767417598608745  0.636206806385978  1.0000
  H   H7        1.0  0.24302803071905296  0.1767356465052501  0.8637970665543623  1.0000
  H   H8        1.0  0.25697039865283244  0.8232546774222343  0.3638059368212795  1.0000
  H   H9        1.0  0.7250966648517831  0.8249610745372637  0.013795246966552103  1.0000
  H   H10       1.0  0.7748821781608797  0.17504792418938564  0.5138092623729449  1.0000
  H   H11       1.0  0.2748691462538915  0.17503634252112477  0.986193373780708  1.0000
  H   H12       1.0  0.22510729529860646  0.824947212209608  0.48619658870248383  1.0000
  H   H13       1.0  0.6435172687950727  0.636703440539236  0.07519981194622011  1.0000
  H   H14       1.0  0.856465402032768  0.36330043942595586  0.5752096357669176  1.0000
  H   H15       1.0  0.3564508980203485  0.36329038862357527  0.9247894980455131  1.0000
  H   H16       1.0  0.1435266152498541  0.6367067090664873  0.4247982828460621  1.0000
  H   H17       1.0  0.1848520479302779  0.45239659383992864  0.8002294775832653  1.0000
  H   H18       1.0  0.3151549914541931  0.5476098079084509  0.30022518161194983  1.0000
  H   H19       1.0  0.815138725042843  0.54759854903417  0.19978050875854342  1.0000
  H   H20       1.0  0.68485262015691  0.45239741960763524  0.6997730880786223  1.0000
  H   H21       1.0  0.13572089256494024  0.8150402666544565  0.20730189337317748  1.0000
  H   H22       1.0  0.36429137538294754  0.1849631059880821  0.7073009016743586  1.0000
  H   H23       1.0  0.8642758085264789  0.18496570554925282  0.7927074036792378  1.0000
  H   H24       1.0  0.6357294471920911  0.8150537875959644  0.2927028816455675  1.0000
  H   H25       1.0  0.03561666449174808  0.7480728188806725  0.09612500201587443  1.0000
  H   H26       1.0  0.464369689761142  0.25194018044668803  0.5961246416209393  1.0000
  H   H27       1.0  0.9643553180152153  0.2519390280763076  0.903882916522612  1.0000
  H   H28       1.0  0.5356438223729044  0.7480838760244527  0.40386742504523454  1.0000
  H   H29       1.0  0.1778814134526173  0.9575117074171332  0.11468466203881182  1.0000
  H   H30       1.0  0.32213161324606426  0.042499399039869  0.6146872475917747  1.0000
  H   H31       1.0  0.8221253852856378  0.04250271536153601  0.8853225673298868  1.0000
  H   H32       1.0  0.6778819817104776  0.9575066588471159  0.3853082652763789  1.0000
  H   H33       1.0  0.5453341202443199  0.8814144172258694  0.5866753420229287  1.0000
  H   H34       1.0  0.954704504404539  0.11855923594082182  0.08666759159198992  1.0000
  H   H35       1.0  0.4546935813235605  0.11857611249790521  0.41333740126555807  1.0000
  H   H36       1.0  0.04531569862238181  0.8814228567886674  0.9133272322748598  1.0000
  H   H37       1.0  0.37386536368767054  0.5960099989937931  0.5352471094306852  1.0000
  H   H38       1.0  0.1261526560184479  0.403975877055963  0.0352445071926155  1.0000
  H   H39       1.0  0.6261761183841372  0.4039794005665699  0.4647601202062362  1.0000
  H   H40       1.0  0.8738288045891595  0.5960096196367886  0.9647516949983984  1.0000
  C   C1        1.0  0.35855331881258934  0.7039240894828184  0.7900997627012176  1.0000
  C   C2        1.0  0.14145277595999772  0.296074359573204  0.2901024405709195  1.0000
  C   C3        1.0  0.6414528051446524  0.29606753135387015  0.2099026423794896  1.0000
  C   C4        1.0  0.8585367251427912  0.7039147775847853  0.7098916939723738  1.0000
  C   C5        1.0  0.4588138127151781  0.8261636743918926  0.7288074275181062  1.0000
  C   C6        1.0  0.0412059169550503  0.1738291773262475  0.22881383097263353  1.0000
  C   C7        1.0  0.5411954245725781  0.17382916204544327  0.2711977344008717  1.0000
  C   C8        1.0  0.9588098455825077  0.8261576925531245  0.7711865065323877  1.0000
  C   C9        1.0  0.6658143867719276  0.7645916254261284  0.0784263709288879  1.0000
  C   C10       1.0  0.8341989404095641  0.23541106560361413  0.5784382241270905  1.0000
  C   C11       1.0  0.3341766572022777  0.23540111937566616  0.9215650067446649  1.0000
  C   C12       1.0  0.16581519641298567  0.7645901950469562  0.4215690053632244  1.0000
  C   C13       1.0  0.2661121528125818  0.5496317034632838  0.7541923039622491  1.0000
  C   C14       1.0  0.23386165366174083  0.4503681837338292  0.25419414583420524  1.0000
  C   C15       1.0  0.7338684949394364  0.45036098863044327  0.2458066550107318  1.0000
  C   C16       1.0  0.766125436523332  0.549636540432232  0.7457944748907794  1.0000
  C   C17       1.0  0.35141172885870026  0.7351510722982654  0.8914630863915891  1.0000
  C   C18       1.0  0.14859585900182282  0.26484766395866194  0.3914545881102569  1.0000
  C   C19       1.0  0.6485983989552508  0.26487416673679587  0.10854069684044285  1.0000
  C   C20       1.0  0.8513954835247123  0.7351366827916977  0.608539546475818  1.0000
  C   C21       1.0  0.1557549567510679  0.8333028904431575  0.1327608860953049  1.0000
  C   C22       1.0  0.3442348488639269  0.1667048928152468  0.6327580563321292  1.0000
  C   C23       1.0  0.8442318624290904  0.1667042317644487  0.8672477217193022  1.0000
  C   C24       1.0  0.6557625822835862  0.8333118827561635  0.3672367672081195  1.0000
  C   C25       1.0  0.46515545836756195  0.7898915607460213  0.6359207462159092  1.0000
  C   C26       1.0  0.03484865204497112  0.21011015420943832  0.1359196366924778  1.0000
  C   C27       1.0  0.5348539670143994  0.21011687552655192  0.3640926861030068  1.0000
  C   C28       1.0  0.9651426904719713  0.7898741924640404  0.8640779439470239  1.0000
  C   C29       1.0  0.3710486000473808  0.6317376341794656  0.6068585568691347  1.0000
  C   C30       1.0  0.12895597068209955  0.3682569798237126  0.10684897242728653  1.0000
  C   C31       1.0  0.6289842444130828  0.3682649209262507  0.393149361854583  1.0000
  C   C32       1.0  0.8710117094637725  0.6317296473707543  0.8931375807802128  1.0000
  N   N1        1.0  0.27142185202293234  0.513717875233418  0.6647937131424302  1.0000
  N   N2        1.0  0.22857949868510016  0.48628253839168417  0.1647832272990541  1.0000
  N   N3        1.0  0.7285782609839304  0.4862809147809203  0.33520938107911763  1.0000
  N   N4        1.0  0.7714042900733348  0.5137053703231091  0.8351950553984084  1.0000
  O   O1        1.0  0.41489259458346345  0.8805186069459693  0.9192813012179146  1.0000
  O   O2        1.0  0.08512444939749741  0.11948013620782665  0.4192846224516487  1.0000
  O   O3        1.0  0.585103022749088  0.11949695951527424  0.0807142115397497  1.0000
  O   O4        1.0  0.9148868174676609  0.88052351013382  0.5807074443788027  1.0000
  O   O5        1.0  0.2848659212404102  0.614879533139586  0.9451169434939859  1.0000
  O   O6        1.0  0.21513928324785078  0.3851179981257006  0.44511634839715  1.0000
  O   O7        1.0  0.7151551446674915  0.38514096141326354  0.05488890742874021  1.0000
  O   O8        1.0  0.7848660278940759  0.6148808184348908  0.5548743400411241  1.0000
