data_image0
_chemical_formula_structural       Zn4H26C36N30O2
_chemical_formula_sum              "Zn4 H26 C36 N30 O2"
_cell_length_a       10.039065414951086
_cell_length_b       10.490073350027862
_cell_length_c       11.847429362084613
_cell_angle_alpha    71.254696611536
_cell_angle_beta     66.9409068733323
_cell_angle_gamma    79.39893101657633

_space_group_name_H-M_alt    "P 1"
_space_group_IT_number       1

loop_
  _space_group_symop_operation_xyz
  'x, y, z'

loop_
  _atom_site_type_symbol
  _atom_site_label
  _atom_site_symmetry_multiplicity
  _atom_site_fract_x
  _atom_site_fract_y
  _atom_site_fract_z
  _atom_site_occupancy
  Zn  Zn1       1.0  0.21534814015312517  0.026666682317880892  0.3347901445315811  1.0000
  Zn  Zn2       1.0  0.7846526736534828  0.9733337768820925  0.6652095955385418  1.0000
  Zn  Zn3       1.0  0.007861524558997211  0.30913763808074174  0.28679384271454467  1.0000
  Zn  Zn4       1.0  0.9921382819047082  0.6908618096558924  0.7132065176446428  1.0000
  H   H1        1.0  0.18331391802708202  0.8697741053682008  0.7273912460705813  1.0000
  H   H2        1.0  0.8166858884366167  0.13022534236843333  0.27260911428860607  1.0000
  H   H3        1.0  0.21701160794460617  0.9353603213080955  0.8988464676214533  1.0000
  H   H4        1.0  0.7829870410225583  0.06464013280982779  0.10115398904111562  1.0000
  H   H5        1.0  0.8622378539536586  0.6940661144428971  0.1722498590146839  1.0000
  H   H6        1.0  0.13776187316356922  0.3059343417951439  0.8277519290150647  1.0000
  H   H7        1.0  0.8433153139174367  0.6335122628447323  0.9910879030345466  1.0000
  H   H8        1.0  0.1566845676230741  0.36648617596958377  0.00891271931747894  1.0000
  H   H9        1.0  0.7438549432466744  0.4160451086747727  0.21916040569080755  1.0000
  H   H10       1.0  0.2561458705599335  0.5839553505252013  0.7808393343793083  1.0000
  H   H11       1.0  0.5424953896448984  0.5923322039900467  0.26858185911188304  1.0000
  H   H12       1.0  0.4575065837930837  0.4076672490390931  0.7314169398231412  1.0000
  H   H13       1.0  0.7043954516790834  0.6290508299851824  0.5449938596639541  1.0000
  H   H14       1.0  0.2956043547846151  0.3709486177514519  0.4550065006952264  1.0000
  H   H15       1.0  0.889719250419681  0.44678090707974133  0.4925294167181275  1.0000
  H   H16       1.0  0.11028047883237238  0.5532195493687553  0.5074715264799249  1.0000
  H   H17       1.0  0.35378163425455267  0.0803373398115994  0.042931969453277874  1.0000
  H   H18       1.0  0.6462191816868882  0.91966311959883  0.9570669257851417  1.0000
  H   H19       1.0  0.5431146798080563  0.22837395675367128  0.8654075074285855  1.0000
  H   H20       1.0  0.45688490142520516  0.771628517749903  0.13459206695208772  1.0000
  H   H21       1.0  0.5870482494294863  0.3744107712274172  0.1507450423078253  1.0000
  H   H22       1.0  0.4129514798225671  0.6255896852210795  0.8492559008902204  1.0000
  H   H23       1.0  0.40794543257516835  0.21462177672475483  0.3158333963880579  1.0000
  H   H24       1.0  0.5920532936036338  0.7853776686813062  0.6841664774356528  1.0000
  H   H25       1.0  0.045757063928846306  0.1585553199724288  0.4901653922034368  1.0000
  H   H26       1.0  0.95424266745804  0.8414451366865165  0.5098347061629052  1.0000
  C   C1        1.0  0.11451789331096054  0.8324040051542665  0.8275163443197112  1.0000
  C   C2        1.0  0.8854819882295574  0.16759443366005658  0.1724842780323072  1.0000
  C   C3        1.0  0.1329483833183431  0.8685043741254577  0.923134888738978  1.0000
  C   C4        1.0  0.8670514210105296  0.1314950734007212  0.07686631645190539  1.0000
  C   C5        1.0  0.04260605285960392  0.8178597668240286  0.05029522876174747  1.0000
  C   C6        1.0  0.9573948360238236  0.1821396834536344  0.9497047733012064  1.0000
  C   C7        1.0  0.9350717193032666  0.7337472756903194  0.07498563043350973  1.0000
  C   C8        1.0  0.064928087160439  0.2662521720463147  0.9250147299256707  1.0000
  C   C9        1.0  0.9237426630193895  0.7008785741463796  0.9752318051810032  1.0000
  C   C10       1.0  0.0762583009408502  0.2991198672089723  0.024768458874788693  1.0000
  C   C11       1.0  0.05648260721022075  0.8489768706352548  0.15604554563505954  1.0000
  C   C12       1.0  0.9435171992534778  0.15102257710137934  0.8439548147241278  1.0000
  C   C13       1.0  0.7297920119991161  0.4654602345763195  0.29147940641759357  1.0000
  C   C14       1.0  0.2702067849868399  0.5345382014865193  0.7085224190623618  1.0000
  C   C15       1.0  0.6202818278086326  0.5652781776069417  0.3171328661929419  1.0000
  C   C16       1.0  0.3797199954757177  0.43472329326682774  0.6828654087564057  1.0000
  C   C17       1.0  0.6095611368560442  0.6290204154803333  0.4085041054361721  1.0000
  C   C18       1.0  0.3904407615051184  0.3709800464711249  0.5914944315060138  1.0000
  C   C19       1.0  0.7073759868412636  0.5844417263605094  0.4730191050898255  1.0000
  C   C20       1.0  0.2926248269653443  0.41555873283946443  0.5269806349802905  1.0000
  C   C21       1.0  0.8123802164470676  0.4823129032506086  0.4435468843311836  1.0000
  C   C22       1.0  0.18762067243635985  0.5176865470270541  0.5564531177317701  1.0000
  C   C23       1.0  0.49950464245279147  0.7374597948271386  0.4361498614742345  1.0000
  C   C24       1.0  0.5004961756234821  0.26254066479374666  0.5638481889324819  1.0000
  C   C25       1.0  0.40924762516154806  0.14723907862122593  0.061631718404221644  1.0000
  C   C26       1.0  0.5907509487287967  0.8527623844190091  0.9383684762655163  1.0000
  C   C27       1.0  0.5125163696022382  0.23067405053981818  0.9638407154519084  1.0000
  C   C28       1.0  0.4874834325918015  0.7693253967759048  0.03616133457067857  1.0000
  C   C29       1.0  0.5777647770533676  0.316886880422146  0.9936593287162547  1.0000
  C   C30       1.0  0.42223379470215155  0.683114582407633  0.006341710785179109  1.0000
  C   C31       1.0  0.5388244207446319  0.31076876869278175  0.12252068401020465  1.0000
  C   C32       1.0  0.46117639306197594  0.6892316905071921  0.8774790560599112  1.0000
  C   C33       1.0  0.4368322718798226  0.22283751006656158  0.2150075899611607  1.0000
  C   C34       1.0  0.5631663041453551  0.7771639531841286  0.7849917598768738  1.0000
  C   C35       1.0  0.6823986285247869  0.4091781142202888  0.8927678700976143  1.0000
  C   C36       1.0  0.3175999475003908  0.5908233490304011  0.10723147974042033  1.0000
  N   N1        1.0  0.15549923261650633  0.9271179312407868  0.14610634063991754  1.0000
  N   N2        1.0  0.8445005009052053  0.07288252562861429  0.8538929128947285  1.0000
  N   N3        1.0  0.124998458513808  0.926756243807823  0.2660271558564274  1.0000
  N   N4        1.0  0.875000192588189  0.07324421052055638  0.7339724559744452  1.0000
  N   N5        1.0  0.012427054393526807  0.8520536500973394  0.34581205362876205  1.0000
  N   N6        1.0  0.9875726769933593  0.1479468065616132  0.6541880447375871  1.0000
  N   N7        1.0  0.9676074805350866  0.8020513556335299  0.2789648075195289  1.0000
  N   N8        1.0  0.03239333540635411  0.19794910377689937  0.7210340877188838  1.0000
  N   N9        1.0  0.012326134830019007  0.7488435833457672  0.8529422794714274  1.0000
  N   N10       1.0  0.9876727372327565  0.25115384379475353  0.14705980800136573  1.0000
  N   N11       1.0  0.4232513097710182  0.8045610368123094  0.3609391788400128  1.0000
  N   N12       1.0  0.5767484988275131  0.19543841113478064  0.6390603366874641  1.0000
  N   N13       1.0  0.3346080429843639  0.8913151738653154  0.42304849129575206  1.0000
  N   N14       1.0  0.6653917656141604  0.10868427408177439  0.5769510242317323  1.0000
  N   N15       1.0  0.3550550747665753  0.8788978569663184  0.531445505868106  1.0000
  N   N16       1.0  0.6449458162516779  0.12110159352179288  0.46855365136315175  1.0000
  N   N17       1.0  0.4590345691725447  0.782561093697012  0.541214325415403  1.0000
  N   N18       1.0  0.5409673270537853  0.21743936804398337  0.4587850563584862  1.0000
  N   N19       1.0  0.8258483197534758  0.42480355758785754  0.3523914453281733  1.0000
  N   N20       1.0  0.174153576472861  0.5751969041531381  0.6476079364457091  1.0000
  N   N21       1.0  0.7616294488666143  0.4873029611560043  0.9102575691203749  1.0000
  N   N22       1.0  0.23837020744345244  0.512698504425252  0.08974226725313628  1.0000
  N   N23       1.0  0.8387522495605142  0.5538705663758775  0.791313333460479  1.0000
  N   N24       1.0  0.1612474818263721  0.4461298902830748  0.2086867649058703  1.0000
  N   N25       1.0  0.8086374982950988  0.5186132075895742  0.7051559564702427  1.0000
  N   N26       1.0  0.1913622352266202  0.4813872492798267  0.2948432970644034  1.0000
  N   N27       1.0  0.7104384198135493  0.4277778681401898  0.7670340508513358  1.0000
  N   N28       1.0  0.2895612364965245  0.5722235974410735  0.23296578552217526  1.0000
  N   N29       1.0  0.3710409445494136  0.1435029519132414  0.18541693909214274  1.0000
  N   N30       1.0  0.6289577065525763  0.8564975024151378  0.8145826727387299  1.0000
  O   O1        1.0  0.06485939794493592  0.15417521692533848  0.4023849212463586  1.0000
  O   O2        1.0  0.9351414909384915  0.8458242333523244  0.5976150808165952  1.0000
