data_image0
_chemical_formula_structural       Zn2H4C32I8N4O12
_chemical_formula_sum              "Zn2 H4 C32 I8 N4 O12"
_cell_length_a       8.092391705193418
_cell_length_b       9.276573509852442
_cell_length_c       23.723469169460227
_cell_angle_alpha    90.00089232935254
_cell_angle_beta     89.9981863916747
_cell_angle_gamma    91.75720711075371

_space_group_name_H-M_alt    "P 1"
_space_group_IT_number       1

loop_
  _space_group_symop_operation_xyz
  'x, y, z'

loop_
  _atom_site_type_symbol
  _atom_site_label
  _atom_site_symmetry_multiplicity
  _atom_site_fract_x
  _atom_site_fract_y
  _atom_site_fract_z
  _atom_site_occupancy
  Zn  Zn1       1.0  0.6614644297970713  0.5085470400391326  0.5000000369337841  1.0000
  Zn  Zn2       1.0  0.3385626079828866  0.4914179000227036  0.5000047605104285  1.0000
  H   H1        1.0  0.8845632243022264  0.6489638415082266  0.9465251941402144  1.0000
  H   H2        1.0  0.11544486569946599  0.351052571350479  0.05347623136038491  1.0000
  H   H3        1.0  0.11544224612587327  0.35102635825835177  0.9465374380655052  1.0000
  H   H4        1.0  0.8845679349526278  0.6489663671193211  0.053470310195606906  1.0000
  C   C1        1.0  0.5059798452370288  0.7790691862124246  0.499989269322846  1.0000
  C   C2        1.0  0.4940532194481121  0.22088613824667644  0.4999885505633942  1.0000
  C   C3        1.0  0.49999905892452995  0.5000381617995088  0.20885294892166686  1.0000
  C   C4        1.0  0.5000108557939456  0.5000149326716821  0.791150162800115  1.0000
  C   C5        1.0  0.5000159698004508  0.499991603252141  0.3903871067288805  1.0000
  C   C6        1.0  0.5000025354874323  0.49998075947537735  0.6096231705740323  1.0000
  C   C7        1.0  0.5552758443495022  0.3790782806170369  0.2971813284264115  1.0000
  C   C8        1.0  0.4447111440728976  0.6209324349650699  0.7028171464538104  1.0000
  C   C9        1.0  0.4447385113031218  0.6209664931567642  0.29719097378264087  1.0000
  C   C10       1.0  0.5552936543688746  0.3790869249095221  0.7028188822481312  1.0000
  C   C11       1.0  0.500008244044011  0.5000174635431092  0.32659416030866595  1.0000
  C   C12       1.0  0.5000011511759226  0.5000032807028629  0.6734106373916832  1.0000
  C   C13       1.0  0.3574317536079121  0.44113346104742834  0.8783522208395455  1.0000
  C   C14       1.0  0.6425470142881692  0.5589040872772202  0.12164667568654863  1.0000
  C   C15       1.0  0.6425502419875074  0.5589114421999141  0.8783513497396315  1.0000
  C   C16       1.0  0.3574404475849917  0.44117587168065586  0.1216538697825911  1.0000
  C   C17       1.0  0.6409037295655294  0.5553782020102103  0.9407490457291986  1.0000
  C   C18       1.0  0.35901319721872227  0.4448104580283781  0.0592561743863484  1.0000
  C   C19       1.0  0.3590214370600719  0.44479716226392424  0.9407503544564976  1.0000
  C   C20       1.0  0.6408989909521379  0.5553786115001526  0.0592485427490104  1.0000
  C   C21       1.0  0.4999439244713173  0.5001234361407892  0.9699427325144897  1.0000
  C   C22       1.0  0.49993324710828807  0.5001293312625277  0.0300586942435785  1.0000
  C   C23       1.0  0.7781426683331175  0.6076689334501989  0.9703958264609939  1.0000
  C   C24       1.0  0.22181983163947896  0.39243306377603904  0.029603913395320106  1.0000
  C   C25       1.0  0.22182411205587726  0.3924173868711731  0.9704013930974755  1.0000
  C   C26       1.0  0.7781492884644621  0.6076707536808071  0.029599611245736002  1.0000
  C   C27       1.0  0.5002927162222548  0.934595851615917  0.49996624429856246  1.0000
  C   C28       1.0  0.4997256729856685  0.06536896160329057  0.4999664726514794  1.0000
  C   C29       1.0  0.5571907582286783  0.37963563123102506  0.23797033858166833  1.0000
  C   C30       1.0  0.44278184620310407  0.6204029055383058  0.762026028825872  1.0000
  C   C31       1.0  0.442820603422163  0.6204277641865585  0.23798083479161392  1.0000
  C   C32       1.0  0.5572434951529885  0.37961318110941267  0.7620328148075259  1.0000
  I   I1        1.0  0.6441708960360727  0.20531526318613652  0.1913687519287421  1.0000
  I   I2        1.0  0.35575821716514605  0.7947086260207782  0.8086208711832159  1.0000
  I   I3        1.0  0.3558406846127937  0.7947628756961574  0.19139284686923472  1.0000
  I   I4        1.0  0.644285967717458  0.20532533692662003  0.8086229103263636  1.0000
  I   I5        1.0  0.6271368784123793  0.19726565206540406  0.3429688625832129  1.0000
  I   I6        1.0  0.3727830621077643  0.8027257610811701  0.6570203389158848  1.0000
  I   I7        1.0  0.3728600221541782  0.8027619469662138  0.3429967047114744  1.0000
  I   I8        1.0  0.6271553972212941  0.1972491822778934  0.6570228462584424  1.0000
  N   N1        1.0  0.49999461780702587  0.50002209272602  0.8515536388664627  1.0000
  N   N2        1.0  0.4999897173869455  0.5000543479442641  0.1484562173945463  1.0000
  N   N3        1.0  0.06821520221644309  0.49731968274500066  0.5000039261956744  1.0000
  N   N4        1.0  0.931809553628028  0.5026570831307636  0.5000008712983403  1.0000
  O   O1        1.0  0.6493118108613487  0.7266264371889545  0.4999945406005395  1.0000
  O   O2        1.0  0.3507289298724671  0.2733451703974977  0.4999950819793356  1.0000
  O   O3        1.0  0.632800730745572  0.29019227857379787  0.5000001778397234  1.0000
  O   O4        1.0  0.36723107896584384  0.70976194989322  0.4999999827924526  1.0000
  O   O5        1.0  0.6398005169974894  0.5159035340782194  0.4143562478316625  1.0000
  O   O6        1.0  0.36022906235612595  0.4840657553065737  0.5856493926674987  1.0000
  O   O7        1.0  0.6397744657179061  0.5159100981139985  0.5856461200902956  1.0000
  O   O8        1.0  0.36022943065034246  0.48407606732894926  0.4143599420723377  1.0000
  O   O9        1.0  0.2416728165373101  0.3908551887732869  0.8505377441103265  1.0000
  O   O10       1.0  0.7583730241845785  0.6091261959039043  0.1494607304829785  1.0000
  O   O11       1.0  0.7583601209853368  0.6091313839410261  0.850535682342276  1.0000
  O   O12       1.0  0.24165420189896736  0.3908883538031842  0.149465743151211  1.0000
