data_image0
_chemical_formula_structural       Na4H28C20O16
_chemical_formula_sum              "Na4 H28 C20 O16"
_cell_length_a       5.2485564456085605
_cell_length_b       6.909879726823086
_cell_length_c       18.545654825103075
_cell_angle_alpha    90.0026811133806
_cell_angle_beta     90.00126131773675
_cell_angle_gamma    110.2885894365455

_space_group_name_H-M_alt    "P 1"
_space_group_IT_number       1

loop_
  _space_group_symop_operation_xyz
  'x, y, z'

loop_
  _atom_site_type_symbol
  _atom_site_label
  _atom_site_symmetry_multiplicity
  _atom_site_fract_x
  _atom_site_fract_y
  _atom_site_fract_z
  _atom_site_occupancy
  Na  Na1       1.0  0.21236094314730278  0.7175833556512216  0.5476741365073821  1.0000
  Na  Na2       1.0  0.28765771338157725  0.7824239841194115  0.047678713373457506  1.0000
  Na  Na3       1.0  0.7876801457964362  0.2824110202497252  0.4523224474943106  1.0000
  Na  Na4       1.0  0.7123299104130469  0.21759613452106663  0.9523194865378528  1.0000
  H   H1        1.0  0.04196882752023606  0.7899618360905976  0.7270902881943826  1.0000
  H   H2        1.0  0.4580091118736078  0.71002914752075  0.22708246163649903  1.0000
  H   H3        1.0  0.95806140030097  0.21000329438261636  0.2729116878768352  1.0000
  H   H4        1.0  0.5419348228399983  0.2899916075704283  0.7729146586390955  1.0000
  H   H5        1.0  0.7975430141414038  0.5462307904126861  0.7284426321008937  1.0000
  H   H6        1.0  0.7024500065879238  0.9537541375011641  0.2284463158620653  1.0000
  H   H7        1.0  0.20247172170212474  0.45374405370041143  0.2715625787101957  1.0000
  H   H8        1.0  0.29751032666768407  0.04626449556023719  0.771557814615683  1.0000
  H   H9        1.0  0.4890878744569633  0.6625211185639445  0.805909917113901  1.0000
  H   H10       1.0  0.010896929130986159  0.8374531255151892  0.3059170134845814  1.0000
  H   H11       1.0  0.5109442737146138  0.337469754554597  0.1940899019318962  1.0000
  H   H12       1.0  0.9890574854750936  0.1625289881261907  0.6940757937613355  1.0000
  H   H13       1.0  0.7097157729622338  0.9197383853125485  0.8006283032717363  1.0000
  H   H14       1.0  0.790237633314682  0.5802343303320184  0.3006249185789116  1.0000
  H   H15       1.0  0.2903029663697367  0.08024723206317928  0.19936504493311702  1.0000
  H   H16       1.0  0.2096987698212658  0.41975585060868076  0.6993646528339995  1.0000
  H   H17       1.0  0.8753243373360461  0.5669639276956603  0.862705154236693  1.0000
  H   H18       1.0  0.6246661238012264  0.9330399542687643  0.362707610358818  1.0000
  H   H19       1.0  0.12469988075794446  0.43304159576800316  0.1373005957618787  1.0000
  H   H20       1.0  0.3753187725716955  0.06695739477213891  0.6372975994167263  1.0000
  H   H21       1.0  0.07884910732184376  0.8259798465076285  0.8624558372915914  1.0000
  H   H22       1.0  0.4211340856321186  0.6740217989952768  0.3624520291229558  1.0000
  H   H23       1.0  0.9211759176226477  0.17402270405973744  0.13754613828788825  1.0000
  H   H24       1.0  0.578846676774475  0.3259798500207367  0.6375580333869308  1.0000
  H   H25       1.0  0.7490923577486015  0.7995163936813086  0.5531854859261003  1.0000
  H   H26       1.0  0.7508926190090364  0.7004261690216681  0.05319062846688641  1.0000
  H   H27       1.0  0.25096294666442276  0.20048026521560294  0.4468148729171802  1.0000
  H   H28       1.0  0.24907587771777168  0.2995733027962615  0.9468129632051117  1.0000
  C   C1        1.0  0.6955186190666397  0.7562975902051149  0.6624051362692784  1.0000
  C   C2        1.0  0.8044648512903622  0.7436836298076342  0.16240219811425763  1.0000
  C   C3        1.0  0.3045228354047466  0.2436772004388743  0.3375957616034171  1.0000
  C   C4        1.0  0.195481604019804  0.25633877087686596  0.8375960006355926  1.0000
  C   C5        1.0  0.8211136382946832  0.7111209461889985  0.7306104552016564  1.0000
  C   C6        1.0  0.6788631359953782  0.788859221045783  0.23061050441351233  1.0000
  C   C7        1.0  0.17891474276314057  0.28885464075099776  0.2693920599311284  1.0000
  C   C8        1.0  0.32108046097356174  0.21115548357578004  0.7693898511681285  1.0000
  C   C9        1.0  0.7042494571646714  0.7595024889921903  0.8008307657311633  1.0000
  C   C10       1.0  0.7957217447572373  0.7404772903530269  0.3008354913035873  1.0000
  C   C11       1.0  0.2957762719354236  0.24048652619002553  0.19916797473436534  1.0000
  C   C12       1.0  0.20422359672182464  0.2595163950140175  0.6991627076821844  1.0000
  C   C13       1.0  0.8644881012526185  0.7228389484233374  0.8647766679652734  1.0000
  C   C14       1.0  0.6354964691938035  0.7771622172865944  0.3647826203566212  1.0000
  C   C15       1.0  0.13553611783506617  0.2771665743678041  0.13522422914454782  1.0000
  C   C16       1.0  0.3644825797979577  0.22283481301562347  0.635220971630325  1.0000
  C   C17       1.0  0.761517644716207  0.7529797599812936  0.9385676412865677  1.0000
  C   C18       1.0  0.7385182681653929  0.7470146283564033  0.4385658397200274  1.0000
  C   C19       1.0  0.23851275938689298  0.2470321320928761  0.061432177515655405  1.0000
  C   C20       1.0  0.2614978175526943  0.2529844183824109  0.5614318219654919  1.0000
  O   O1        1.0  0.8495513907934722  0.7734788459009607  0.6047779533285151  1.0000
  O   O2        1.0  0.6504286837308229  0.7264291300316971  0.10477273371960653  1.0000
  O   O3        1.0  0.15049349304700138  0.22650518045195156  0.3952234837632318  1.0000
  O   O4        1.0  0.34952640404597457  0.2735650861181398  0.895224926321312  1.0000
  O   O5        1.0  0.4663839077110196  0.7712542221589942  0.6598093651439356  1.0000
  O   O6        1.0  0.033639036661362795  0.7287959818473837  0.15981866136917947  1.0000
  O   O7        1.0  0.5336572111134998  0.22871451659560188  0.3401845230474266  1.0000
  O   O8        1.0  0.9663196565455862  0.27125423176178026  0.8401784590415177  1.0000
  O   O9        1.0  0.8524406421629748  0.6705886508303605  0.9914113349755168  1.0000
  O   O10       1.0  0.6475351145234497  0.8294092368351966  0.49140727793492545  1.0000
  O   O11       1.0  0.14754217316967566  0.3294236661734758  0.008593335393470602  1.0000
  O   O12       1.0  0.3525088312157649  0.17059283617483348  0.5085946981730417  1.0000
  O   O13       1.0  0.6027974519571301  0.8516279816553406  0.9477375238029069  1.0000
  O   O14       1.0  0.8972170316991495  0.6483830661386136  0.44773017029596224  1.0000
  O   O15       1.0  0.39722868714969195  0.1484032840053047  0.0522628339110724  1.0000
  O   O16       1.0  0.10280856670223668  0.35162102243079113  0.5522626387174017  1.0000
