data_image0
_chemical_formula_structural       Ni2H68C76N20Cl4O8
_chemical_formula_sum              "Ni2 H68 C76 N20 Cl4 O8"
_cell_length_a       7.617107464165106
_cell_length_b       18.11821026504351
_cell_length_c       18.7653854786898
_cell_angle_alpha    89.97316399702054
_cell_angle_beta     90.0018303186419
_cell_angle_gamma    95.76588829515397

_space_group_name_H-M_alt    "P 1"
_space_group_IT_number       1

loop_
  _space_group_symop_operation_xyz
  'x, y, z'

loop_
  _atom_site_type_symbol
  _atom_site_label
  _atom_site_symmetry_multiplicity
  _atom_site_fract_x
  _atom_site_fract_y
  _atom_site_fract_z
  _atom_site_occupancy
  Ni  Ni1       1.0  0.5000048557499425  0.49999889135364106  0.5000005825511522  1.0000
  Ni  Ni2       1.0  0.9999972160868751  0.9999986342167163  1.4294657546999752e-06  1.0000
  H   H1        1.0  0.1759386965433336  0.3859406205251119  0.991262354493266  1.0000
  H   H2        1.0  0.32406081809852333  0.11405724683293529  0.4912509789084965  1.0000
  H   H3        1.0  0.8240654925534018  0.6140560586059962  0.008740409512128601  1.0000
  H   H4        1.0  0.6759331943288842  0.8859461040335788  0.5087485861434191  1.0000
  H   H5        1.0  0.056628715428082885  0.42167357261858024  0.1108574871742718  1.0000
  H   H6        1.0  0.443344986128281  0.07827319622496282  0.6108507888498025  1.0000
  H   H7        1.0  0.9433771949807265  0.5783247694065209  0.889144210673081  1.0000
  H   H8        1.0  0.5566532362196952  0.921731259400282  0.3891487759786046  1.0000
  H   H9        1.0  0.11119520240711722  0.5569969650199271  0.14908803839858115  1.0000
  H   H10       1.0  0.3887452797369022  0.9429308080122428  0.649105059141803  1.0000
  H   H11       1.0  0.8887997136733788  0.4430047205875026  0.850909395452213  1.0000
  H   H12       1.0  0.6112525337912017  0.05707198366581418  0.3508934402689548  1.0000
  H   H13       1.0  0.5726090872606875  0.4699812133183911  0.7931001576519991  1.0000
  H   H14       1.0  0.9274533355825696  0.030060294026412696  0.2930647706656161  1.0000
  H   H15       1.0  0.42739709571714  0.5300182383066812  0.20690100704954523  1.0000
  H   H16       1.0  0.07254366021922463  0.9699391685930296  0.7069363939747932  1.0000
  H   H17       1.0  0.6231374489384862  0.5673710331230027  0.7833493242445118  1.0000
  H   H18       1.0  0.8768711945266645  0.9326481503987903  0.2833977840198828  1.0000
  H   H19       1.0  0.3768766086750972  0.4326284079140592  0.2166566365743706  1.0000
  H   H20       1.0  0.12312358520679821  0.0673529795678078  0.7166033802284986  1.0000
  H   H21       1.0  0.1510848134477243  0.5368611481968486  0.7853505204214174  1.0000
  H   H22       1.0  0.34895371304523326  0.9631523842113622  0.2853837296867853  1.0000
  H   H23       1.0  0.8489306070590815  0.46314384148683974  0.21465011018786842  1.0000
  H   H24       1.0  0.651040248981154  0.0368454169553445  0.7146190339990357  1.0000
  H   H25       1.0  0.965762112557087  0.5272555230409068  0.6725517916590606  1.0000
  H   H26       1.0  0.5342723953588758  0.9727247621810307  0.17258569660531725  1.0000
  H   H27       1.0  0.03425199551523411  0.47274946847213084  0.3274477731492881  1.0000
  H   H28       1.0  0.46572197552585953  0.0272747034503027  0.8274160009137292  1.0000
  H   H29       1.0  0.11405891273329864  0.5116819333377902  0.5570478580215551  1.0000
  H   H30       1.0  0.3859378697983401  0.9882710381777927  0.057074403419122205  1.0000
  H   H31       1.0  0.8859621161034142  0.48831916560438066  0.44295170771317793  1.0000
  H   H32       1.0  0.6140570461955832  0.011730646265391397  0.9429278264966147  1.0000
  H   H33       1.0  0.5999603177985336  0.5031304737723445  0.6529331580874286  1.0000
  H   H34       1.0  0.9001014413642421  0.9968337872239342  0.15293415640109495  1.0000
  H   H35       1.0  0.40005152379481507  0.4968706352586808  0.3470701378588999  1.0000
  H   H36       1.0  0.09989120823727399  0.0031640159014827  0.8470670085876792  1.0000
  H   H37       1.0  0.36666475591812997  0.8042739611437995  0.09263084014605742  1.0000
  H   H38       1.0  0.13328547309869512  0.6956484735522321  0.592648507957911  1.0000
  H   H39       1.0  0.6333359048873959  0.19572439000975084  0.9073591339520636  1.0000
  H   H40       1.0  0.8667140615972001  0.30435597907941053  0.40735691873637603  1.0000
  H   H41       1.0  0.3680903504287585  0.8267658463257419  0.0002508815462505002  1.0000
  H   H42       1.0  0.13190046521155807  0.6732568820201692  0.5002776379461622  1.0000
  H   H43       1.0  0.6319008506220741  0.17323140609286009  0.999740158532653  1.0000
  H   H44       1.0  0.8681003819284427  0.32674756891149315  0.4997283216529598  1.0000
  H   H45       1.0  0.672423496807987  0.7009098442416642  0.08888118222942153  1.0000
  H   H46       1.0  0.8275092846316596  0.799037392449847  0.5888928398806075  1.0000
  H   H47       1.0  0.32757109648519384  0.29908518452385374  0.9111098583751062  1.0000
  H   H48       1.0  0.17248363739461328  0.20096151833512016  0.41111578540392213  1.0000
  H   H49       1.0  0.9990024797966441  0.7355152530635536  0.09386972582595382  1.0000
  H   H50       1.0  0.5009196432686309  0.7644029456185423  0.5938545383152984  1.0000
  H   H51       1.0  0.000990664647701989  0.2644792209849598  0.9061277096479472  1.0000
  H   H52       1.0  0.4990707398635267  0.2355909751542242  0.40614982491534596  1.0000
  H   H53       1.0  0.12052785646145737  0.8598520160329742  0.04655739939665441  1.0000
  H   H54       1.0  0.3794533340514404  0.6401105199168028  0.5465303858923323  1.0000
  H   H55       1.0  0.8794712191001041  0.14014522411592623  0.9534453644489534  1.0000
  H   H56       1.0  0.6205466451439676  0.3598850547142973  0.4534713125443659  1.0000
  H   H57       1.0  0.6218656976321384  0.9180445358533476  0.0013226523567553001  1.0000
  H   H58       1.0  0.8781425807405158  0.5819617755568556  0.5013155945930947  1.0000
  H   H59       1.0  0.3781335143341594  0.08195326071255239  0.9986731837146369  1.0000
  H   H60       1.0  0.12186573237887188  0.418041003038752  0.4986850364719474  1.0000
  H   H61       1.0  0.44233425014813577  0.5850524519757484  0.8831801110467126  1.0000
  H   H62       1.0  0.057720712808588745  0.9149734865665592  0.3832239830779472  1.0000
  H   H63       1.0  0.5576684902055576  0.4149436738613161  0.11682318597090814  1.0000
  H   H64       1.0  0.942274612034069  0.0850298622118828  0.6167777135671175  1.0000
  H   H65       1.0  0.39684851785181496  0.6901106072072095  0.9802043792609256  1.0000
  H   H66       1.0  0.10318636965566698  0.8099076443794644  0.4802447630673969  1.0000
  H   H67       1.0  0.6031539500675082  0.30988441084094376  0.019791990357042304  1.0000
  H   H68       1.0  0.8967994954323116  0.19009460566403652  0.5197579995584577  1.0000
  C   C1        1.0  0.3514614842297377  0.477189634327452  0.8968866165095619  1.0000
  C   C2        1.0  0.14854546033087954  0.022849052728162195  0.396879180983298  1.0000
  C   C3        1.0  0.6485386313030831  0.5228064958151108  0.10311188442565113  1.0000
  C   C4        1.0  0.8514488246655603  0.9771554077383157  0.6031198509228091  1.0000
  C   C5        1.0  0.2832694411408311  0.49779780375001786  0.9687169673930428  1.0000
  C   C6        1.0  0.2167264547592396  0.0022143383540935997  0.46872934166172797  1.0000
  C   C7        1.0  0.7167334355502746  0.5021988775985093  0.03128313212309311  1.0000
  C   C8        1.0  0.783269142700533  0.9977901206711125  0.5312691573570021  1.0000
  C   C9        1.0  0.1936511113294443  0.4426871002685289  0.011080532903022801  1.0000
  C   C10       1.0  0.30634881158428584  0.05729864781208959  0.5110832003674234  1.0000
  C   C11       1.0  0.8063532140758554  0.5573101339859575  0.9889206322892082  1.0000
  C   C12       1.0  0.6936480983388263  0.9427058097718586  0.4889147657639371  1.0000
  C   C13       1.0  0.12926496378487679  0.46308241342676837  0.07693879000427731  1.0000
  C   C14       1.0  0.3707514508870275  0.0368680073834469  0.5769456703761691  1.0000
  C   C15       1.0  0.8707372818221799  0.5369170427808143  0.9230629075671647  1.0000
  C   C16       1.0  0.6292482202039906  0.9631370015358346  0.4230533614400117  1.0000
  C   C17       1.0  0.15813587618250577  0.5369445495364431  0.09849013714084981  1.0000
  C   C18       1.0  0.3418099965073438  0.9629955767138015  0.5985075916217256  1.0000
  C   C19       1.0  0.8418649207488329  0.4630543542826258  0.9015083631700948  1.0000
  C   C20       1.0  0.6581912595775706  0.037010539846726  0.40149250574568657  1.0000
  C   C21       1.0  0.2515293770913089  0.5879583006003984  0.052959721722366716  1.0000
  C   C22       1.0  0.24845737618620228  0.9120033253651839  0.5529916421701843  1.0000
  C   C23       1.0  0.7484714198496434  0.4120406033480322  0.9470382456924682  1.0000
  C   C24       1.0  0.7515386300742078  0.0880027973484871  0.4470089880583999  1.0000
  C   C25       1.0  0.28823187250331733  0.6674759965065037  0.07690147466538383  1.0000
  C   C26       1.0  0.21171333010773447  0.8324740493792505  0.5769540513800636  1.0000
  C   C27       1.0  0.7117596010492235  0.3325223646065325  0.923092762540442  1.0000
  C   C28       1.0  0.788282676114207  0.16753207281698218  0.42304871043294423  1.0000
  C   C29       1.0  0.5146431888927766  0.523260844076482  0.7910238059559023  1.0000
  C   C30       1.0  0.9853623813514004  0.9767646128721023  0.2910397998635404  1.0000
  C   C31       1.0  0.485367067706683  0.47673915731328986  0.20897842443919504  1.0000
  C   C32       1.0  0.014633438295611301  0.023235406311989896  0.708960298851075  1.0000
  C   C33       1.0  0.39017842845557027  0.5212687876906728  0.7278752780728867  1.0000
  C   C34       1.0  0.10988653472946912  0.9787382161747474  0.22790849417535955  1.0000
  C   C35       1.0  0.609838935540921  0.478733424916534  0.2721264189703518  1.0000
  C   C36       1.0  0.8901104610819388  0.0212612465740563  0.7720921375689473  1.0000
  C   C37       1.0  0.20998753171772927  0.5282001286147205  0.7333928274835559  1.0000
  C   C38       1.0  0.29007586962561754  0.9717986507737492  0.23341923089716948  1.0000
  C   C39       1.0  0.7900332748644273  0.47180540926304815  0.2666088688280155  1.0000
  C   C40       1.0  0.7099167799662781  0.0281991522222995  0.766582466987714  1.0000
  C   C41       1.0  0.10773856239644176  0.5235675723996207  0.6716561486459441  1.0000
  C   C42       1.0  0.39232172300137336  0.9764073607745515  0.17168549315903195  1.0000
  C   C43       1.0  0.8922802503238572  0.4764351932429064  0.3283460811772799  1.0000
  C   C44       1.0  0.6076727841822986  0.0235926598508058  0.8283151384429531  1.0000
  C   C45       1.0  0.1888984425161908  0.5130247708122084  0.6064848002761567  1.0000
  C   C46       1.0  0.3111578614093062  0.9869346442213996  0.10651472816901023  1.0000
  C   C47       1.0  0.811118103811701  0.48697411351255226  0.39351636462010486  1.0000
  C   C48       1.0  0.6888354696099698  0.013065932839246798  0.8934853704032836  1.0000
  C   C49       1.0  0.46026529268318217  0.5101737970986805  0.660413063945569  1.0000
  C   C50       1.0  0.039803223088952705  0.9898010383106312  0.16043396880325395  1.0000
  C   C51       1.0  0.5397493101069273  0.48982786365575487  0.33958969899727265  1.0000
  C   C52       1.0  0.9601882503481677  0.010197321250068097  0.8395666631558216  1.0000
  C   C53       1.0  0.42304362601786477  0.7913194009873051  0.04060269610605621  1.0000
  C   C54       1.0  0.07691751100685447  0.7086543613608498  0.5406265501467902  1.0000
  C   C55       1.0  0.5769525523076808  0.2086767359369048  0.9593872784652862  1.0000
  C   C56       1.0  0.9230816148403134  0.291348426935528  0.45937940981816194  1.0000
  C   C57       1.0  0.6216138024107707  0.806882998679356  0.04312529783874201  1.0000
  C   C58       1.0  0.8783578239521647  0.6930775314410839  0.5431296824293385  1.0000
  C   C59       1.0  0.3783851369961226  0.19311368841593432  0.9568705384823634  1.0000
  C   C60       1.0  0.1216407567954292  0.306923038172812  0.456875212242828  1.0000
  C   C61       1.0  0.7288620901002785  0.7550355419827426  0.06977241174985242  1.0000
  C   C62       1.0  0.7711388110773001  0.7449175626472878  0.5697812371519292  1.0000
  C   C63       1.0  0.2711365767952927  0.24496003628875931  0.9302207603404399  1.0000
  C   C64       1.0  0.2288547924821387  0.2550841236252381  0.43021992696286315  1.0000
  C   C65       1.0  0.9107613082926562  0.7735362752722281  0.07194626026996083  1.0000
  C   C66       1.0  0.5892262540467499  0.7264152409530952  0.5719302418695662  1.0000
  C   C67       1.0  0.08923500619717828  0.22646041483496046  0.9280501089297816  1.0000
  C   C68       1.0  0.4107690204429701  0.2735825587723468  0.4280719889288848  1.0000
  C   C69       1.0  0.9795868353065484  0.8429425617508174  0.04746730931116622  1.0000
  C   C70       1.0  0.5203945032132892  0.657018627255354  0.5474541597422871  1.0000
  C   C71       1.0  0.02041341651559488  0.15705412325640816  0.9525306586030879  1.0000
  C   C72       1.0  0.47960470866644306  0.34297916814629287  0.45254647239404755  1.0000
  C   C73       1.0  0.7018777281046269  0.8757262964982502  0.020729638242372107  1.0000
  C   C74       1.0  0.7980942624985445  0.6242539890638312  0.5207199684349819  1.0000
  C   C75       1.0  0.29812397247978595  0.12427094206173452  0.9792667308674513  1.0000
  C   C76       1.0  0.20190839195723234  0.37574713147901645  0.4792811958657951  1.0000
  N   N1        1.0  0.31160204784870155  0.5690467826007435  0.9889308012904153  1.0000
  N   N2        1.0  0.18839639249104317  0.9309484120863445  0.4889584358874119  1.0000
  N   N3        1.0  0.6883982039734347  0.43094990240648196  0.011067166623838902  1.0000
  N   N4        1.0  0.8115980287658646  0.0690566028567119  0.5110416616860434  1.0000
  N   N5        1.0  0.4339231337037148  0.5344765442408317  0.8593939797684129  1.0000
  N   N6        1.0  0.0661055355289902  0.9655626444542519  0.3594182284919399  1.0000
  N   N7        1.0  0.5660811917015849  0.46552069001365487  0.14060718542381076  1.0000
  N   N8        1.0  0.933888204329392  0.03443959681229809  0.6405818697057912  1.0000
  N   N9        1.0  0.3630388627848262  0.5063676752555467  0.6005610832824858  1.0000
  N   N10       1.0  0.13704566084194164  0.9935857026762561  0.10059589722950343  1.0000
  N   N11       1.0  0.6369794048262705  0.49363287157513  0.3994406141440552  1.0000
  N   N12       1.0  0.8629446364307826  0.0064132133197319  0.8994042016998879  1.0000
  N   N13       1.0  0.3655227987344816  0.7138922252596629  0.026956421562289303  1.0000
  N   N14       1.0  0.13446526616032628  0.7860942289911748  0.5270034640203749  1.0000
  N   N15       1.0  0.6344670898241631  0.2861050282121198  0.9730367500923052  1.0000
  N   N16       1.0  0.8655301949331785  0.2139096741344915  0.47299983118814753  1.0000
  N   N17       1.0  0.8773761054583744  0.8938872904808689  0.023038878508195606  1.0000
  N   N18       1.0  0.6225789474972813  0.6060713647801279  0.523021349806861  1.0000
  N   N19       1.0  0.1226245551740206  0.10611105834417599  0.97696068771981  1.0000
  N   N20       1.0  0.37742302554074314  0.39392698182748387  0.47698088091040375  1.0000
  Cl  Cl1       1.0  0.743026671563868  0.44423278163318963  0.5589141769725147  1.0000
  Cl  Cl2       1.0  0.7566179107343416  0.055806381023614876  0.05897684937097132  1.0000
  Cl  Cl3       1.0  0.25698200005131616  0.5557661122446832  0.44108645497524185  1.0000
  Cl  Cl4       1.0  0.24337211397897096  0.9441914255017704  0.9410232498081259  1.0000
  O   O1        1.0  0.3327215225942979  0.4124702382316769  0.8747145695975006  1.0000
  O   O2        1.0  0.1672219629399549  0.0875848462027307  0.3746785662714701  1.0000
  O   O3        1.0  0.66728764382524  0.5875253260518534  0.1252844644197992  1.0000
  O   O4        1.0  0.8327681121359091  0.9124185095050236  0.6253204658581382  1.0000
  O   O5        1.0  0.2461650306546517  0.6865457485050896  0.13750635224329244  1.0000
  O   O6        1.0  0.2537064805825934  0.8133777315870672  0.6375675824987115  1.0000
  O   O7        1.0  0.7538155848011812  0.313456510278769  0.8624862853216374  1.0000
  O   O8        1.0  0.7463013377420608  0.18662837673225846  0.36243411360068484  1.0000
