data_image0
_chemical_formula_structural       Cd4H36C52N4O24F16
_chemical_formula_sum              "Cd4 H36 C52 N4 O24 F16"
_cell_length_a       6.133277105006862
_cell_length_b       7.865268431056709
_cell_length_c       30.202454088190407
_cell_angle_alpha    89.99959455075411
_cell_angle_beta     90.00008348437323
_cell_angle_gamma    89.99985604476664

_space_group_name_H-M_alt    "P 1"
_space_group_IT_number       1

loop_
  _space_group_symop_operation_xyz
  'x, y, z'

loop_
  _atom_site_type_symbol
  _atom_site_label
  _atom_site_symmetry_multiplicity
  _atom_site_fract_x
  _atom_site_fract_y
  _atom_site_fract_z
  _atom_site_occupancy
  Cd  Cd1       1.0  0.11782329343309066  0.3434539411320828  0.3006269234235361  1.0000
  Cd  Cd2       1.0  0.3821872390196288  0.6565450112804925  0.800624452066323  1.0000
  Cd  Cd3       1.0  0.6178284329965817  0.15654793765397565  0.6993722574831763  1.0000
  Cd  Cd4       1.0  0.8821818870115689  0.8434616240509245  0.1993765248240109  1.0000
  H   H1        1.0  0.8313020045966507  0.25445320769556196  0.3866247658455748  1.0000
  H   H2        1.0  0.6687014289986377  0.74553227263349  0.8866290142240913  1.0000
  H   H3        1.0  0.3313074403884426  0.24554188722390796  0.6133721641983811  1.0000
  H   H4        1.0  0.16870345670383805  0.754462075402394  0.1133728891501349  1.0000
  H   H5        1.0  0.8258923743588226  0.30320950421671  0.46914185500360617  1.0000
  H   H6        1.0  0.6741132474915686  0.6967737682559164  0.969145865207139  1.0000
  H   H7        1.0  0.32586642768968926  0.19677924446160233  0.5308570599415817  1.0000
  H   H8        1.0  0.17410151993413336  0.8032129404942127  0.0308563709650116  1.0000
  H   H9        1.0  0.13949573821851396  0.4577994891987558  0.5040059883697339  1.0000
  H   H10       1.0  0.3604932237494649  0.5421895999285624  0.0040058461338788  1.0000
  H   H11       1.0  0.6394705157343166  0.04220107489933161  0.4959912127238509  1.0000
  H   H12       1.0  0.8604912654279386  0.9578056360854109  0.9959934684823535  1.0000
  H   H13       1.0  0.4510026289269504  0.5520839585630383  0.4554443321766469  1.0000
  H   H14       1.0  0.04898775423531988  0.4479057658693507  0.9554418158028141  1.0000
  H   H15       1.0  0.9509943892573602  0.9479149107850874  0.5445507064805497  1.0000
  H   H16       1.0  0.5489920579015788  0.05208989348265192  0.04455767466154729  1.0000
  H   H17       1.0  0.42940388186225664  0.49083605103729167  0.37374506481622655  1.0000
  H   H18       1.0  0.07061203623180028  0.5091482308631043  0.8737431028088379  1.0000
  H   H19       1.0  0.9293992096010442  0.009146133642616402  0.6262502404515471  1.0000
  H   H20       1.0  0.5706138770495669  0.9908437705061816  0.1262561210721387  1.0000
  H   H21       1.0  0.667099235057293  0.19023543290519035  0.3042083186788531  1.0000
  H   H22       1.0  0.8329020109132936  0.8097725952568171  0.8042075317927198  1.0000
  H   H23       1.0  0.16710502529842586  0.3097676187822672  0.6957898843544967  1.0000
  H   H24       1.0  0.33290153759332236  0.6902290529755605  0.1957924363789658  1.0000
  H   H25       1.0  0.8541886326245913  0.05588012659113423  0.2954479272711197  1.0000
  H   H26       1.0  0.6458109236900069  0.9441192360859746  0.79544683043688  1.0000
  H   H27       1.0  0.35419731897272283  0.44412636523688326  0.70455198981697  1.0000
  H   H28       1.0  0.14580604222852858  0.5558815148089878  0.20455341027044938  1.0000
  H   H29       1.0  0.4316713507311078  0.6189078201797217  0.2895375497359182  1.0000
  H   H30       1.0  0.06836030262956429  0.3810761719728433  0.7895351644595436  1.0000
  H   H31       1.0  0.9316350953880882  0.8810872735220344  0.7104641048477801  1.0000
  H   H32       1.0  0.56833453835371  0.1189143630299512  0.2104640009699992  1.0000
  H   H33       1.0  0.5031749030599428  0.4505184145985269  0.264007011662919  1.0000
  H   H34       1.0  0.9968325929876651  0.5494728893992545  0.7640080875179578  1.0000
  H   H35       1.0  0.003167112457489899  0.04947225071977361  0.7359921333649169  1.0000
  H   H36       1.0  0.4968266785944733  0.9505246168074141  0.23599391856399168  1.0000
  C   C1        1.0  0.10165034961838867  0.2723552346808304  0.1156721495098552  1.0000
  C   C2        1.0  0.39832958445296623  0.7276601091713176  0.615671205656362  1.0000
  C   C3        1.0  0.6016662977642964  0.22764667643547656  0.884326695237128  1.0000
  C   C4        1.0  0.8983566856750679  0.772347765264634  0.3843297762907766  1.0000
  C   C5        1.0  0.039518572324560394  0.3280004935128603  0.0737698636120925  1.0000
  C   C6        1.0  0.46044314357086336  0.6719956289365355  0.573767056746938  1.0000
  C   C7        1.0  0.5395333488953539  0.1719951847660468  0.9262292927909144  1.0000
  C   C8        1.0  0.9604719828435221  0.8280108498759874  0.42623526904031905  1.0000
  C   C9        1.0  0.8459209149605011  0.41840226059481017  0.06896599098288189  1.0000
  C   C10       1.0  0.654054284059242  0.5816107903923536  0.5689665683341827  1.0000
  C   C11       1.0  0.34593227635829743  0.08161441906062811  0.9310339235081315  1.0000
  C   C12       1.0  0.15407424627996846  0.9183912153816182  0.4310356615497426  1.0000
  C   C13       1.0  0.720829616866858  0.4562887062339272  0.10620827384164498  1.0000
  C   C14       1.0  0.7791539861659869  0.5437131769979758  0.6062073057558521  1.0000
  C   C15       1.0  0.2208310634004248  0.043714238010153415  0.8937912704055506  1.0000
  C   C16       1.0  0.27918662063219557  0.9562936642941225  0.39379430108650837  1.0000
  C   C17       1.0  0.7850402113034533  0.4052039979938372  0.14838669229933998  1.0000
  C   C18       1.0  0.7149665031381003  0.5948056565401316  0.6483872640203358  1.0000
  C   C19       1.0  0.2850265374373179  0.09481026057947162  0.8516138653309326  1.0000
  C   C20       1.0  0.21497618742926503  0.9052000416741209  0.3516163093210167  1.0000
  C   C21       1.0  0.9766035494259024  0.3078669535841599  0.15291326671203356  1.0000
  C   C22       1.0  0.5233901520123039  0.6921400370575274  0.6529112786497464  1.0000
  C   C23       1.0  0.47659932048085796  0.1921405649138919  0.8470863575925873  1.0000
  C   C24       1.0  0.023413156497596795  0.807860958563282  0.34709024813714956  1.0000
  C   C25       1.0  0.05258553917720119  0.2507833952592762  0.19829094500025227  1.0000
  C   C26       1.0  0.44741777967330876  0.7492386378647851  0.6982909694360372  1.0000
  C   C27       1.0  0.5525975998707365  0.24920844266304712  0.8017078843972314  1.0000
  C   C28       1.0  0.9474378687018253  0.7507691384210418  0.30171069007357687  1.0000
  C   C29       1.0  0.6558646232375478  0.4588749874052311  0.1890339810687394  1.0000
  C   C30       1.0  0.8441293223730068  0.5411323081800392  0.6890327070551904  1.0000
  C   C31       1.0  0.15586062669212444  0.041131900961062215  0.8109665361352825  1.0000
  C   C32       1.0  0.3441369320717768  0.9588680461614915  0.3109689201279622  1.0000
  C   C33       1.0  0.9637988258316804  0.3198937159722631  0.4036773131559669  1.0000
  C   C34       1.0  0.5362030925909947  0.680086222461057  0.9036803181156043  1.0000
  C   C35       1.0  0.4637929397323145  0.18009984261504292  0.5963206516587007  1.0000
  C   C36       1.0  0.0362064289633395  0.8199007619754896  0.0963248547801854  1.0000
  C   C37       1.0  0.9630081693907966  0.34673643757759726  0.4492507368845152  1.0000
  C   C38       1.0  0.5369744916832458  0.6532499100139336  0.949250481318998  1.0000
  C   C39       1.0  0.4630134730818297  0.1532558511802478  0.5507462343888248  1.0000
  C   C40       1.0  0.03698232663536769  0.8467408872060461  0.0507477387380249  1.0000
  C   C41       1.0  0.13886141494702994  0.4315414830706105  0.468573130565062  1.0000
  C   C42       1.0  0.36114536147761805  0.5684453471945973  0.9685741284435989  1.0000
  C   C43       1.0  0.6388542840753713  0.0684539966102591  0.5314253947332402  1.0000
  C   C44       1.0  0.8611451179473943  0.9315460732454781  0.0314275040730649  1.0000
  C   C45       1.0  0.3111785808316724  0.48480622182357547  0.4417431687300351  1.0000
  C   C46       1.0  0.18881823152006658  0.5151787835427015  0.9417409013446018  1.0000
  C   C47       1.0  0.8111783212272666  0.015187641897910002  0.5582557416086615  1.0000
  C   C48       1.0  0.6888245230562898  0.9848155243199915  0.058257035140236696  1.0000
  C   C49       1.0  0.3002642485212234  0.4522599523801816  0.396424363576763  1.0000
  C   C50       1.0  0.1997404097350354  0.5477288083305396  0.8964250185982365  1.0000
  C   C51       1.0  0.8002593011902018  0.047737747432258004  0.6035725567476573  1.0000
  C   C52       1.0  0.6997454798870205  0.9522667490501179  0.10357722559010799  1.0000
  N   N1        1.0  0.12928557019144898  0.3724665283629065  0.3778289026934587  1.0000
  N   N2        1.0  0.37072874505918907  0.6275201870792627  0.8778281375405965  1.0000
  N   N3        1.0  0.6292674531445852  0.12753278472570884  0.6221686263053312  1.0000
  N   N4        1.0  0.870722779580582  0.8724762998726662  0.1221721735745405  1.0000
  O   O1        1.0  0.08704988516325327  0.37252963730474414  0.2254224065849186  1.0000
  O   O2        1.0  0.41293894308619616  0.6274725986653638  0.7254256279393443  1.0000
  O   O3        1.0  0.587060516201461  0.12747484583429983  0.774576433588578  1.0000
  O   O4        1.0  0.912947051272965  0.8725314323020897  0.2745783384717555  1.0000
  O   O5        1.0  0.07764582238156949  0.09645032216100456  0.2063752045966325  1.0000
  O   O6        1.0  0.422375486113573  0.9035384379294698  0.7063742702505494  1.0000
  O   O7        1.0  0.577644297742786  0.4035605368417521  0.7936246259220922  1.0000
  O   O8        1.0  0.9223699202792373  0.5964579457315793  0.2936280436247856  1.0000
  O   O9        1.0  0.6267722755314649  0.6179286402356611  0.19430194266539758  1.0000
  O   O10       1.0  0.8732314883944594  0.38207597155490447  0.6943013064676152  1.0000
  O   O11       1.0  0.12677368918359377  0.8820746915575413  0.8056972987842456  1.0000
  O   O12       1.0  0.37322546441612287  0.1179203109091986  0.3056989476874605  1.0000
  O   O13       1.0  0.5862495780900969  0.3442607003547949  0.214513794968255  1.0000
  O   O14       1.0  0.9137363875328003  0.6557382849838265  0.7145149770880721  1.0000
  O   O15       1.0  0.08626461299783017  0.1557374273223076  0.7854847138624379  1.0000
  O   O16       1.0  0.4137539693684998  0.8442593873264669  0.2854883273822324  1.0000
  O   O17       1.0  0.8226539763796833  0.16818636561092856  0.310003588090261  1.0000
  O   O18       1.0  0.6773505696837104  0.8318113361803869  0.810003373464113  1.0000
  O   O19       1.0  0.3226596578508135  0.331824003526343  0.6899949947270372  1.0000
  O   O20       1.0  0.1773452353880599  0.6681906230662237  0.18999687711458785  1.0000
  O   O21       1.0  0.4391178220403232  0.49322611590253024  0.2922218874465372  1.0000
  O   O22       1.0  0.06089917541223849  0.5067641614891443  0.792220589062957  1.0000
  O   O23       1.0  0.9391039257049693  0.006766220610522602  0.7077773940380325  1.0000
  O   O24       1.0  0.5608901466339445  0.9932329449431379  0.2077799561669025  1.0000
  F   F1        1.0  0.29262670399663177  0.18651304523925924  0.1191031067426778  1.0000
  F   F2        1.0  0.20736466641207568  0.8135047496248763  0.6191022735881547  1.0000
  F   F3        1.0  0.792639097152829  0.3134808555671357  0.8808954666919177  1.0000
  F   F4        1.0  0.7073757108399616  0.6865187635789808  0.38089997296152217  1.0000
  F   F5        1.0  0.16462943368349403  0.29444064574637  0.037916867786698595  1.0000
  F   F6        1.0  0.3353369311943694  0.7055640644391515  0.5379162766503285  1.0000
  F   F7        1.0  0.664649238045612  0.20555605381200343  0.9620806722838464  1.0000
  F   F8        1.0  0.8353563360472688  0.7944452073528651  0.4620856788730521  1.0000
  F   F9        1.0  0.7820250019845217  0.46957594837855515  0.028208649065795992  1.0000
  F   F10       1.0  0.7179401388514249  0.5304203933571046  0.5282096732822409  1.0000
  F   F11       1.0  0.2820384308696617  0.030421787861413904  0.9717899210468132  1.0000
  F   F12       1.0  0.21795858457123524  0.9695878417453799  0.4717925765932306  1.0000
  F   F13       1.0  0.5331565391651408  0.5446648588073302  0.09967723554546379  1.0000
  F   F14       1.0  0.9668482155397906  0.4553537275087863  0.5996764915541348  1.0000
  F   F15       1.0  0.03314531763935949  0.9553488314713264  0.9003223076877447  1.0000
  F   F16       1.0  0.46685610604251326  0.04466143892133799  0.40032577848298695  1.0000
