data_image0
_chemical_formula_structural       K6H24C18N54O12
_chemical_formula_sum              "K6 H24 C18 N54 O12"
_cell_length_a       6.857005023038723
_cell_length_b       11.046950424570289
_cell_length_c       18.1776
_cell_angle_alpha    96.40016300301353
_cell_angle_beta     97.06568029591092
_cell_angle_gamma    95.94078414082183

_space_group_name_H-M_alt    "P 1"
_space_group_IT_number       1

loop_
  _space_group_symop_operation_xyz
  'x, y, z'

loop_
  _atom_site_type_symbol
  _atom_site_label
  _atom_site_symmetry_multiplicity
  _atom_site_fract_x
  _atom_site_fract_y
  _atom_site_fract_z
  _atom_site_occupancy
  K   K1        1.0  0.5605664124640908  0.8158864733855609  0.4310369198889177  1.0000
  K   K2        1.0  0.439431081847232  0.1841033414735307  0.5689646394112629  1.0000
  K   K3        1.0  0.9524162726505025  0.09822398300534019  0.3812401142699925  1.0000
  K   K4        1.0  0.04758233938424179  0.9017639970403479  0.6187580718304062  1.0000
  K   K5        1.0  0.0913050890077116  0.7992080196039382  0.23906100516565226  1.0000
  K   K6        1.0  0.9086826975919493  0.2008001433891238  0.760935845385724  1.0000
  H   H1        1.0  0.7010265713553065  0.7004785455076359  0.9614538368002387  1.0000
  H   H2        1.0  0.2989719160271136  0.2995241130452371  0.0385464381519398  1.0000
  H   H3        1.0  0.9601042277889176  0.7508221555032576  0.9817571727382699  1.0000
  H   H4        1.0  0.0398926141714568  0.2491795856429206  0.018241863460531197  1.0000
  H   H5        1.0  0.1646879269690018  0.7141534097578486  0.8635536381692575  1.0000
  H   H6        1.0  0.8353043305243303  0.2858474139816281  0.1364445730289745  1.0000
  H   H7        1.0  0.4127948105353738  0.6813120847592486  0.8836111083005846  1.0000
  H   H8        1.0  0.5871959774354565  0.3186887389802279  0.1163886850931348  1.0000
  H   H9        1.0  0.8926293257655898  0.9038079791649665  0.0867197575168035  1.0000
  H   H10       1.0  0.10737010344070089  0.0961919271678155  0.9132809248182879  1.0000
  H   H11       1.0  0.7827879412436616  0.9278715568707909  0.9962114191696331  1.0000
  H   H12       1.0  0.217210370239215  0.0721301842753803  0.003789335599471099  1.0000
  H   H13       1.0  0.2730596308086888  0.8751362676117651  0.786323156207267  1.0000
  H   H14       1.0  0.7269335061823482  0.12486914316119879  0.21367815718266306  1.0000
  H   H15       1.0  0.3832816564270871  0.9010135583608445  0.8817501521106976  1.0000
  H   H16       1.0  0.6167135401112416  0.098987265378625  0.1182514962281331  1.0000
  H   H17       1.0  0.2749697382204985  0.39382343019371996  0.4332062101310896  1.0000
  H   H18       1.0  0.7250432684873898  0.6061783109524583  0.5667957766397294  1.0000
  H   H19       1.0  0.3539678390795088  0.5457276313577069  0.4176073447836544  1.0000
  H   H20       1.0  0.6460394654379156  0.4542750271951661  0.5823960899311231  1.0000
  H   H21       1.0  0.41426558582206496  0.3848475230540345  0.31778048490445326  1.0000
  H   H22       1.0  0.5857453613385317  0.6151588051256311  0.6822200666622039  1.0000
  H   H23       1.0  0.15355931915954804  0.33796620593915344  0.2970920529967955  1.0000
  H   H24       1.0  0.8464580961158388  0.6620355352070176  0.7029106884638807  1.0000
  C   C1        1.0  0.6228718903796773  0.8782774681479778  0.7367732043459441  1.0000
  C   C2        1.0  0.3771245997816166  0.12172243818479699  0.263227341614332  1.0000
  C   C3        1.0  0.9904489591954047  0.6142239676996937  0.4114434028749443  1.0000
  C   C4        1.0  0.009557289924764178  0.38577318641298314  0.5885563092098066  1.0000
  C   C5        1.0  0.5389429104788448  0.8541111408918951  0.1351217372328009  1.0000
  C   C6        1.0  0.4610552251044878  0.1458896828475815  0.8648772968426995  1.0000
  C   C7        1.0  0.8209498673372265  0.7403251880571986  0.005784143074841078  1.0000
  C   C8        1.0  0.17905120729110277  0.259675635682278  0.9942166777583666  1.0000
  C   C9        1.0  0.30714114453895286  0.7130607783797415  0.8416402997462527  1.0000
  C   C10       1.0  0.6928481739093753  0.2869400453597279  0.1583594254600484  1.0000
  C   C11       1.0  0.7808182525440583  0.8658108285198978  0.039191550654614105  1.0000
  C   C12       1.0  0.21918152846131989  0.1341909126262735  0.96080817204664  1.0000
  C   C13       1.0  0.3758750366161222  0.8424646628524143  0.8284782325998988  1.0000
  C   C14       1.0  0.624120511721287  0.1575379957004515  0.17152190597745687  1.0000
  C   C15       1.0  0.24654001104439516  0.4651151047465234  0.3973274841204457  1.0000
  C   C16       1.0  0.753469704819409  0.5348848015862515  0.6026736755265105  1.0000
  C   C17       1.0  0.2670678608020225  0.4161329262917093  0.31768477215721447  1.0000
  C   C18       1.0  0.7329422068608551  0.583868814854462  0.6823159779835279  1.0000
  N   N1        1.0  0.5880043476213856  0.8622274379549353  0.06511502318092247  1.0000
  N   N2        1.0  0.41199672700695084  0.13777338578454126  0.9348835971417699  1.0000
  N   N3        1.0  0.12026394160920258  0.7105571754991047  0.4000321424673388  1.0000
  N   N4        1.0  0.8797397202650499  0.2894418134269756  0.599968123991637  1.0000
  N   N5        1.0  0.05091074286990959  0.5000921525396009  0.4056793060655863  1.0000
  N   N6        1.0  0.9490967998732173  0.4999040841663813  0.5943215041511252  1.0000
  N   N7        1.0  0.8221356075095088  0.8885138920916162  0.7432892649222751  1.0000
  N   N8        1.0  0.17785688820952564  0.1114805098009697  0.2567107227989283  1.0000
  N   N9        1.0  0.4812261328403692  0.8972852175374939  0.6811076626419988  1.0000
  N   N10       1.0  0.5187685359993353  0.1027128539818847  0.3188926745094491  1.0000
  N   N11       1.0  0.3407160714377041  0.8518194589586443  0.1303522165315627  1.0000
  N   N12       1.0  0.6592837095676742  0.1481822821875269  0.869646956042061  1.0000
  N   N13       1.0  0.6885051992412912  0.8625274299453949  0.1928958009152879  1.0000
  N   N14       1.0  0.3114916427190835  0.1374743112007764  0.8071048856664049  1.0000
  N   N15       1.0  0.7972002550917379  0.6007775377174482  0.4198677385897085  1.0000
  N   N16       1.0  0.202807287651396  0.399218698988534  0.5801308711164807  1.0000
  N   N17       1.0  0.5172755792259949  0.8716051692286299  0.6114512318656437  1.0000
  N   N18       1.0  0.4827207350357554  0.1283938196974503  0.3885492437839204  1.0000
  N   N19       1.0  0.08474436770621448  0.8228330769078126  0.42402759772745197  1.0000
  N   N20       1.0  0.9152576487459925  0.1771649946115659  0.5759725302334148  1.0000
  N   N21       1.0  0.7370195046648078  0.8499552885469726  0.8517962196710727  1.0000
  N   N22       1.0  0.2629725769289805  0.15004461778580946  0.1482046718546002  1.0000
  N   N23       1.0  0.4204689059349604  0.8642989422805059  0.01770510407313  1.0000
  N   N24       1.0  0.5795319927938323  0.1357009640522691  0.9822939960664809  1.0000
  N   N25       1.0  0.8850929739050385  0.8699666808648203  0.8146640645531062  1.0000
  N   N26       1.0  0.1148985799901183  0.1300304732478565  0.1853360659128143  1.0000
  N   N27       1.0  0.7454258483501732  0.4780248518100549  0.41833947733143617  1.0000
  N   N28       1.0  0.2545816943929537  0.5219713848959273  0.5816591323747531  1.0000
  N   N29       1.0  0.8951639549578799  0.4164631927032261  0.4101321045460864  1.0000
  N   N30       1.0  0.1048450573077488  0.5835330440027491  0.5898671234751446  1.0000
  N   N31       1.0  0.5706977820926297  0.8550459783178325  0.8042697625122059  1.0000
  N   N32       1.0  0.4292944754006953  0.1449548454216441  0.19573064919654828  1.0000
  N   N33       1.0  0.6424179473530387  0.8395876754454221  0.2587515082263039  1.0000
  N   N34       1.0  0.35758001233075726  0.1604122308873528  0.7412480056661224  1.0000
  N   N35       1.0  0.27536488129599956  0.8587477143469185  0.05745978288784669  1.0000
  N   N36       1.0  0.7246347238098352  0.141253109392558  0.9425393193750651  1.0000
  N   N37       1.0  0.24444432559982224  0.5204200501684966  0.7739490488463332  1.0000
  N   N38       1.0  0.755558218551016  0.4795807735709801  0.22604963966377062  1.0000
  N   N39       1.0  0.8411292333997267  0.6591594652067201  0.0651237231167272  1.0000
  N   N40       1.0  0.1588689021836061  0.3408413585327494  0.934875861086404  1.0000
  N   N41       1.0  0.2784611604489981  0.4922400686057813  0.2043117128991199  1.0000
  N   N42       1.0  0.7215417355009207  0.5077625899470917  0.7956904169981768  1.0000
  N   N43       1.0  0.2839025250067947  0.6303189508209712  0.770633069113579  1.0000
  N   N44       1.0  0.7160919056072074  0.3696855425452981  0.22936549151489766  1.0000
  N   N45       1.0  0.245641116258426  0.5139468285027533  0.2689053781200315  1.0000
  N   N46       1.0  0.754368009580588  0.486057664863516  0.7310960648930589  1.0000
  N   N47       1.0  0.8123925482352732  0.5485394828890975  0.04458645554816341  1.0000
  N   N48       1.0  0.1876057632475963  0.4514622582570738  0.9554131989656794  1.0000
  N   N49       1.0  0.20795189713031445  0.41555037303806586  0.769304385296806  1.0000
  N   N50       1.0  0.7920583464321139  0.5844522855148071  0.23069368451650255  1.0000
  N   N51       1.0  0.3050130008685271  0.48473935143753977  0.1426027336984959  1.0000
  N   N52       1.0  0.6949807261472997  0.5152614723019298  0.8573960958147779  1.0000
  N   N53       1.0  0.7882801196607403  0.44310651804568824  0.03222506312717139  1.0000
  N   N54       1.0  0.2117193095455505  0.5568933882870866  0.9677750690802968  1.0000
  O   O1        1.0  0.7839687091382144  0.8623301875051864  0.31256543624559185  1.0000
  O   O2        1.0  0.2160272533244481  0.1376669666074974  0.6874332483996639  1.0000
  O   O3        1.0  0.9593979040815128  0.845762739934095  0.46737718107310405  1.0000
  O   O4        1.0  0.0406039364711503  0.1542344141785819  0.5326223264494203  1.0000
  O   O5        1.0  0.6568029159680719  0.812960863423541  0.5935412646786205  1.0000
  O   O6        1.0  0.34319339829367823  0.1870381255025393  0.4064592109709508  1.0000
  O   O7        1.0  0.4736058411075134  0.7955448146561891  0.2703646116670484  1.0000
  O   O8        1.0  0.5263921185762754  0.2044550916765857  0.7296349022253779  1.0000
  O   O9        1.0  0.18898948180723346  0.9092105872133658  0.4010539288609678  1.0000
  O   O10       1.0  0.8110127105445172  0.0907884017127074  0.5989468195382345  1.0000
  O   O11       1.0  0.3973771586519064  0.9059638849068108  0.5610799282237551  1.0000
  O   O12       1.0  0.6026208010318824  0.0940360214259641  0.4389201357962946  1.0000
