data_image0
_chemical_formula_structural       Cd4P4H52C56N4O16
_chemical_formula_sum              "Cd4 P4 H52 C56 N4 O16"
_cell_length_a       8.419968421393131
_cell_length_b       14.023942763444477
_cell_length_c       14.901777956449829
_cell_angle_alpha    105.00566635232988
_cell_angle_beta     106.3793874132977
_cell_angle_gamma    107.47385078974813

_space_group_name_H-M_alt    "P 1"
_space_group_IT_number       1

loop_
  _space_group_symop_operation_xyz
  'x, y, z'

loop_
  _atom_site_type_symbol
  _atom_site_label
  _atom_site_symmetry_multiplicity
  _atom_site_fract_x
  _atom_site_fract_y
  _atom_site_fract_z
  _atom_site_occupancy
  Cd  Cd1       1.0  0.10553052962480793  0.2501435243533693  0.2501007789173428  1.0000
  Cd  Cd2       1.0  0.8944672042437818  0.7498602084612076  0.7498984271723118  1.0000
  Cd  Cd3       1.0  0.6488252704110951  0.24997651624074996  0.249966064452373  1.0000
  Cd  Cd4       1.0  0.35116857102233445  0.7500239900776717  0.7500315423751828  1.0000
  P   P1        1.0  0.25180657135560114  0.0517447360837409  0.1582146052791131  1.0000
  P   P2        1.0  0.5422302665452677  0.448379880458532  0.3417737852138672  1.0000
  P   P3        1.0  0.7481986863190643  0.9482525503157221  0.8417928501673799  1.0000
  P   P4        1.0  0.4577647024833881  0.5516222374617145  0.6582219738070306  1.0000
  H   H1        1.0  0.3417319407348601  0.9803421170575247  0.32540816836782943  1.0000
  H   H2        1.0  0.5363258343378732  0.5196398072097637  0.1744676106859516  1.0000
  H   H3        1.0  0.6582792690554199  0.019654364217466  0.674601745763084  1.0000
  H   H4        1.0  0.4636829360782572  0.48036392423632185  0.825530242101941  1.0000
  H   H5        1.0  0.15942777385205884  0.8386192198130118  0.37247070290269585  1.0000
  H   H6        1.0  0.4484834530757666  0.6612936640351492  0.12737324109814108  1.0000
  H   H7        1.0  0.8405742430543627  0.16137887329006873  0.627536972700405  1.0000
  H   H8        1.0  0.5515299028733125  0.33871490915407076  0.872630062623017  1.0000
  H   H9        1.0  0.8343533979660479  0.7268659013876118  0.26344946040016043  1.0000
  H   H10       1.0  0.3439253291134109  0.7729368709320853  0.2363858318551807  1.0000
  H   H11       1.0  0.16565051929587332  0.27313299907446986  0.7365598375867249  1.0000
  H   H12       1.0  0.6560852619957417  0.2270700873628115  0.7636140247972137  1.0000
  H   H13       1.0  0.6904768194726002  0.7580189569650598  0.10795979461634894  1.0000
  H   H14       1.0  0.3244546087598794  0.7419002728834628  0.3919965868025202  1.0000
  H   H15       1.0  0.3095249998772617  0.24198397665466595  0.8920510576813996  1.0000
  H   H16       1.0  0.6755489026384254  0.25810587893407444  0.6080026589721115  1.0000
  H   H17       1.0  0.8701142992512632  0.8987010408134141  0.06366099198260874  1.0000
  H   H18       1.0  0.4077967349041884  0.6012407615488371  0.4362870250890936  1.0000
  H   H19       1.0  0.1298909092828139  0.10130189478024933  0.9363532088664356  1.0000
  H   H20       1.0  0.5922017532644545  0.39876296858648885  0.5637080232444589  1.0000
  H   H21       1.0  0.10157078466726015  0.9417813685961038  0.9818606422279642  1.0000
  H   H22       1.0  0.6782908880613335  0.5585444187364317  0.5181001207043182  1.0000
  H   H23       1.0  0.8984248151042139  0.0582143035722069  0.018143910246728127  1.0000
  H   H24       1.0  0.32169898127445856  0.4414552805756457  0.4818962683418633  1.0000
  H   H25       1.0  0.31509407250458576  0.04319762838386511  0.013311623125474658  1.0000
  H   H26       1.0  0.7586062788589771  0.45695845255827544  0.48664078063652033  1.0000
  H   H27       1.0  0.6848983247302558  0.9567988489510456  0.9866907357726478  1.0000
  H   H28       1.0  0.241383285935136  0.5430428606400924  0.5133572486488518  1.0000
  H   H29       1.0  0.2571637610966493  0.8347500940262692  0.05758759068804421  1.0000
  H   H30       1.0  0.8659913255341607  0.6653100662107788  0.4422870895735046  1.0000
  H   H31       1.0  0.7428367364591609  0.1652455747574848  0.9424119948257258  1.0000
  H   H32       1.0  0.13400229102007422  0.3346896345041229  0.5577117760125033  1.0000
  H   H33       1.0  0.4693857094657759  0.9362915756981565  0.08971261355758037  1.0000
  H   H34       1.0  0.9441363153732568  0.5635174925767359  0.4104108190630528  1.0000
  H   H35       1.0  0.5306146701959447  0.0637065141124253  0.9102897671701057  1.0000
  H   H36       1.0  0.0558578458627891  0.4364830147075907  0.5895883294862186  1.0000
  H   H37       1.0  0.7903686182704562  0.060632433167406005  0.253271037891402  1.0000
  H   H38       1.0  0.9771945493828156  0.43974033394083983  0.24704397306288697  1.0000
  H   H39       1.0  0.20962491542203307  0.9393721034530815  0.7467237631897135  1.0000
  H   H40       1.0  0.022806957874145162  0.5602593674715733  0.7529565598581412  1.0000
  H   H41       1.0  0.7348768206097914  0.9516709477739479  0.3565232181971467  1.0000
  H   H42       1.0  0.9267867227723061  0.5483984775755176  0.14361715135991926  1.0000
  H   H43       1.0  0.2651166060975926  0.048330362216191206  0.6434700464285045  1.0000
  H   H44       1.0  0.07321849027222513  0.45160364319250595  0.856383825848489  1.0000
  H   H45       1.0  0.29851504244142996  0.1355798168084164  0.5600558840964139  1.0000
  H   H46       1.0  0.1030339370479467  0.3644690901664235  0.9399129324045603  1.0000
  H   H47       1.0  0.7014820736398806  0.8644126187599854  0.4399315752110696  1.0000
  H   H48       1.0  0.8969652703884138  0.6355322224108946  0.0600848178917063  1.0000
  H   H49       1.0  0.3292904740703976  0.23308325173930913  0.4454161669608539  1.0000
  H   H50       1.0  0.15113004215145762  0.267029208899892  0.05461674538614153  1.0000
  H   H51       1.0  0.6707038018604692  0.7669172509339575  0.5545757403888772  1.0000
  H   H52       1.0  0.8488681294138374  0.7329721038537611  0.9453812072113266  1.0000
  C   C1        1.0  0.11824304572974845  0.9487214390300238  0.19203796644095655  1.0000
  C   C2        1.0  0.4777504208923844  0.5513025250660917  0.3078896219196566  1.0000
  C   C3        1.0  0.8817598204001629  0.05127584675619091  0.807968351886217  1.0000
  C   C4        1.0  0.5222453208965377  0.4486987886113311  0.6921096072916769  1.0000
  C   C5        1.0  0.1988598673395785  0.9306131225938045  0.2785723586902407  1.0000
  C   C6        1.0  0.48996069623339616  0.5693759052618361  0.2213204598135334  1.0000
  C   C7        1.0  0.8011434364870312  0.0693817431314798  0.7214327061447464  1.0000
  C   C8        1.0  0.5100384850330357  0.43062944012047677  0.7786784401911859  1.0000
  C   C9        1.0  0.09690815218083783  0.8512054906356142  0.3041688061913846  1.0000
  C   C10       1.0  0.441696327952414  0.6487114102062392  0.19571007884364638  1.0000
  C   C11       1.0  0.9030975431905334  0.1487893757029184  0.695837395762915  1.0000
  C   C12       1.0  0.5583075414801186  0.3512947410401778  0.8042882949195302  1.0000
  C   C13       1.0  0.9141780975850722  0.7882842670019837  0.24295088853612878  1.0000
  C   C14       1.0  0.3829508811091955  0.7115872547223744  0.2569265407959875  1.0000
  C   C15       1.0  0.0858294567109257  0.21171382464834212  0.757054903549502  1.0000
  C   C16       1.0  0.6170545950461417  0.2884156701121583  0.7430707639207839  1.0000
  C   C17       1.0  0.8332655787056709  0.8056812414321967  0.15626239178639892  1.0000
  C   C18       1.0  0.37130654266551494  0.6942445610335569  0.34365450018492544  1.0000
  C   C19       1.0  0.16674317193906063  0.19432168998733357  0.8437455026812088  1.0000
  C   C20       1.0  0.6286954143498279  0.3057567515858963  0.6563435152191915  1.0000
  C   C21       1.0  0.9346765449354777  0.8855536676223111  0.13109767381955365  1.0000
  C   C22       1.0  0.4180985823873514  0.6144129039029949  0.3688325269529927  1.0000
  C   C23       1.0  0.06532751754315304  0.11444845793310068  0.868910746889604  1.0000
  C   C24       1.0  0.5818978372384223  0.3855884101692126  0.6311673719685943  1.0000
  C   C25       1.0  0.2432692945120751  0.9801060649778394  0.03591510587514089  1.0000
  C   C26       1.0  0.7275280887555412  0.5200700075419177  0.4640182693835585  1.0000
  C   C27       1.0  0.7567292797175751  0.0198904128361264  0.9640884529489425  1.0000
  C   C28       1.0  0.27246457159009907  0.4799272738594951  0.5359804170229197  1.0000
  C   C29       1.0  0.328200099659803  0.8983068937429551  0.03490701753520413  1.0000
  C   C30       1.0  0.8955828940746429  0.6016874139498894  0.4650685926341467  1.0000
  C   C31       1.0  0.6717995486725242  0.10168958235766472  0.9650939252544929  1.0000
  C   C32       1.0  0.10441488122481248  0.3983139009118943  0.5349326457079613  1.0000
  C   C33       1.0  0.3269226497552252  0.8417072052866459  0.9326460737147143  1.0000
  C   C34       1.0  0.052724655832953736  0.6581838582409533  0.567424542179296  1.0000
  C   C35       1.0  0.6730832290644672  0.1582908846081992  0.0673568372286725  1.0000
  C   C36       1.0  0.9472663442973258  0.34181503625717385  0.43257444504585874  1.0000
  C   C37       1.0  0.8986364478135299  0.07341400179181082  0.3217990137816785  1.0000
  C   C38       1.0  0.0037544932511151554  0.4267613777818297  0.1783546174982361  1.0000
  C   C39       1.0  0.10135319344380633  0.926587308332522  0.678194188037331  1.0000
  C   C40       1.0  0.9962458984722887  0.5732407432967223  0.8216464992047251  1.0000
  C   C41       1.0  0.8695904224520562  0.013337059694734399  0.3807620248972016  1.0000
  C   C42       1.0  0.9755883428714256  0.4867247423520453  0.11931629959846667  1.0000
  C   C43       1.0  0.1303992449751946  0.9866602176246034  0.6192300272133409  1.0000
  C   C44       1.0  0.024410639685740653  0.5132757646217598  0.880682709456252  1.0000
  C   C45       1.0  0.012564492168913042  0.0321749128688111  0.4683980830790446  1.0000
  C   C46       1.0  0.011983354061143888  0.46784398148506073  0.031592101262731404  1.0000
  C   C47       1.0  0.9874272055696168  0.96782478205067  0.5315915321766482  1.0000
  C   C48       1.0  0.9880090399744363  0.5321549122656252  0.9684058116497597  1.0000
  C   C49       1.0  0.1806714009023694  0.11419344651782383  0.49280669681605366  1.0000
  C   C50       1.0  0.07382993401265747  0.38588342525675773  0.007200561321063546  1.0000
  C   C51       1.0  0.8193191539799827  0.8858030219476376  0.5071815842853838  1.0000
  C   C52       1.0  0.9261629129805654  0.6141146632851928  0.9927992800601401  1.0000
  C   C53       1.0  0.20000767136007624  0.17030870702002693  0.4297039721561974  1.0000
  C   C54       1.0  0.10024061013876914  0.32980318217828136  0.07034554285988996  1.0000
  C   C55       1.0  0.7999876022102516  0.8296917970139362  0.57029014662551  1.0000
  C   C56       1.0  0.8997580787857019  0.6701932910246313  0.9296507747646532  1.0000
  N   N1        1.0  0.0613890293822337  0.1502738273380757  0.3456435953259387  1.0000
  N   N2        1.0  0.06584350361787736  0.34991301473657194  0.15450204049204072  1.0000
  N   N3        1.0  0.9386035863332721  0.8497282884319047  0.6543486128424689  1.0000
  N   N4        1.0  0.9341523560651409  0.650085877914016  0.8454943935053834  1.0000
  O   O1        1.0  0.1636755391511997  0.13035328283653771  0.1430716467556863  1.0000
  O   O2        1.0  0.39062601752296894  0.3698396755275438  0.3570074964107803  1.0000
  O   O3        1.0  0.8363314857239388  0.8696456170965589  0.8569370443275872  1.0000
  O   O4        1.0  0.6093689667666312  0.6301640572448974  0.642991444571031  1.0000
  O   O5        1.0  0.44386619037560143  0.09994542176482922  0.23879520459602338  1.0000
  O   O6        1.0  0.6055210477883152  0.40011098410615636  0.2611701738758471  1.0000
  O   O7        1.0  0.5561415353070347  0.9000518621738395  0.7612085605034126  1.0000
  O   O8        1.0  0.3944697242635088  0.5998895212042257  0.7388256261221358  1.0000
  O   O9        1.0  0.23159579452686788  0.8512576907633831  0.8536706872176651  1.0000
  O   O10       1.0  0.02641904486318935  0.6485034273891372  0.6463004693102333  1.0000
  O   O11       1.0  0.7684136416644308  0.1487420098095242  0.14632909930520563  1.0000
  O   O12       1.0  0.9735745181984895  0.3514946600105874  0.35369762804805305  1.0000
  O   O13       1.0  0.4228354202057929  0.7875444810511992  0.9283388418951687  1.0000
  O   O14       1.0  0.2072448486046098  0.7124045303311277  0.5719157328449781  1.0000
  O   O15       1.0  0.5771669656438334  0.2124479638235854  0.07166363002711061  1.0000
  O   O16       1.0  0.7927484251763418  0.28759678580708237  0.42808718671340545  1.0000
