data_image0
_chemical_formula_structural       Al4H62C68Br6N16O20
_chemical_formula_sum              "Al4 H62 C68 Br6 N16 O20"
_cell_length_a       6.835036704026186
_cell_length_b       22.387975303205028
_cell_length_c       26.51262266965964
_cell_angle_alpha    101.12399387066425
_cell_angle_beta     90.00031924672938
_cell_angle_gamma    89.99925899752135

_space_group_name_H-M_alt    "P 1"
_space_group_IT_number       1

loop_
  _space_group_symop_operation_xyz
  'x, y, z'

loop_
  _atom_site_type_symbol
  _atom_site_label
  _atom_site_symmetry_multiplicity
  _atom_site_fract_x
  _atom_site_fract_y
  _atom_site_fract_z
  _atom_site_occupancy
  Al  Al1       1.0  0.8243331889067632  0.49913822495354737  0.5004439569432363  1.0000
  Al  Al2       1.0  0.3243343382619272  0.5008609792187071  0.4995528577668225  1.0000
  Al  Al3       1.0  0.3376777726890197  0.0007150869597864999  0.0015056841572587  1.0000
  Al  Al4       1.0  0.8376816376159226  0.9992799063456842  0.9984903583538624  1.0000
  H   H1        1.0  0.8589408619525682  0.8347141238357949  0.7666012495430222  1.0000
  H   H2        1.0  0.35894502069692885  0.16528352673251587  0.23339482095374103  1.0000
  H   H3        1.0  0.798791118674117  0.7503383752890043  0.7038955746381956  1.0000
  H   H4        1.0  0.29878377878280565  0.2496580907334333  0.29610082403679877  1.0000
  H   H5        1.0  0.10820823803206987  0.6460867319520245  0.7646411352352728  1.0000
  H   H6        1.0  0.608202649177457  0.3539098035332699  0.23535241180081096  1.0000
  H   H7        1.0  0.8190602658887797  0.7467707297530379  0.8050334806942345  1.0000
  H   H8        1.0  0.3190674496155594  0.2532245955246139  0.19495793810237666  1.0000
  H   H9        1.0  0.013718549954887698  0.7187554299831047  0.8380749166945944  1.0000
  H   H10       1.0  0.513727733931745  0.2812391531131269  0.16191931036332358  1.0000
  H   H11       1.0  0.3352219373440022  0.7572638961926969  0.6963275265287406  1.0000
  H   H12       1.0  0.8352099205574388  0.2427391977337123  0.3036727685353283  1.0000
  H   H13       1.0  0.3938110047326047  0.6884256694286249  0.717070442866543  1.0000
  H   H14       1.0  0.8938009115825808  0.3115764616021436  0.2829298988689644  1.0000
  H   H15       1.0  0.9908662239067353  0.7767032141041952  0.668849818066036  1.0000
  H   H16       1.0  0.4908616946119793  0.22329802966904566  0.331147146848572  1.0000
  H   H17       1.0  0.34655414948227287  0.7327137217480555  0.804897129288669  1.0000
  H   H18       1.0  0.8465579084927979  0.2672891011060088  0.19510202225211506  1.0000
  H   H19       1.0  0.3941429244237256  0.9188731560566408  0.11986693292225677  1.0000
  H   H20       1.0  0.8941229753100826  0.08112541572488402  0.8801314756065536  1.0000
  H   H21       1.0  0.38169595704221837  0.6392501251442724  0.30699192324745883  1.0000
  H   H22       1.0  0.88167761081651  0.36075913785132485  0.6930122751256816  1.0000
  H   H23       1.0  0.3532179812048213  0.5730743044911433  0.37240638116721664  1.0000
  H   H24       1.0  0.8532005159579227  0.42692778830456024  0.627593541556152  1.0000
  H   H25       1.0  0.8152775549814136  0.7151017454644588  0.35260898176750993  1.0000
  H   H26       1.0  0.31525693120310183  0.28490408769343384  0.6473974515745624  1.0000
  H   H27       1.0  0.1878935832676092  0.8875733742800019  0.7652304384898939  1.0000
  H   H28       1.0  0.8779174118026347  0.9231009390244864  0.7301148606481574  1.0000
  H   H29       1.0  0.9486391662380171  0.8757300569251001  0.6710979685564452  1.0000
  H   H30       1.0  0.10008157667007819  0.937760272388594  0.6984874068489617  1.0000
  H   H31       1.0  0.6878902594119509  0.11242435637466028  0.23476894245261795  1.0000
  H   H32       1.0  0.37791267076875096  0.07690139995750658  0.26988431598821444  1.0000
  H   H33       1.0  0.4486341947939038  0.1242730930704283  0.32890127166574956  1.0000
  H   H34       1.0  0.6000675105123321  0.06223907436532979  0.3015126729389976  1.0000
  H   H35       1.0  0.48172437703239973  0.8170222568420725  0.20564457541879477  1.0000
  H   H36       1.0  0.6246884553780274  0.9019173480645218  0.25924907208941056  1.0000
  H   H37       1.0  0.3665290607081814  0.902167978523515  0.27117907802465163  1.0000
  H   H38       1.0  0.4666872095127487  0.9511316103811607  0.23228140117511484  1.0000
  H   H39       1.0  0.981711028285929  0.18297550727492506  0.794352752953948  1.0000
  H   H40       1.0  0.12465568607741057  0.09807526420500065  0.7407510040325888  1.0000
  H   H41       1.0  0.8664979257781055  0.09782909529288016  0.7288204535764959  1.0000
  H   H42       1.0  0.9666503326396452  0.0488661190572941  0.7677216754003452  1.0000
  H   H43       1.0  0.6705918306838399  0.8024935937031612  0.12590121892157669  1.0000
  H   H44       1.0  0.7364384517466505  0.7281011508966768  0.19254262579497086  1.0000
  H   H45       1.0  0.9372948043595103  0.7089148568950348  0.1494815575030657  1.0000
  H   H46       1.0  0.6922002633870717  0.700347591368768  0.125727162583118  1.0000
  H   H47       1.0  0.17057332431645725  0.1975104493995303  0.874104315690154  1.0000
  H   H48       1.0  0.2364319212027937  0.2719094855500756  0.8074668302942384  1.0000
  H   H49       1.0  0.4373056720171603  0.2910876687501087  0.8505288090813892  1.0000
  H   H50       1.0  0.19220240628671087  0.29965933142932505  0.8742833941992174  1.0000
  H   H51       1.0  0.6345060002193961  0.8883815814761175  0.15333757139948995  1.0000
  H   H52       1.0  0.5878532879075564  0.9891975145645017  0.165328766635227  1.0000
  H   H53       1.0  0.6315729463515253  0.9817138412455576  0.09811540004259456  1.0000
  H   H54       1.0  0.8286704990618644  0.00041585435917570476  0.14223427530325236  1.0000
  H   H55       1.0  0.1344912906564275  0.11162076820457405  0.8466621648408221  1.0000
  H   H56       1.0  0.0878292151419586  0.01080390992052575  0.8346705421401169  1.0000
  H   H57       1.0  0.1315589773871366  0.018287256678625883  0.9018847131668435  1.0000
  H   H58       1.0  0.3286568206476872  0.9995846683947532  0.8577644683711937  1.0000
  H   H59       1.0  0.5803829083967926  0.5758747885706511  0.4924096741787735  1.0000
  H   H60       1.0  0.0803852635851072  0.424134534322924  0.5076069409074648  1.0000
  H   H61       1.0  0.5858949369825196  0.9202284017630261  0.9957243772638262  1.0000
  H   H62       1.0  0.08588853827918538  0.07976829552388409  0.0042837463519447  1.0000
  C   C1        1.0  0.5711847485844004  0.435275164836021  0.5624819039616185  1.0000
  C   C2        1.0  0.07120459015683168  0.5647250589028302  0.43751392940028916  1.0000
  C   C3        1.0  0.5739412313301954  0.4203125978233898  0.4250946497845547  1.0000
  C   C4        1.0  0.07395356442329867  0.5796855418683008  0.5749038668511091  1.0000
  C   C5        1.0  0.954734274063739  0.7625515407168705  0.705106205579483  1.0000
  C   C6        1.0  0.45472921916478265  0.23744565367282885  0.29488840900151553  1.0000
  C   C7        1.0  0.003935365528434399  0.6799897076091808  0.7561699134040579  1.0000
  C   C8        1.0  0.5039323840399561  0.3200073973871155  0.24382354636772863  1.0000
  C   C9        1.0  0.9728565327179692  0.7324792277691542  0.8019314247747643  1.0000
  C   C10       1.0  0.4728628009197067  0.267518564203371  0.19806397570048517  1.0000
  C   C11       1.0  0.09544135201002038  0.8686158280382867  0.8829298135833168  1.0000
  C   C12       1.0  0.5954612595180107  0.13138295762514218  0.11706373079097429  1.0000
  C   C13       1.0  0.0782435845737766  0.7059604451907617  0.7095982848349465  1.0000
  C   C14       1.0  0.5782290729193704  0.29403779283241954  0.2903986995104119  1.0000
  C   C15       1.0  0.9995448089442647  0.8153171006949264  0.7506090800707312  1.0000
  C   C16       1.0  0.4995509753567333  0.18468255145843668  0.24938481378330823  1.0000
  C   C17       1.0  0.0978320970687037  0.7886166768309762  0.7944990867077165  1.0000
  C   C18       1.0  0.5978429833294925  0.21138360153231867  0.2054971537686328  1.0000
  C   C19       1.0  0.30174831205792424  0.762161238892993  0.7783607913879677  1.0000
  C   C20       1.0  0.8017504744088199  0.2378411036311761  0.22163793590848968  1.0000
  C   C21       1.0  0.2936054296934714  0.7273977094472955  0.722854991489271  1.0000
  C   C22       1.0  0.793599369702619  0.2726033015271625  0.2771437239328733  1.0000
  C   C23       1.0  0.0991508835137935  0.8326593491100662  0.8422928177894561  1.0000
  C   C24       1.0  0.5991693912771935  0.16733788434042648  0.157703796713875  1.0000
  C   C25       1.0  0.07496873047653449  0.6612216771998047  0.66222141247745  1.0000
  C   C26       1.0  0.5749465374015655  0.3387723345801631  0.3377786261834572  1.0000
  C   C27       1.0  0.07471783034139891  0.6242288476141055  0.622183615404161  1.0000
  C   C28       1.0  0.5747029265221498  0.37576726272163086  0.3778118217745571  1.0000
  C   C29       1.0  0.2682147944050541  0.8960548709808193  0.1320748044688784  1.0000
  C   C30       1.0  0.768195837401052  0.10394510390919004  0.8679231172183889  1.0000
  C   C31       1.0  0.28443596428962786  0.858532101607274  0.167282830937836  1.0000
  C   C32       1.0  0.7844148737173311  0.14146819790207127  0.8327166421693092  1.0000
  C   C33       1.0  0.1174199441346175  0.823182844159781  0.17697845214229346  1.0000
  C   C34       1.0  0.6174063524821634  0.17682074588685737  0.8230247307498856  1.0000
  C   C35       1.0  0.9406745948534618  0.8306222627688552  0.15076605791238507  1.0000
  C   C36       1.0  0.4406632263019715  0.16938220280110267  0.8492370211333478  1.0000
  C   C37       1.0  0.9153001608424274  0.8860961416860532  0.1304453182844654  1.0000
  C   C38       1.0  0.41528592121572677  0.1139058607381926  0.8695565777192087  1.0000
  C   C39       1.0  0.08570731387703741  0.910434399597534  0.11201320009276829  1.0000
  C   C40       1.0  0.5856913790028243  0.08956534261399442  0.8879845643386374  1.0000
  C   C41       1.0  0.11179081449127888  0.7218969932556759  0.2881098320978809  1.0000
  C   C42       1.0  0.6117787758204896  0.2781117436871127  0.7118983579457064  1.0000
  C   C43       1.0  0.1196002207620026  0.7877117720518635  0.2171870743208757  1.0000
  C   C44       1.0  0.6195742601079105  0.21229750613521498  0.7828195880707868  1.0000
  C   C45       1.0  0.251347258992368  0.6408176132166685  0.3308072398508912  1.0000
  C   C46       1.0  0.7513254411193415  0.359192043182638  0.6691999209163838  1.0000
  C   C47       1.0  0.23548958351096866  0.6041112928953821  0.36718394069480803  1.0000
  C   C48       1.0  0.7354700463171537  0.3958935170469928  0.6328174274496944  1.0000
  C   C49       1.0  0.0703613721110941  0.605750437709112  0.399153561628836  1.0000
  C   C50       1.0  0.5703454593021675  0.39424823916107227  0.6008453379824985  1.0000
  C   C51       1.0  0.9187488714716492  0.6463710726704545  0.3929781227213879  1.0000
  C   C52       1.0  0.41873402810608695  0.35362752122220087  0.6070245318767035  1.0000
  C   C53       1.0  0.9323344191632472  0.6833810778230285  0.3565572151123533  1.0000
  C   C54       1.0  0.43232024357227766  0.31662472121178803  0.6434477820934602  1.0000
  C   C55       1.0  0.0990495857883076  0.6812183542720546  0.32530962075796305  1.0000
  C   C56       1.0  0.5990248963626854  0.3187901398903747  0.674697405224059  1.0000
  C   C57       1.0  0.5907541296756023  0.08557668981214309  0.07061433369486278  1.0000
  C   C58       1.0  0.0907410708469598  0.9144206568882608  0.929380737688284  1.0000
  C   C59       1.0  0.5859389568953333  0.05517643560831692  0.9302370202584811  1.0000
  C   C60       1.0  0.08594107961152987  0.9448173229708483  0.0697599542294256  1.0000
  C   C61       1.0  0.0053519446911352  0.9017077669892684  0.7076308540079878  1.0000
  C   C62       1.0  0.5053453433748487  0.09829375438685865  0.2923683844302332  1.0000
  C   C63       1.0  0.47979492970856796  0.9059555724340523  0.24223942365045298  1.0000
  C   C64       1.0  0.9797619303171601  0.09404117906115775  0.7577613560755554  1.0000
  C   C65       1.0  0.7894339490788054  0.7287244711375321  0.15339663644222407  1.0000
  C   C66       1.0  0.28943585487227347  0.2712797585871627  0.8466124574432212  1.0000
  C   C67       1.0  0.6934607346958188  0.9737584210238022  0.13427822024240035  1.0000
  C   C68       1.0  0.19344082438251314  0.026240472385183032  0.8657204015727231  1.0000
  Br  Br1       1.0  0.689676349048412  0.6591312347579501  0.43503654236908307  1.0000
  Br  Br2       1.0  0.1896700203059964  0.34086451635960197  0.5649639850716143  1.0000
  Br  Br3       1.0  0.7600352019410221  0.6320230919135666  0.7418544030216407  1.0000
  Br  Br4       1.0  0.2600243840179317  0.36796748863588385  0.2581354114238792  1.0000
  Br  Br5       1.0  0.5104371902999176  0.8242445574742872  0.7890064490481449  1.0000
  Br  Br6       1.0  0.010441462318965498  0.17575613230973625  0.21099509518762005  1.0000
  N   N1        1.0  0.9578184141056739  0.7910874680806895  0.24829394481700717  1.0000
  N   N2        1.0  0.45779427775450177  0.20892132693590065  0.7517126215588731  1.0000
  N   N3        1.0  0.9541507515298233  0.7572929814391854  0.2834215619026423  1.0000
  N   N4        1.0  0.4541262079155004  0.24271724492181326  0.7165853906710921  1.0000
  N   N5        1.0  0.28253412852308907  0.7252975485571723  0.262932397466372  1.0000
  N   N6        1.0  0.7825200947915646  0.2747088560126159  0.7370743939999755  1.0000
  N   N7        1.0  0.28663340601508475  0.7582708175733116  0.22681851376378853  1.0000
  N   N8        1.0  0.7866109709072759  0.24173326107115395  0.773187888583756  1.0000
  N   N9        1.0  0.11936771633163087  0.86206175320104  0.7341650838130744  1.0000
  N   N10       1.0  0.6193693128703898  0.13793669426353714  0.2658330887959295  1.0000
  N   N11       1.0  0.4627397101532864  0.8585440356344658  0.19546456684494015  1.0000
  N   N12       1.0  0.9627222340842606  0.14145543557251014  0.8045342878564696  1.0000
  N   N13       1.0  0.7935004184156254  0.7891544605982972  0.1420201804136667  1.0000
  N   N14       1.0  0.2934863866080164  0.21084703110723518  0.8579846819897625  1.0000
  N   N15       1.0  0.73269610471997  0.9094780097947108  0.13225491316430998  1.0000
  N   N16       1.0  0.2326805266148071  0.09052475751521168  0.8677452928372418  1.0000
  O   O1        1.0  0.4064523527478626  0.4383114304612902  0.4429068267995787  1.0000
  O   O2        1.0  0.9064322886477426  0.561678030347771  0.557098856354223  1.0000
  O   O3        1.0  0.7394274598149478  0.4500493460140972  0.5480460093148594  1.0000
  O   O4        1.0  0.23943995528640727  0.5499417567807681  0.4519480142989636  1.0000
  O   O5        1.0  0.7412494653926627  0.4364847043911979  0.44414161042119815  1.0000
  O   O6        1.0  0.24122875633839405  0.5635218198179501  0.5558474783411141  1.0000
  O   O7        1.0  0.9072711231714763  0.5478083174054403  0.4523091798574086  1.0000
  O   O8        1.0  0.40726969024754567  0.4521964102426281  0.547698864592995  1.0000
  O   O9        1.0  0.5753544653537261  0.5361618249985579  0.5020071373270978  1.0000
  O   O10       1.0  0.0753581645887351  0.4638358659987317  0.4979913788672832  1.0000
  O   O11       1.0  0.7539300188676777  0.0399292329773075  0.9453933946331786  1.0000
  O   O12       1.0  0.2539482132125315  0.9600679905139059  0.0546041206369878  1.0000
  O   O13       1.0  0.4215147896881816  0.0671936780059355  0.05466147693989849  1.0000
  O   O14       1.0  0.9215013645656072  0.9328065987657436  0.9453327364137464  1.0000
  O   O15       1.0  0.4226880648549667  0.046090434772999254  0.9513587885708075  1.0000
  O   O16       1.0  0.9226909153086637  0.9539032894014028  0.048638090290829404  1.0000
  O   O17       1.0  0.2556483839718382  0.9324528255746568  0.9490916957986854  1.0000
  O   O18       1.0  0.7556577740593295  0.067544774476751  0.05090351783330499  1.0000
  O   O19       1.0  0.5871130597065528  0.9642653115895281  0.000999182587129599  1.0000
  O   O20       1.0  0.08711370882122078  0.035730852644590486  0.9989985699091618  1.0000
