data_image0
_chemical_formula_structural       Zn2CoH32C32N4O20
_chemical_formula_sum              "Zn2 Co1 H32 C32 N4 O20"
_cell_length_a       6.870048997031681
_cell_length_b       10.067440665698332
_cell_length_c       13.31084491998997
_cell_angle_alpha    84.10389126367518
_cell_angle_beta     79.67665928025693
_cell_angle_gamma    78.72659028312533

_space_group_name_H-M_alt    "P 1"
_space_group_IT_number       1

loop_
  _space_group_symop_operation_xyz
  'x, y, z'

loop_
  _atom_site_type_symbol
  _atom_site_label
  _atom_site_symmetry_multiplicity
  _atom_site_fract_x
  _atom_site_fract_y
  _atom_site_fract_z
  _atom_site_occupancy
  Zn  Zn1       1.0  0.6692370867842641  0.5311897582909637  0.6143851744637345  1.0000
  Zn  Zn2       1.0  0.3307630667571644  0.4688074849225004  0.3856157092716401  1.0000
  Co  Co1       1.0  0.5000064396191066  0.5000015338700834  0.9999986879134325  1.0000
  H   H1        1.0  0.943390002839486  0.5468650937102382  0.7275889110683166  1.0000
  H   H2        1.0  0.05661557952888781  0.4531331132723153  0.27240898184020773  1.0000
  H   H3        1.0  0.7222511179065093  0.6256039089331225  0.7730251179107768  1.0000
  H   H4        1.0  0.2777509250998947  0.3743962979101383  0.2269729626977863  1.0000
  H   H5        1.0  0.5655938935726541  0.7276473464304871  0.9177267447849289  1.0000
  H   H6        1.0  0.4344195773258122  0.27235515271979693  0.0822727732422379  1.0000
  H   H7        1.0  0.4211857038408341  0.6899045575714381  0.840168859856199  1.0000
  H   H8        1.0  0.5788244557909153  0.3101000873470952  0.15983381349994366  1.0000
  H   H9        1.0  0.15057944470330406  0.6465647243436833  0.048923737996482024  1.0000
  H   H10       1.0  0.8494294333760735  0.353437621414308  0.9510740696821002  1.0000
  H   H11       1.0  0.14514386628594167  0.5568295296126706  0.9568107658987941  1.0000
  H   H12       1.0  0.8548657793047881  0.44316580883248236  0.0431899848796178  1.0000
  H   H13       1.0  0.12739431841164625  0.9680375495402345  0.7556241584666594  1.0000
  H   H14       1.0  0.872603582229857  0.031958905119424195  0.24438234014242968  1.0000
  H   H15       1.0  0.5671946029179438  0.011491068888957992  0.5686739463668644  1.0000
  H   H16       1.0  0.4328021929789898  0.9885070866472107  0.4313257191951081  1.0000
  H   H17       1.0  0.6189642743974559  0.8812887122717257  0.7331699123264457  1.0000
  H   H18       1.0  0.38103887908986434  0.1187136843014116  0.2668308082379838  1.0000
  H   H19       1.0  0.5448594218262174  0.0059896071866063025  0.8942757562942134  1.0000
  H   H20       1.0  0.45514149514355023  0.9940146944704581  0.10572275445753121  1.0000
  H   H21       1.0  0.8221217027841021  0.3166971283178981  0.7538004080492584  1.0000
  H   H22       1.0  0.17789411867953925  0.6833035387022194  0.24620280360505828  1.0000
  H   H23       1.0  0.18168938928290151  0.9918623663751588  0.5776311854435079  1.0000
  H   H24       1.0  0.8183051179823408  0.008132570193019696  0.4223660898946591  1.0000
  H   H25       1.0  0.10409929247595069  0.1345890641561738  0.4195713870587809  1.0000
  H   H26       1.0  0.8958786382796902  0.8654078862953443  0.5804305897276905  1.0000
  H   H27       1.0  0.8746251454141357  0.3608651488093955  0.4370721631381684  1.0000
  H   H28       1.0  0.12536292103516192  0.6391329917572648  0.5629300169844951  1.0000
  H   H29       1.0  0.19260669470111932  0.9345858237419621  0.9313353775756495  1.0000
  H   H30       1.0  0.8073752943671976  0.06541334574718147  0.06866889558461511  1.0000
  H   H31       1.0  0.9499531786778593  0.8955002112235135  0.9367806173112712  1.0000
  H   H32       1.0  0.050023496437816624  0.10450704563172758  0.0632233759029504  1.0000
  C   C1        1.0  0.4142211173466706  0.2742295219048927  0.7239486321758406  1.0000
  C   C2        1.0  0.5857749623263759  0.7257717868146187  0.2760530252847886  1.0000
  C   C3        1.0  0.4612357111861344  0.20377055869132482  0.63389434932769  1.0000
  C   C4        1.0  0.5387623769091973  0.7962286990367176  0.3661065503167009  1.0000
  C   C5        1.0  0.5360001691282931  0.06359699805420149  0.6390025471408903  1.0000
  C   C6        1.0  0.46400463425603516  0.9364004350284322  0.36100078885030473  1.0000
  C   C7        1.0  0.56314444107403  0.9904902839818066  0.7314355750478824  1.0000
  C   C8        1.0  0.4368532265625332  0.009511112345350596  0.2685673944361752  1.0000
  C   C9        1.0  0.5206180970588861  0.0591863528488119  0.8206908224180438  1.0000
  C   C10       1.0  0.47938186985538794  0.9408170654776807  0.17931090569467764  1.0000
  C   C11       1.0  0.4496581688363079  0.1995146514505137  0.8170218745638705  1.0000
  C   C12       1.0  0.5503475796938416  0.8004887525377242  0.1829776825702396  1.0000
  C   C13       1.0  0.3110032920030862  0.422765697507586  0.7275047733033375  1.0000
  C   C14       1.0  0.6889998614842343  0.5772366990655514  0.27249594726109183  1.0000
  C   C15       1.0  0.432608334747897  0.266653199034117  0.9138557049583653  1.0000
  C   C16       1.0  0.5673952342885188  0.7333521465149387  0.08614238427028909  1.0000
  C   C17       1.0  0.43669346754247584  0.270386168714623  0.5292800804820885  1.0000
  C   C18       1.0  0.5633029185417089  0.7296129284520063  0.4707180233244088  1.0000
  C   C19       1.0  0.8844858093344287  0.2718579714654511  0.6817582773328681  1.0000
  C   C20       1.0  0.11551964343060919  0.7281464471070151  0.3182412018602249  1.0000
  C   C21       1.0  0.0022638836701033985  0.1419368937788192  0.6788941317035722  1.0000
  C   C22       1.0  0.9977310748759934  0.8580634221794696  0.3211085173963398  1.0000
  C   C23       1.0  0.08344648355129179  0.09124880031437499  0.5830200032456502  1.0000
  C   C24       1.0  0.9165414060902108  0.9087453402152477  0.4169841442465696  1.0000
  C   C25       1.0  0.04037703328702241  0.16996706461523556  0.4949918602449301  1.0000
  C   C26       1.0  0.9596178780546155  0.830023039716103  0.5050111699399621  1.0000
  C   C27       1.0  0.9171798164701743  0.2967740720847019  0.5034424274923239  1.0000
  C   C28       1.0  0.08282165547138481  0.7032167918082948  0.4965529886312865  1.0000
  C   C29       1.0  0.9815590603580445  0.0926621393389766  0.8674557673218927  1.0000
  C   C30       1.0  0.0184208168863833  0.9073378112192145  0.1325441482450032  1.0000
  C   C31       1.0  0.030626827185386694  0.9768989827477556  0.9458972771482052  1.0000
  C   C32       1.0  0.9693573992271495  0.0231072598388806  0.054104451237378726  1.0000
  N   N1        1.0  0.8436324857861948  0.3454089708559351  0.595560713558676  1.0000
  N   N2        1.0  0.1563709896679697  0.6545849296206256  0.4044333832525808  1.0000
  N   N3        1.0  0.0412348009334309  0.06109023137506141  0.7677224218487452  1.0000
  N   N4        1.0  0.958761449811071  0.9389111867751015  0.23228146133357797  1.0000
  O   O1        1.0  0.4049071265912969  0.5214061328969563  0.6968744425848497  1.0000
  O   O2        1.0  0.5950931573801413  0.4785938769080004  0.30312010027859065  1.0000
  O   O3        1.0  0.12782967481052054  0.43983070414001446  0.7671499531358634  1.0000
  O   O4        1.0  0.8721735927244367  0.5601717653868902  0.23285225124303116  1.0000
  O   O5        1.0  0.4764904674603089  0.38634080391183556  0.9007791743138327  1.0000
  O   O6        1.0  0.523516936703196  0.6136615271922847  0.09921880515579318  1.0000
  O   O7        1.0  0.38980802115187874  0.2016154841270819  0.999496218568865  1.0000
  O   O8        1.0  0.6101986667877385  0.7983900001603815  0.0005037527994033445  1.0000
  O   O9        1.0  0.3287734575652338  0.3916261584945814  0.527201937898802  1.0000
  O   O10       1.0  0.6712153308442976  0.6083727194951151  0.47279405723395485  1.0000
  O   O11       1.0  0.5176155440437284  0.20944232075520824  0.4507836283733226  1.0000
  O   O12       1.0  0.48239686275159943  0.7905592221107369  0.5492176232003558  1.0000
  O   O13       1.0  0.8182148155602889  0.6069861794425363  0.7072675920247774  1.0000
  O   O14       1.0  0.18178923586839346  0.39301197640925517  0.2927297307675474  1.0000
  O   O15       1.0  0.5439672746508322  0.6586162763195276  0.8690872010404149  1.0000
  O   O16       1.0  0.45604466530793536  0.3413861716999946  0.13091174687055226  1.0000
  O   O17       1.0  0.19920047980727418  0.556478840155208  0.019861990988289283  1.0000
  O   O18       1.0  0.8008132868562967  0.443522644410848  0.9801376049798876  1.0000
  O   O19       1.0  0.8884343330763045  0.20599911738943888  0.8921886399505681  1.0000
  O   O20       1.0  0.11155980584430843  0.7940030818297714  0.10781088563838637  1.0000
