data_image0
_chemical_formula_structural       Al2H18C42N12O24
_chemical_formula_sum              "Al2 H18 C42 N12 O24"
_cell_length_a       4.020231829249042
_cell_length_b       27.796251596913105
_cell_length_c       27.79727290821144
_cell_angle_alpha    119.99046573557413
_cell_angle_beta     90.00118926050217
_cell_angle_gamma    90.00164732216403

_space_group_name_H-M_alt    "P 1"
_space_group_IT_number       1

loop_
  _space_group_symop_operation_xyz
  'x, y, z'

loop_
  _atom_site_type_symbol
  _atom_site_label
  _atom_site_symmetry_multiplicity
  _atom_site_fract_x
  _atom_site_fract_y
  _atom_site_fract_z
  _atom_site_occupancy
  Al  Al1       1.0  0.9776881857307275  0.5000121817274348  0.4999837583342241  1.0000
  Al  Al2       1.0  0.9776519127942722  0.16665773462702296  0.8333496845869776  1.0000
  H   H1        1.0  0.5586426190325043  0.1806003848092674  0.6950296032052918  1.0000
  H   H2        1.0  0.5984602329820277  0.2331841602320068  0.6437837036384835  1.0000
  H   H3        1.0  0.4901097428054086  0.3871778742197876  0.7985418059914197  1.0000
  H   H4        1.0  0.4901000216554294  0.2794853346171492  0.5347819943502046  1.0000
  H   H5        1.0  0.598473352005236  0.4334818351454856  0.689540304367746  1.0000
  H   H6        1.0  0.5586512795657796  0.48606216783723255  0.63829224012499  1.0000
  H   H7        1.0  0.5585605400319977  0.014383599312708472  0.819398740165788  1.0000
  H   H8        1.0  0.598481242358787  0.9105671262692355  0.7668148178859154  1.0000
  H   H9        1.0  0.49005111713216826  0.9113890731670365  0.6128293487381312  1.0000
  H   H10       1.0  0.49005589467010696  0.7552801848555432  0.720515495920722  1.0000
  H   H11       1.0  0.5986132564635938  0.7561011650754779  0.5665368667850076  1.0000
  H   H12       1.0  0.5587507732231884  0.6522859852186612  0.5139513214511381  1.0000
  H   H13       1.0  0.5583623994870025  0.3049656922733561  0.985579820799515  1.0000
  H   H14       1.0  0.5981812389645642  0.3562182678340163  0.08939215014437701  1.0000
  H   H15       1.0  0.49034625358660117  0.20144467909740632  0.08866504065884574  1.0000
  H   H16       1.0  0.49025915487577976  0.4652167123965184  0.24467026148247578  1.0000
  H   H17       1.0  0.5982425696179093  0.31044652993662675  0.24394273347348158  1.0000
  H   H18       1.0  0.5584763026764819  0.36169895598751367  0.34775575012336896  1.0000
  C   C1        1.0  0.4788547128796807  0.46975937604302226  0.4163790963561311  1.0000
  C   C2        1.0  0.4788705791969151  0.4466598821574834  0.5302422748638663  1.0000
  C   C3        1.0  0.47889820001537947  0.5836142842875632  0.5533387132582419  1.0000
  C   C4        1.0  0.47884794532799196  0.22000477657347528  0.8030842305585538  1.0000
  C   C5        1.0  0.47880788885687764  0.08305391056142511  0.7800029600489041  1.0000
  C   C6        1.0  0.47886629971198863  0.196906275629715  0.916955048753252  1.0000
  C   C7        1.0  0.4986964063891577  0.25406741964732776  0.7750813964187345  1.0000
  C   C8        1.0  0.5432490696115837  0.22583470383033  0.7171740167229147  1.0000
  C   C9        1.0  0.5663853672338846  0.2548646815072361  0.6886966620232543  1.0000
  C   C10       1.0  0.5439592030085266  0.3132626638736937  0.7178669575265033  1.0000
  C   C11       1.0  0.507856349880285  0.34205279580028525  0.7756853378834239  1.0000
  C   C12       1.0  0.4843940529510747  0.3121277342168725  0.8033419914769411  1.0000
  C   C13       1.0  0.5078513675168709  0.32460986857574176  0.5576399809961431  1.0000
  C   C14       1.0  0.5439582805801706  0.35340172803415737  0.6154571521367629  1.0000
  C   C15       1.0  0.5663852512727914  0.41180039196423474  0.6446285267559233  1.0000
  C   C16       1.0  0.5432679969616673  0.4408276207816754  0.6161492725220654  1.0000
  C   C17       1.0  0.4987287827946929  0.4125941673295798  0.5582391135572209  1.0000
  C   C18       1.0  0.48441338380078497  0.3545343523160085  0.5299806911269016  1.0000
  C   C19       1.0  0.498609112857352  0.02099530081007136  0.7459424753335001  1.0000
  C   C20       1.0  0.5432118359776084  0.9913059706937232  0.7741672060558569  1.0000
  C   C21       1.0  0.5663768633843419  0.9338130859914529  0.7451421767994262  1.0000
  C   C22       1.0  0.5439307705345088  0.9046031030427882  0.6867382251716448  1.0000
  C   C23       1.0  0.5077719596503201  0.9336437819140997  0.6579612739096701  1.0000
  C   C24       1.0  0.484276177954989  0.991216198668411  0.687882970749399  1.0000
  C   C25       1.0  0.5078330055687277  0.7330254686250939  0.6753910267525215  1.0000
  C   C26       1.0  0.54401081861797  0.7620642784416773  0.646609269725303  1.0000
  C   C27       1.0  0.5665049209503864  0.7328602919641725  0.5882075577245588  1.0000
  C   C28       1.0  0.5433566984355523  0.6753630926504712  0.5591836328988008  1.0000
  C   C29       1.0  0.49872901929584396  0.645671503897077  0.587407346822573  1.0000
  C   C30       1.0  0.4843613458491732  0.675450634728442  0.6454627772938865  1.0000
  C   C31       1.0  0.49870572183956335  0.2249113286829785  0.979013305694217  1.0000
  C   C32       1.0  0.5430594198194926  0.282823880139496  0.008674841150572337  1.0000
  C   C33       1.0  0.5661869284432443  0.311306388355959  0.06617394990730213  1.0000
  C   C34       1.0  0.543973503463704  0.2821310337344656  0.09541030706667185  1.0000
  C   C35       1.0  0.508022504532839  0.22430345557714298  0.06639292476589984  1.0000
  C   C36       1.0  0.48458663242713845  0.1966460708813713  0.008824097962687464  1.0000
  C   C37       1.0  0.507983847562592  0.4423584296972294  0.26694285705213616  1.0000
  C   C38       1.0  0.5439665119119681  0.38453643855159914  0.23792687876082394  1.0000
  C   C39       1.0  0.5662430583900075  0.355359342419561  0.2671631384353219  1.0000
  C   C40       1.0  0.5431443766639958  0.38384019622576193  0.32465853410725737  1.0000
  C   C41       1.0  0.4987219560701774  0.44175265961158056  0.3543220682342536  1.0000
  C   C42       1.0  0.4845517756175753  0.47001506946190824  0.32451137302182786  1.0000
  N   N1        1.0  0.5476520530268516  0.34682371075380986  0.6929646800961962  1.0000
  N   N2        1.0  0.5476630138243478  0.31983951857714743  0.6403599257666174  1.0000
  N   N3        1.0  0.5476437627780371  0.8461513512307803  0.6531858751268301  1.0000
  N   N4        1.0  0.5476779982077958  0.8205200859405295  0.6801619336114726  1.0000
  N   N5        1.0  0.5477237349510204  0.3070317211108459  0.15386078791368618  1.0000
  N   N6        1.0  0.5476636118497353  0.35963439629045973  0.17947420925144536  1.0000
  N   N7        1.0  0.42870819926353226  0.34342462604929125  0.8639346106425307  1.0000
  N   N8        1.0  0.4287126256970027  0.3232332186156269  0.46938719792088784  1.0000
  N   N9        1.0  0.42855941034942896  0.020530200390510404  0.656595552854782  1.0000
  N   N10       1.0  0.4285778511361259  0.646134761207115  0.676747912390354  1.0000
  N   N11       1.0  0.42903185143386224  0.1360495048915596  0.9795593963031523  1.0000
  N   N12       1.0  0.4289187951550702  0.5306097449907482  0.35378043415857247  1.0000
  O   O1        1.0  0.7121957616025086  0.5555808973761387  0.5582070187073286  1.0000
  O   O2        1.0  0.7121574711070054  0.5026706250968472  0.4444061471600804  1.0000
  O   O3        1.0  0.7121428331251424  0.44178440228380106  0.4973315744584355  1.0000
  O   O4        1.0  0.23845499537127074  0.564576996900101  0.5192424830853143  1.0000
  O   O5        1.0  0.23843367048016265  0.48075291675470305  0.5452907417210467  1.0000
  O   O6        1.0  0.23841821552780837  0.45471183012131877  0.4354278702684197  1.0000
  O   O7        1.0  0.7121734496411919  0.1640022045903676  0.8889320820878268  1.0000
  O   O8        1.0  0.7121433126279159  0.22488426790345528  0.8359921098303361  1.0000
  O   O9        1.0  0.7121152590480407  0.11108527507923331  0.7751299539807661  1.0000
  O   O10       1.0  0.23845241768317046  0.21195629162458832  0.8979039511823217  1.0000
  O   O11       1.0  0.23837086542492614  0.10209437209693575  0.8141004785948028  1.0000
  O   O12       1.0  0.2383996505455032  0.1859085071820844  0.7880377054847403  1.0000
  O   O13       1.0  0.2822579862044207  0.3187616842770781  0.8845999826959102  1.0000
  O   O14       1.0  0.527637007374537  0.3920306332599565  0.8896798978330908  1.0000
  O   O15       1.0  0.2822593315037595  0.3478931562947452  0.4487176921712645  1.0000
  O   O16       1.0  0.5276181799883659  0.27462712977467857  0.44364341204502716  1.0000
  O   O17       1.0  0.28217111786910465  0.06585345150817551  0.6812600047428604  1.0000
  O   O18       1.0  0.5274476792822257  0.9976849013280784  0.607986685335092  1.0000
  O   O19       1.0  0.28220193143948796  0.6008080657945455  0.6520747323279749  1.0000
  O   O20       1.0  0.5273888536939425  0.668980333297121  0.7253619993181744  1.0000
  O   O21       1.0  0.28253250699486904  0.11536840112287193  0.9342313861804074  1.0000
  O   O22       1.0  0.5280403161822066  0.11031249205809958  0.002426678621162576  1.0000
  O   O23       1.0  0.282405184655481  0.5512794037873332  0.3990983624953229  1.0000
  O   O24       1.0  0.5279065193526905  0.556350952858466  0.3309164628263872  1.0000
