data_image0
_chemical_formula_structural       Al2H2C8O10F4
_chemical_formula_sum              "Al2 H2 C8 O10 F4"
_cell_length_a       6.681534776591887
_cell_length_b       8.840703936801592
_cell_length_c       8.840507971063053
_cell_angle_alpha    72.92424294067222
_cell_angle_beta     75.44104213583698
_cell_angle_gamma    75.43926783680274

_space_group_name_H-M_alt    "P 1"
_space_group_IT_number       1

loop_
  _space_group_symop_operation_xyz
  'x, y, z'

loop_
  _atom_site_type_symbol
  _atom_site_label
  _atom_site_symmetry_multiplicity
  _atom_site_fract_x
  _atom_site_fract_y
  _atom_site_fract_z
  _atom_site_occupancy
  Al  Al1       1.0  0.5000182019708317  0.4999865722175515  0.49999483283089324  1.0000
  Al  Al2       1.0  3.2408259755699255e-06  0.49999722035366306  0.4999921722493426  1.0000
  H   H1        1.0  0.7499830854657645  0.3310957305399357  0.6690364322486602  1.0000
  H   H2        1.0  0.24993856148751084  0.6690935594441572  0.3311183151396406  1.0000
  C   C1        1.0  0.1643675252777966  0.48902865425168346  0.7822745406166618  1.0000
  C   C2        1.0  0.3356382279366271  0.2176796258206509  0.5109580711797932  1.0000
  C   C3        1.0  0.8356742430294586  0.5109631581935902  0.21769691994889237  1.0000
  C   C4        1.0  0.6643338499577209  0.7823283343369953  0.4890159355040851  1.0000
  C   C5        1.0  0.5981028518609293  0.9537795801277726  0.5002476941722023  1.0000
  C   C6        1.0  0.4019015422293606  0.046218417724468025  0.4997310084452806  1.0000
  C   C7        1.0  0.09810032078998879  0.5002593540715029  0.9537683958313395  1.0000
  C   C8        1.0  0.9018791775075031  0.4997498187209788  0.046215326862217396  1.0000
  O   O1        1.0  0.3522257253907028  0.5053114314722934  0.7168733810591235  1.0000
  O   O2        1.0  0.14783381900859638  0.2831257166603792  0.4946631006872124  1.0000
  O   O3        1.0  0.9707076520279401  0.5365086720733033  0.28125318380857317  1.0000
  O   O4        1.0  0.5292827939466135  0.7187592113902995  0.46347743848176043  1.0000
  O   O5        1.0  0.6478096099488084  0.49468683468114705  0.28312316761105893  1.0000
  O   O6        1.0  0.8521529959112969  0.7168789920157794  0.505268802652779  1.0000
  O   O7        1.0  0.029336547584904223  0.46345880757500185  0.7187246435257536  1.0000
  O   O8        1.0  0.47067076344472975  0.2812487768181598  0.5365161017765702  1.0000
  O   O9        1.0  0.7499984601234075  0.4231970269321154  0.576828664510643  1.0000
  O   O10       1.0  0.2500013432731477  0.5768222513380227  0.4231594643418504  1.0000
  F   F1        1.0  0.7550338774032355  0.016014075878629807  0.5137303886229105  1.0000
  F   F2        1.0  0.24496190652265412  0.9839659304991033  0.4862806855445641  1.0000
  F   F3        1.0  0.2550368405815533  0.5136867723862437  0.01606586062130328  1.0000
  F   F4        1.0  0.7449517381784502  0.4862753851859837  0.9839465446392243  1.0000
