data_image0
_chemical_formula_structural       Zr6H20C52S15O47
_chemical_formula_sum              "Zr6 H20 C52 S15 O47"
_cell_length_a       16.461905106103966
_cell_length_b       16.45176556793066
_cell_length_c       16.572731950979797
_cell_angle_alpha    61.31352976717937
_cell_angle_beta     59.872990131100664
_cell_angle_gamma    60.14738492882428

_space_group_name_H-M_alt    "P 1"
_space_group_IT_number       1

loop_
  _space_group_symop_operation_xyz
  'x, y, z'

loop_
  _atom_site_type_symbol
  _atom_site_label
  _atom_site_symmetry_multiplicity
  _atom_site_fract_x
  _atom_site_fract_y
  _atom_site_fract_z
  _atom_site_occupancy
  Zr  Zr1       1.0  0.892510437948374  0.8985851658951065  0.5962757120248198  1.0000
  Zr  Zr2       1.0  0.11496657601113473  0.10168433067184417  0.3914223367088212  1.0000
  Zr  Zr3       1.0  0.10901728919446892  0.8909110144950249  0.60049845517311  1.0000
  Zr  Zr4       1.0  0.8989580980375746  0.10997667165062826  0.38699141372575235  1.0000
  Zr  Zr5       1.0  0.11017576506215217  0.8911561383952177  0.3868719664093235  1.0000
  Zr  Zr6       1.0  0.8962748779617016  0.1077344410873735  0.6040323790794346  1.0000
  H   H1        1.0  0.08208604525707845  0.748729444328248  0.575986822157695  1.0000
  H   H2        1.0  0.0921786481897513  0.08212860561623361  0.24450841218076394  1.0000
  H   H3        1.0  0.0902486445610293  0.0798667620370849  0.5823914920083767  1.0000
  H   H4        1.0  0.7498610955299652  0.0902710763291595  0.5764803268588921  1.0000
  H   H5        1.0  0.1100076535537653  0.6260841672423609  0.3437320967932394  1.0000
  H   H6        1.0  0.6210382580925752  0.11952514000925166  0.900450820871292  1.0000
  H   H7        1.0  0.8628594592605835  0.11718977085060096  0.11806839215018525  1.0000
  H   H8        1.0  0.6341689702360823  0.4019081430379218  0.3546991932033734  1.0000
  H   H9        1.0  0.08993974864127809  0.6516587260205923  0.8851898049204365  1.0000
  H   H10       1.0  0.8313747558511934  0.6723821745481616  0.8612341329188025  1.0000
  H   H11       1.0  0.8091332795993793  0.5313202343755351  0.013930672617533328  1.0000
  H   H12       1.0  0.8786847009708012  0.39014442336572613  0.1413675969342093  1.0000
  H   H13       1.0  0.13774192586105005  0.36863144161974054  0.1648425784360157  1.0000
  H   H14       1.0  0.14602499291105184  0.5239139772552122  0.025102887103791674  1.0000
  H   H15       1.0  0.6295639456844526  0.8642087118242615  0.6018733635428221  1.0000
  H   H16       1.0  0.9116615577586488  0.2896633606393027  0.7789779066247747  1.0000
  H   H17       1.0  0.2578648033732094  0.8826423433996313  0.17140779050366467  1.0000
  H   H18       1.0  0.1893498600138128  0.8777123969602414  0.7486105606845046  1.0000
  H   H19       1.0  0.2692909895090451  0.5355843652771952  0.7810196672566079  1.0000
  H   H20       1.0  0.2845282033211731  0.28141168945454353  0.40364676275913064  1.0000
  C   C1        1.0  0.9969954168550429  0.7370093676082448  0.48168137128936905  1.0000
  C   C2        1.0  0.28588901764021546  0.9851051828058248  0.22615534864761605  1.0000
  C   C3        1.0  0.9985340881310022  0.27245485991426965  0.49912772315302345  1.0000
  C   C4        1.0  0.7331120668373289  0.003955047406087615  0.7669539639586632  1.0000
  C   C5        1.0  0.9818237510962504  0.7447812872481024  0.7673433444608764  1.0000
  C   C6        1.0  0.7349782227366431  0.0015188214324199862  0.48670289301812636  1.0000
  C   C7        1.0  0.009737526262945594  0.2736825041088338  0.2363849791651234  1.0000
  C   C8        1.0  0.2818436671800905  0.992691887964604  0.4914374026703783  1.0000
  C   C9        1.0  0.27744514915362106  0.7279552088261954  0.49201929147565693  1.0000
  C   C10       1.0  0.004225503390905561  0.98898761753253  0.7749601747732272  1.0000
  C   C11       1.0  0.7378763376106505  0.277975582234177  0.4915981621697512  1.0000
  C   C12       1.0  0.9986969545569978  0.9978448801348424  0.22635081642290805  1.0000
  C   C13       1.0  0.9303710946575237  0.41850735023638225  0.5638726210397778  1.0000
  C   C14       1.0  0.05272694850251016  0.6016427129555025  0.41085182416615146  1.0000
  C   C15       1.0  0.9916497992116363  0.3669162981130826  0.49553637069157463  1.0000
  C   C16       1.0  0.9932027594897758  0.6500524754870656  0.4809608726790131  1.0000
  C   C17       1.0  0.028316111276360852  0.5180392756072932  0.4406875689591985  1.0000
  C   C18       1.0  0.9513683159368111  0.5048026223741856  0.5329399559978896  1.0000
  C   C19       1.0  0.42950578648151344  0.9212001597190281  0.08010703645962289  1.0000
  C   C20       1.0  0.599444844082008  0.05884249211734276  0.9176632903526852  1.0000
  C   C21       1.0  0.3770634018014434  0.9825956304048944  0.13909659011373784  1.0000
  C   C22       1.0  0.6483814126329364  0.9983899516175542  0.8593482172462217  1.0000
  C   C23       1.0  0.519435959838148  0.030331714766468645  0.998881402214792  1.0000
  C   C24       1.0  0.5103328986202624  0.9487120640512572  0.9998322587419679  1.0000
  C   C25       1.0  0.06624801995401707  0.9186752432859392  0.920461271640285  1.0000
  C   C26       1.0  0.9257056633118877  0.05519372818096018  0.09511002736901727  1.0000
  C   C27       1.0  0.001061627231948062  0.9833603229151962  0.868009396201039  1.0000
  C   C28       1.0  0.9946263730097585  0.9919784205141585  0.14260019481501002  1.0000
  C   C29       1.0  0.9508231324248158  0.02753372188051644  0.014669835691051961  1.0000
  C   C30       1.0  0.038135555502890196  0.9440193216436369  0.003435759938518968  1.0000
  C   C31       1.0  0.4135115826126495  0.5852233272041972  0.5651339095008864  1.0000
  C   C32       1.0  0.6049681668258414  0.4210820615668924  0.42076385594361904  1.0000
  C   C33       1.0  0.3682813422897978  0.6401336232941973  0.493710834286361  1.0000
  C   C34       1.0  0.6491506533149687  0.36758122845510144  0.49186015897408464  1.0000
  C   C35       1.0  0.5192334582700652  0.5006901435753974  0.4475343397754941  1.0000
  C   C36       1.0  0.5000258883670057  0.505291004266546  0.5388847416185882  1.0000
  C   C37       1.0  0.0299679136567621  0.6237020936548632  0.9133947057359038  1.0000
  C   C38       1.0  0.8829841540627896  0.6348567212882872  0.9009422272619574  1.0000
  C   C39       1.0  0.8710566070245062  0.5569569353442106  0.9851513413308338  1.0000
  C   C40       1.0  0.9406098549431121  0.5068204410432885  0.03476283665816741  1.0000
  C   C41       1.0  0.9367758695479436  0.4200192706244083  0.11505290029063507  1.0000
  C   C42       1.0  0.08390233035443373  0.4085225071233012  0.12730349826097145  1.0000
  C   C43       1.0  0.08864812908693401  0.49354969687574635  0.050064560234076835  1.0000
  C   C44       1.0  0.019829556860393772  0.542825162398465  0.9997005580399972  1.0000
  C   C45       1.0  0.9647564855433329  0.6668240846403822  0.8633005154251876  1.0000
  C   C46       1.0  0.008664080174206458  0.3699982771505502  0.1586631347833176  1.0000
  C   C47       1.0  0.42081513100301043  0.0642688309934698  0.4240643106433524  1.0000
  C   C48       1.0  0.6035267780105187  0.9277283800881834  0.544820030522864  1.0000
  C   C49       1.0  0.37338156315784243  0.9938255934485196  0.48609436562463054  1.0000
  C   C50       1.0  0.6488785542388059  0.9985589973851319  0.4838567572922941  1.0000
  C   C51       1.0  0.5207075015130654  0.9514656792592431  0.5222047834540221  1.0000
  C   C52       1.0  0.5051943943183019  0.04013311410391661  0.44473517455490713  1.0000
  S   S1        1.0  0.07340651557546343  0.42445566119481265  0.39354469966595224  1.0000
  S   S2        1.0  0.9076870250880517  0.596131599440817  0.5822346879192537  1.0000
  S   S3        1.0  0.42805906401482474  0.07245374763552812  0.09658981128598045  1.0000
  S   S4        1.0  0.5993011844524643  0.9072301626151643  0.9012718302365316  1.0000
  S   S5        1.0  0.90436898151156  0.07362146641546033  0.9224592551830214  1.0000
  S   S6        1.0  0.08906886177145888  0.8992413698511895  0.09137410250169617  1.0000
  S   S7        1.0  0.43133921129527425  0.5940610596255027  0.3955240504392564  1.0000
  S   S8        1.0  0.5881902914703689  0.4127102194828397  0.5909605677950084  1.0000
  S   S9        1.0  0.43187153852187493  0.8992191412270644  0.5683973187762562  1.0000
  S   S10       1.0  0.5927926587462976  0.0937382667081225  0.39924623918435737  1.0000
  S   S11       1.0  0.8353158569765854  0.38906857667931416  0.6776866739433699  1.0000
  S   S12       1.0  0.40780449578990374  0.8179295246623185  0.09595030361215603  1.0000
  S   S13       1.0  0.17324410505969487  0.8132945402737733  0.8969819609504627  1.0000
  S   S14       1.0  0.3778446027848901  0.6041380860234682  0.676943205485756  1.0000
  S   S15       1.0  0.3886997015164582  0.1740920163113699  0.3300353542001417  1.0000
  O   O1        1.0  0.9283461673883266  0.7725956804772451  0.5513800927841502  1.0000
  O   O2        1.0  0.2528749152294267  0.05058920922877523  0.2652593320432786  1.0000
  O   O3        1.0  0.06929930938420632  0.23719645246158902  0.43022453858561255  1.0000
  O   O4        1.0  0.7642960480733548  0.9391854645527289  0.7266929700559287  1.0000
  O   O5        1.0  0.05484812178024602  0.7741059236040114  0.7333056434556796  1.0000
  O   O6        1.0  0.7691553076383996  0.07111723844396087  0.42137918713487477  1.0000
  O   O7        1.0  0.9412808902845383  0.24007592824161617  0.2649719836244344  1.0000
  O   O8        1.0  0.2470883659930223  0.924740261351495  0.5599439392282478  1.0000
  O   O9        1.0  0.2458405389368252  0.7612635426554846  0.4218329384646253  1.0000
  O   O10       1.0  0.9345885221181901  0.05638957842506916  0.7427248168339987  1.0000
  O   O11       1.0  0.7708104693841449  0.24158161842210288  0.5615224833359846  1.0000
  O   O12       1.0  0.06961542011934087  0.9298468836727878  0.25841810105789886  1.0000
  O   O13       1.0  0.07936468844003017  0.9257238609388594  0.7312546937617697  1.0000
  O   O14       1.0  0.7741732057960249  0.24233756003827286  0.4218851712581682  1.0000
  O   O15       1.0  0.9332476607456996  0.07020187994092468  0.25934901472092514  1.0000
  O   O16       1.0  0.23686157658976745  0.7634211281081987  0.562516019025651  1.0000
  O   O17       1.0  0.9213962111625018  0.7760635558380502  0.7232835517032542  1.0000
  O   O18       1.0  0.24379801844339974  0.062051667011232325  0.426768090771411  1.0000
  O   O19       1.0  0.08258366530860438  0.2291111478196655  0.26845412381936745  1.0000
  O   O20       1.0  0.7677429932516446  0.9345156654288405  0.5558855438532362  1.0000
  O   O21       1.0  0.7683042320340262  0.07249062399012743  0.7331807976007527  1.0000
  O   O22       1.0  0.06893761334659834  0.7684224023806223  0.4150251317200074  1.0000
  O   O23       1.0  0.24388611939288318  0.9218497776758099  0.2560436534199226  1.0000
  O   O24       1.0  0.9340653642033558  0.23371684359890593  0.5712231321501663  1.0000
  O   O25       1.0  0.8222429755150317  0.06521184479834134  0.5526918843782055  1.0000
  O   O26       1.0  0.06522236500774169  0.056844601372112856  0.5582396040645109  1.0000
  O   O27       1.0  0.06798362579436204  0.05731126300941719  0.3155032793910166  1.0000
  O   O28       1.0  0.06108313985664895  0.8200142119799665  0.5508313175938184  1.0000
  O   O29       1.0  0.13904315122270092  0.9512433147195195  0.45054973235543383  1.0000
  O   O30       1.0  0.9591642104639744  0.9583473335899345  0.44681410486935386  1.0000
  O   O31       1.0  0.9621387525614294  0.13160168935504418  0.4534342040158067  1.0000
  O   O32       1.0  0.957575430247246  0.957828870917247  0.6256825686706335  1.0000
  O   O33       1.0  0.8936867938185955  0.2807404058703258  0.7363890233293946  1.0000
  O   O34       1.0  0.7619963471802506  0.3789787594081418  0.6643616876037087  1.0000
  O   O35       1.0  0.8085792330067677  0.4561518881570806  0.7266175459226216  1.0000
  O   O36       1.0  0.2928524590755116  0.8608017991379386  0.11122889599101884  1.0000
  O   O37       1.0  0.4257075483950884  0.742003242667856  0.18332038975064074  1.0000
  O   O38       1.0  0.46106386182245956  0.7986689146638926  0.0033896244451768172  1.0000
  O   O39       1.0  0.23414064575050741  0.8544713695373218  0.7856673702922307  1.0000
  O   O40       1.0  0.14006503975318213  0.7399872721813094  0.9107680366907118  1.0000
  O   O41       1.0  0.23037189281462386  0.7908117661728582  0.952427875444677  1.0000
  O   O42       1.0  0.26514401905915713  0.6017783688592147  0.7342682301291034  1.0000
  O   O43       1.0  0.3727135688531361  0.7001473173598143  0.6595504724958375  1.0000
  O   O44       1.0  0.43905015277776716  0.5168637760092523  0.7299365986257482  1.0000
  O   O45       1.0  0.27759042776973786  0.23583009512904604  0.38732418524730866  1.0000
  O   O46       1.0  0.38058069163289326  0.15568933891126605  0.25892226383819406  1.0000
  O   O47       1.0  0.45371453918635757  0.22560901681583811  0.3009519142600681  1.0000
