data_image0
_chemical_formula_structural       Ni2H38C34N10O10
_chemical_formula_sum              "Ni2 H38 C34 N10 O10"
_cell_length_a       8.683362081392614
_cell_length_b       11.121902667691598
_cell_length_c       11.981924635933876
_cell_angle_alpha    102.84104299455085
_cell_angle_beta     112.75765311482449
_cell_angle_gamma    102.3409310170749

_space_group_name_H-M_alt    "P 1"
_space_group_IT_number       1

loop_
  _space_group_symop_operation_xyz
  'x, y, z'

loop_
  _atom_site_type_symbol
  _atom_site_label
  _atom_site_symmetry_multiplicity
  _atom_site_fract_x
  _atom_site_fract_y
  _atom_site_fract_z
  _atom_site_occupancy
  Ni  Ni1       1.0  0.955345346498149  0.9594799916501701  0.5852261118766152  1.0000
  Ni  Ni2       1.0  0.9685058943666291  0.44346538238975347  0.1053916358641872  1.0000
  H   H1        1.0  0.49757061476842057  0.8224814654293126  0.23465922246280252  1.0000
  H   H2        1.0  0.4779770545530867  0.9721825661953433  0.4191349397549475  1.0000
  H   H3        1.0  0.020834942342965183  0.6603355377840572  0.3437858038493927  1.0000
  H   H4        1.0  0.40398938401429524  0.07993225799455672  0.9358561888024184  1.0000
  H   H5        1.0  0.4248865029520488  0.9390784359077387  0.7472355133439662  1.0000
  H   H6        1.0  0.9156370809001192  0.23913161912893338  0.8602683315510478  1.0000
  H   H7        1.0  0.328758117754127  0.3558870152029384  0.1994505626119434  1.0000
  H   H8        1.0  0.18179879843407323  0.22066959666611302  0.4596029110642164  1.0000
  H   H9        1.0  0.9317124900830791  0.3217447548166775  0.32266821394195944  1.0000
  H   H10       1.0  0.5300025912571087  0.2698327204841888  0.33508851758090696  1.0000
  H   H11       1.0  0.4416227058997891  0.1538141811389693  0.3957598508797204  1.0000
  H   H12       1.0  0.9842606786414906  0.5206816882758004  0.865576692209757  1.0000
  H   H13       1.0  0.6098096301892897  0.5414308780517986  0.006139564275514432  1.0000
  H   H14       1.0  0.5028901927626777  0.5985491939634359  0.7793986822352396  1.0000
  H   H15       1.0  0.876968547043802  0.5892797985346477  0.6819418054002213  1.0000
  H   H16       1.0  0.7441821029737455  0.6896860499435035  0.6809215361501302  1.0000
  H   H17       1.0  0.47186516559892067  0.5031426619242367  0.5365287972491544  1.0000
  H   H18       1.0  0.6234813099158387  0.5165639049475031  0.47213293177806287  1.0000
  H   H19       1.0  0.5398366810823845  0.3177174694666505  0.6012006256647595  1.0000
  H   H20       1.0  0.7206506606144176  0.33964129112577274  0.5661052170019047  1.0000
  H   H21       1.0  0.039245016889815104  0.0805262373869198  0.8886298979774595  1.0000
  H   H22       1.0  0.13932087000056004  0.7623480357093441  0.699200318572707  1.0000
  H   H23       1.0  0.2444714101113449  0.7761253174638442  0.9556740944157623  1.0000
  H   H24       1.0  0.20076414555398261  0.09267585473898518  0.11946445045703062  1.0000
  H   H25       1.0  0.29665562550443514  0.9717716848264857  0.15345706294456818  1.0000
  H   H26       1.0  0.9966061533186519  0.8126034397852422  0.08468198431487654  1.0000
  H   H27       1.0  0.06230501265000756  0.9554348232014578  0.21551576075941636  1.0000
  H   H28       1.0  0.801143841422018  0.902345775983946  0.9340792083304877  1.0000
  H   H29       1.0  0.8759364826371865  0.050790810357717917  0.061028104411263905  1.0000
  H   H30       1.0  0.7704558425455303  0.1516555741947982  0.457652348024304  1.0000
  H   H31       1.0  0.6326108131195411  0.10601327650140037  0.1932410323130753  1.0000
  H   H32       1.0  0.8624092042321153  0.8190778873001536  0.2859554142314949  1.0000
  H   H33       1.0  0.5769378967698556  0.9025288453970004  0.0061280121097623645  1.0000
  H   H34       1.0  0.667151398670761  0.7808814096312915  0.04573992405316569  1.0000
  H   H35       1.0  0.6814567941938707  0.8041193652769183  0.5530212708057434  1.0000
  H   H36       1.0  0.6813645021594612  0.7567673704943303  0.41705339401313074  1.0000
  H   H37       1.0  0.2278876954109208  0.1147082819806258  0.6145160299251202  1.0000
  H   H38       1.0  0.22077909767057244  0.18058008314388732  0.7452448475756555  1.0000
  C   C1        1.0  0.2712830350644424  0.5744069834234153  0.08134351106671998  1.0000
  C   C2        1.0  0.27151206609251244  0.6666219384212299  0.19597847725790274  1.0000
  C   C3        1.0  0.3962009313215303  0.7917170560557663  0.2641234179014517  1.0000
  C   C4        1.0  0.3835664673021668  0.8737187687176586  0.3639057653101291  1.0000
  C   C5        1.0  0.2458493955648394  0.8287747771915692  0.39320997939019264  1.0000
  C   C6        1.0  0.12885677306950785  0.7006659200387875  0.3232025347337455  1.0000
  C   C7        1.0  0.21570332640919798  0.9184002743437463  0.490468587509632  1.0000
  C   C8        1.0  0.6512746285150967  0.3156002058276499  0.11347327769832556  1.0000
  C   C9        1.0  0.6507945389676522  0.2273219094588796  0.9965230267328166  1.0000
  C   C10       1.0  0.514682573863155  0.10949683084177048  0.9149441990572881  1.0000
  C   C11       1.0  0.5261936221732811  0.03308219442116211  0.8113144362127614  1.0000
  C   C12       1.0  0.6716517119891493  0.07783489623444953  0.7894955459664601  1.0000
  C   C13       1.0  0.8005302095117912  0.1985159062814787  0.8735993953273962  1.0000
  C   C14       1.0  0.698355648236266  0.9942521467117447  0.6860354340528545  1.0000
  C   C15       1.0  0.251777167971234  0.3348903379572191  0.2501820653791498  1.0000
  C   C16       1.0  0.17301082851426494  0.26385454975496  0.3856582153972711  1.0000
  C   C17       1.0  0.05025893386769549  0.31326873865900506  0.3167038368545079  1.0000
  C   C18       1.0  0.46859666422948026  0.25559001366151796  0.398081589350582  1.0000
  C   C19       1.0  0.8704346863107804  0.5356265910623889  0.8758847696486357  1.0000
  C   C20       1.0  0.6739190895919763  0.5463321319372698  0.9446162738977364  1.0000
  C   C21       1.0  0.618102769018279  0.5742953561033917  0.8318448363060753  1.0000
  C   C22       1.0  0.7479152041020214  0.5907932013622244  0.6754403090148527  1.0000
  C   C23       1.0  0.5994161816472712  0.49100211441963637  0.5489983104104539  1.0000
  C   C24       1.0  0.5880352042253421  0.3491909770147502  0.5363649863190787  1.0000
  C   C25       1.0  0.07756422715160484  0.9947260401655529  0.869202359980207  1.0000
  C   C26       1.0  0.13342388978149686  0.8296649475318671  0.7769962718985538  1.0000
  C   C27       1.0  0.1853808265399124  0.8357055414727129  0.9029058110859937  1.0000
  C   C28       1.0  0.1756882297376378  0.9868389333479044  0.09241754379141302  1.0000
  C   C29       1.0  0.019896010791718734  0.9186346401065464  0.11148419886043825  1.0000
  C   C30       1.0  0.8492623042627869  0.9446223214778798  0.03852071456842051  1.0000
  C   C31       1.0  0.7689344498555429  0.07615828921385773  0.3820702785527175  1.0000
  C   C32       1.0  0.7010762045583688  0.05431153350286882  0.25189672649553774  1.0000
  C   C33       1.0  0.8218110625167085  0.9046294318301163  0.29895055524452374  1.0000
  C   C34       1.0  0.6976491466779962  0.8867502703894844  0.06665382108794653  1.0000
  N   N1        1.0  0.1001074764087733  0.35646438684142373  0.23224922920925914  1.0000
  N   N2        1.0  0.29964638862832527  0.2782626375158515  0.3423955298069076  1.0000
  N   N3        1.0  0.832173361965758  0.523045149218774  0.9710664488400269  1.0000
  N   N4        1.0  0.7442681769838373  0.5672054623369364  0.789790985332978  1.0000
  N   N5        1.0  0.14875563555291657  0.941186595326002  0.9598920124489964  1.0000
  N   N6        1.0  0.0657554079915954  0.9288419732659818  0.7570782781049274  1.0000
  N   N7        1.0  0.8435593453117108  0.9823385058074124  0.41009458664714776  1.0000
  N   N8        1.0  0.7360411095609648  0.9452538854078084  0.20069405419762623  1.0000
  N   N9        1.0  0.14116003397006693  0.6224949329743623  0.2266465854319506  1.0000
  N   N10       1.0  0.7913818116736593  0.2692014507141566  0.9755355165393739  1.0000
  O   O1        1.0  0.15841693408591334  0.45832589177422983  0.03544897562847637  1.0000
  O   O2        1.0  0.3749408314715624  0.6184894712287915  0.03945201210496662  1.0000
  O   O3        1.0  0.3002970139551024  0.039870887967232704  0.5295452736737118  1.0000
  O   O4        1.0  0.1007703728665633  0.8642424973298973  0.5217560869304877  1.0000
  O   O5        1.0  0.7762871394806439  0.42657154469151937  0.17144700721802053  1.0000
  O   O6        1.0  0.5336246046557775  0.27310797468349785  0.14494763545211953  1.0000
  O   O7        1.0  0.6149877896467899  0.8722031765364519  0.6438930963132846  1.0000
  O   O8        1.0  0.8091873863907467  0.052534009374220085  0.6534638581318222  1.0000
  O   O9        1.0  0.7533667105365894  0.7739626551634018  0.5082177337604535  1.0000
  O   O10       1.0  0.15034085434452754  0.1468311640162554  0.6521456057908352  1.0000
