data_image0
_chemical_formula_structural       Zn2H52C72N8O16
_chemical_formula_sum              "Zn2 H52 C72 N8 O16"
_cell_length_a       9.405829636
_cell_length_b       13.734686688256343
_cell_length_c       13.964
_cell_angle_alpha    90.0
_cell_angle_beta     90.0
_cell_angle_gamma    110.02364579939979

_space_group_name_H-M_alt    "P 1"
_space_group_IT_number       1

loop_
  _space_group_symop_operation_xyz
  'x, y, z'

loop_
  _atom_site_type_symbol
  _atom_site_label
  _atom_site_symmetry_multiplicity
  _atom_site_fract_x
  _atom_site_fract_y
  _atom_site_fract_z
  _atom_site_occupancy
  Zn  Zn1       1.0  0.5194988221353469  0.0392244719088026  0.2500221999427126  1.0000
  Zn  Zn2       1.0  0.4805005881434141  0.9607752204452422  0.750021483815523  1.0000
  H   H1        1.0  0.9308539858639975  0.1937146618491639  0.162716270409625  1.0000
  H   H2        1.0  0.06914503695539755  0.806284255578042  0.662716270409625  1.0000
  H   H3        1.0  0.7372483510219966  0.8063323010421825  0.8372937553709505  1.0000
  H   H4        1.0  0.2627531855976315  0.19366739131186245  0.3372937553709505  1.0000
  H   H5        1.0  0.6506672978544543  0.7805466104092815  0.1514924090518477  1.0000
  H   H6        1.0  0.34933249988366544  0.21945385687160265  0.6514924090518476  1.0000
  H   H7        1.0  0.8702359471832324  0.21927717355186616  0.8485054425665979  1.0000
  H   H8        1.0  0.12976704006619136  0.7807232937290178  0.3485083070753348  1.0000
  H   H9        1.0  0.7876810125628354  0.6730627077146352  0.076892724147811  1.0000
  H   H10       1.0  0.21231772200484036  0.32693775956624893  0.5768934402749935  1.0000
  H   H11       1.0  0.11463714853564261  0.326804472149604  0.9232275852191377  1.0000
  H   H12       1.0  0.8853643880839854  0.6731952202044411  0.4232297336006852  1.0000
  H   H13       1.0  0.19350103800269383  0.9412788360535629  0.0651704382698384  1.0000
  H   H14       1.0  0.8064990479871383  0.058720081373643  0.5651682898882839  1.0000
  H   H15       1.0  0.25249267136833003  0.058671260982663384  0.9348245488398703  1.0000
  H   H16       1.0  0.7475074146215022  0.9413276564445425  0.4348238327126879  1.0000
  H   H17       1.0  0.0553768336166414  0.047348804909411485  0.1390282154110594  1.0000
  H   H18       1.0  0.9446232523731838  0.9526501125177873  0.6390267831566874  1.0000
  H   H19       1.0  0.008288270129838675  0.9525571212968769  0.8609803781151513  1.0000
  H   H20       1.0  0.9917122033193523  0.047442571057168  0.3609796619879688  1.0000
  H   H21       1.0  0.1076635407485256  0.5316641318254369  0.2712775708965935  1.0000
  H   H22       1.0  0.8923319051001998  0.4683340106749298  0.771278287023776  1.0000
  H   H23       1.0  0.5758988710211171  0.46844560014002906  0.7286608421655671  1.0000
  H   H24       1.0  0.424098025457404  0.5315533172871767  0.2286615582927496  1.0000
  H   H25       1.0  0.1343243371318366  0.7018341914657498  0.1948553423087915  1.0000
  H   H26       1.0  0.865670045546452  0.298163951034617  0.694854626181609  1.0000
  H   H27       1.0  0.4323000294182506  0.2982522926944853  0.805047980521337  1.0000
  H   H28       1.0  0.5676964796009116  0.7017458498058815  0.3050479805213371  1.0000
  H   H29       1.0  0.9743758242486533  0.54598477984635  0.9280542824405629  1.0000
  H   H30       1.0  0.025625036659896235  0.4540156874345342  0.4280549985677453  1.0000
  H   H31       1.0  0.4286860852804751  0.4540079381661286  0.0719664852477777  1.0000
  H   H32       1.0  0.571311198657412  0.5459917541879165  0.5719664852477777  1.0000
  H   H33       1.0  0.9405736700463407  0.3752490236121345  0.0065561443712383  1.0000
  H   H34       1.0  0.059429317203083094  0.6247514436687496  0.5065590088799752  1.0000
  H   H35       1.0  0.565840020322753  0.6247584180103161  0.9935355199083347  1.0000
  H   H36       1.0  0.4341558129853311  0.3752404994168828  0.4935362360355171  1.0000
  H   H37       1.0  0.0028023807645567137  0.7135774328136364  0.9404217989114867  1.0000
  H   H38       1.0  0.9971967412624851  0.286423809394087  0.4404217989114869  1.0000
  H   H39       1.0  0.2892316842719964  0.286460230955619  0.0594779432827295  1.0000
  H   H40       1.0  0.7107680142584698  0.7135379115447478  0.5594779432827295  1.0000
  H   H41       1.0  0.1619180013988881  0.8237239841338138  0.8314594672013769  1.0000
  H   H42       1.0  0.8380811206281535  0.17627725807390954  0.3314594672013769  1.0000
  H   H43       1.0  0.3381418687373596  0.1763849729048061  0.1684925522772858  1.0000
  H   H44       1.0  0.6618596678822684  0.8236147194492387  0.6684911200229138  1.0000
  H   H45       1.0  0.36917310130113634  0.7964504339662781  0.0948789745058747  1.0000
  H   H46       1.0  0.6308263089776177  0.20354925838776688  0.5948796906330571  1.0000
  H   H47       1.0  0.5728008006793814  0.20356243214406075  0.9051553995989678  1.0000
  H   H48       1.0  0.42720034848088767  0.7964364852831378  0.4051553995989678  1.0000
  H   H49       1.0  0.5889173067612533  0.906012690448371  0.9658077914637602  1.0000
  H   H50       1.0  0.411081716058142  0.09398622697882787  0.4658085075909497  1.0000
  H   H51       1.0  0.682854153485792  0.09396607888096037  0.0342874534517321  1.0000
  H   H52       1.0  0.3171484463042731  0.9060336134730774  0.5342867373245497  1.0000
  C   C1        1.0  0.760868515300089  0.98541401935352  0.190191205958179  1.0000
  C   C2        1.0  0.23913012005994724  0.014584123146839496  0.6901890575766244  1.0000
  C   C3        1.0  0.7756892706937535  0.014527553487454296  0.8097679747923222  1.0000
  C   C4        1.0  0.22431187846651565  0.9854713639397515  0.3097679747923223  1.0000
  C   C5        1.0  0.8442115279151282  0.9208130181838426  0.1483887138355797  1.0000
  C   C6        1.0  0.155787494904267  0.0791858992433632  0.6483879977083902  1.0000
  C   C7        1.0  0.9236240365604333  0.07906888529037559  0.8515769120595849  1.0000
  C   C8        1.0  0.07637750005919487  0.9209308070636693  0.3515783443139497  1.0000
  C   C9        1.0  0.7697766446152626  0.8146092946304576  0.1323531939272442  1.0000
  C   C10       1.0  0.23022276566349123  0.1853903977235802  0.6323531939272441  1.0000
  C   C11       1.0  0.9553138454655967  0.1852571103069351  0.8676310512747065  1.0000
  C   C12       1.0  0.04468914178382727  0.8147433569739488  0.36763319965626096  1.0000
  C   C13       1.0  0.8463459326292123  0.7552173516857079  0.0908557719851046  1.0000
  C   C14       1.0  0.15365309019018272  0.24478156574149773  0.5908557719851046  1.0000
  C   C15       1.0  0.09124738691171067  0.24468005032532855  0.9091263248352917  1.0000
  C   C16       1.0  0.9087562760487913  0.7553196420287164  0.4091277570896565  1.0000
  C   C17       1.0  0.9985788426829172  0.8008016481782574  0.0640991120022889  1.0000
  C   C18       1.0  0.0014209550552024954  0.1991988191026266  0.5640991120022889  1.0000
  C   C19       1.0  0.19797174060000342  0.1991569730532134  0.9358350042967629  1.0000
  C   C20       1.0  0.8020287328491876  0.8008427193008316  0.4358357204239454  1.0000
  C   C21       1.0  0.07426316689986122  0.9055663325879806  0.0833751074190801  1.0000
  C   C22       1.0  0.9257362433788927  0.0944333597660645  0.5833743912918905  1.0000
  C   C23       1.0  0.16895812651214467  0.09437679010667208  0.9165983958751054  1.0000
  C   C24       1.0  0.8310430226481246  0.9056221273205338  0.41659982812947755  1.0000
  C   C25       1.0  0.9972266903617137  0.9653868100757845  0.1247092523632176  1.0000
  C   C26       1.0  0.0027733956281182  0.0346121073514212  0.6247063878544807  1.0000
  C   C27       1.0  0.0320939028814848  0.034529965106273194  0.8752484961329117  1.0000
  C   C28       1.0  0.9679051199379104  0.9654689523209257  0.3752477800057292  1.0000
  C   C29       1.0  0.9996636751023901  0.34233090633505  0.1915769120595812  1.0000
  C   C30       1.0  0.00033534771700526625  0.6576680110921487  0.6915783443139532  1.0000
  C   C31       1.0  0.6575554726918894  0.6577191562636526  0.8084417072472049  1.0000
  C   C32       1.0  0.34244355012750566  0.34227976116354597  0.308441707247205  1.0000
  C   C33       1.0  0.024786429062494602  0.4435905966431193  0.1430406760240643  1.0000
  C   C34       1.0  0.9752119180458295  0.5564090957109257  0.6430428244056116  1.0000
  C   C35       1.0  0.5814496744284767  0.5564408677114016  0.8569865368089395  1.0000
  C   C36       1.0  0.4185476095094103  0.4435588246426363  0.356987252936122  1.0000
  C   C37       1.0  0.07982878823523275  0.5358107653513997  0.1959431395015727  1.0000
  C   C38       1.0  0.9201674325322173  0.4641889270026382  0.6959438556287623  1.0000
  C   C39       1.0  0.5440722177952041  0.46425324593044337  0.8040217702664023  1.0000
  C   C40       1.0  0.45592467868331715  0.5357456714967626  0.30402248639358476  1.0000
  C   C41       1.0  0.0958857990885846  0.6304487058034809  0.1528974505872256  1.0000
  C   C42       1.0  0.9041114848492953  0.36955098655056406  0.6528974505872256  1.0000
  C   C43       1.0  0.46545023976014477  0.3696184051857258  0.8470517043827002  1.0000
  C   C44       1.0  0.5345481073481794  0.6303812871683121  0.3470517043827002  1.0000
  C   C45       1.0  0.058352915415646564  0.6339916713203377  0.0560827843024896  1.0000
  C   C46       1.0  0.9416450442333115  0.36600724610686086  0.5560827843024896  1.0000
  C   C47       1.0  0.42446699461915943  0.3660521918636376  0.9438763964480116  1.0000
  C   C48       1.0  0.575532028200236  0.6339467255635682  0.4438763964480117  1.0000
  C   C49       1.0  0.004297813394728699  0.542085347982642  0.0031788885706092  1.0000
  C   C50       1.0  0.9957012094246666  0.4579135694445568  0.5031803208249812  1.0000
  C   C51       1.0  0.4625138026847894  0.4579220936398087  0.9968511887711244  1.0000
  C   C52       1.0  0.5374845444235348  0.5420775987142363  0.4968526210254964  1.0000
  C   C53       1.0  0.9868835842906024  0.4473823136759307  0.0463678029218002  1.0000
  C   C54       1.0  0.013116889158588694  0.5526173786781143  0.5463699513033546  1.0000
  C   C55       1.0  0.5398700165302586  0.5526344270686181  0.9536837582354636  1.0000
  C   C56       1.0  0.4601283305780584  0.4473652652854269  0.4536851904898285  1.0000
  C   C57       1.0  0.0684965547146844  0.734591898886755  0.007149813806933  1.0000
  C   C58       1.0  0.9315032430234282  0.26540856839413607  0.507149813806933  1.0000
  C   C59       1.0  0.33402951569989636  0.2654349159067237  0.9928057863076488  1.0000
  C   C60       1.0  0.6659705702899359  0.734564001520475  0.4928057863076489  1.0000
  C   C61       1.0  0.24947003298991893  0.833082000665236  0.8845101690060133  1.0000
  C   C62       1.0  0.7505290890371229  0.1669192415424945  0.3845101690060133  1.0000
  C   C63       1.0  0.4163750738947201  0.16697968583608966  0.1155005729017446  1.0000
  C   C64       1.0  0.5836268501842667  0.8330207814447945  0.6154998567745622  1.0000
  C   C65       1.0  0.35973734329419227  0.8180561692190479  0.0212059581781716  1.0000
  C   C66       1.0  0.640262066984562  0.18194352313499704  0.5212059581781716  1.0000
  C   C67       1.0  0.5417313523769707  0.1819938933796621  0.9788341449441444  1.0000
  C   C68       1.0  0.4582701842426573  0.818005798974383  0.4788334288169551  1.0000
  C   C69       1.0  0.4674241773720809  0.8738315285970444  0.9569213692351751  1.0000
  C   C70       1.0  0.5325745571955949  0.1261689386838398  0.4569206531079928  1.0000
  C   C71       1.0  0.593568763089202  0.1261883118548681  0.04313019192208859  1.0000
  C   C72       1.0  0.4064327735304261  0.8738113804991767  0.5431301919220886  1.0000
  N   N1        1.0  0.39706674750843973  0.8829748903935126  0.8718791177313107  1.0000
  N   N2        1.0  0.6029326627703142  0.1170248019605324  0.3718791177313108  1.0000
  N   N3        1.0  0.5140226485368444  0.11705192439996637  0.1281602692638231  1.0000
  N   N4        1.0  0.48598072617193827  0.8829493178077639  0.6281595531366335  1.0000
  N   N5        1.0  0.2224867252619589  0.7923386721481478  0.9735648811228899  1.0000
  N   N6        1.0  0.7775130724761541  0.20766179513273636  0.4735641649957003  1.0000
  N   N7        1.0  0.43025068063203525  0.2077509117194438  0.0264659123460333  1.0000
  N   N8        1.0  0.5697497928171558  0.7922487806346012  0.5264659123460333  1.0000
  O   O1        1.0  0.826225057771218  0.08188031986937007  0.202028788312802  1.0000
  O   O2        1.0  0.17377580313733174  0.918120147411514  0.7020259238040651  1.0000
  O   O3        1.0  0.7444777982138292  0.918059703117919  0.7979203666571166  1.0000
  O   O4        1.0  0.2555241258651577  0.0819407641629653  0.29791965052993413  1.0000
  O   O5        1.0  0.6210435265187897  0.9383767350341683  0.2125959610426804  1.0000
  O   O6        1.0  0.3789565594710425  0.06162218239303029  0.7125959610426804  1.0000
  O   O7        1.0  0.6829031285734217  0.061588085612029886  0.7874462904611831  1.0000
  O   O8        1.0  0.31709628170533216  0.938411606742015  0.2874441420796359  1.0000
  O   O9        1.0  0.00474445896677622  0.3334765922502569  0.2793132340303615  1.0000
  O   O10       1.0  0.995256014482415  0.6665231001037881  0.7793139501575509  1.0000
  O   O11       1.0  0.671328021780667  0.6665525473237393  0.7206917788599227  1.0000
  O   O12       1.0  0.3286728391278899  0.33344791995714457  0.22069177885992267  1.0000
  O   O13       1.0  0.968522567188721  0.2634921743164398  0.1298080779146389  1.0000
  O   O14       1.0  0.03147606817130806  0.7365059681839197  0.6298095101690038  1.0000
  O   O15       1.0  0.7051716587340451  0.7365540136480602  0.8702155542824385  1.0000
  O   O16       1.0  0.2948269766259912  0.2634441288522993  0.3702155542824386  1.0000
