data_image0
_chemical_formula_structural       Zn2H20C40N2O10
_chemical_formula_sum              "Zn2 H20 C40 N2 O10"
_cell_length_a       11.805192571629606
_cell_length_b       13.172414820841917
_cell_length_c       15.268170458113605
_cell_angle_alpha    90.53687460186457
_cell_angle_beta     84.78632477900435
_cell_angle_gamma    83.44971110567099

_space_group_name_H-M_alt    "P 1"
_space_group_IT_number       1

loop_
  _space_group_symop_operation_xyz
  'x, y, z'

loop_
  _atom_site_type_symbol
  _atom_site_label
  _atom_site_symmetry_multiplicity
  _atom_site_fract_x
  _atom_site_fract_y
  _atom_site_fract_z
  _atom_site_occupancy
  Zn  Zn1       1.0  0.6193539281077705  0.4976807922891381  0.49069421990583345  1.0000
  Zn  Zn2       1.0  0.38065249446311356  0.5023205675852509  0.5093084525911422  1.0000
  H   H1        1.0  0.6818531107096177  0.5107496601645565  0.765508399561426  1.0000
  H   H2        1.0  0.7871186116554867  0.518467686736045  0.900028007003989  1.0000
  H   H3        1.0  0.3649769149480094  0.1861653612725505  0.5327320171191231  1.0000
  H   H4        1.0  0.6350536937265047  0.8138246718395268  0.4672625880336483  1.0000
  H   H5        1.0  0.7250545520330718  0.1617214627683978  0.45459567516622446  1.0000
  H   H6        1.0  0.27497645853854646  0.8382793577229677  0.545414657808216  1.0000
  H   H7        1.0  0.8198423635511177  0.391748598893372  0.5620182314210708  1.0000
  H   H8        1.0  0.1801750283812709  0.6082492202315706  0.43795690195283027  1.0000
  H   H9        1.0  0.769098496880204  0.6448960225117016  0.4052493470740046  1.0000
  H   H10       1.0  0.23091036436902362  0.3551082343635557  0.594742049118622  1.0000
  H   H11       1.0  0.16547208982107964  0.9807719211112342  0.5756798860095457  1.0000
  H   H12       1.0  0.3181203778685813  0.4892494576358999  0.23449432133678264  1.0000
  H   H13       1.0  0.8345642818509235  0.01922864299887548  0.42431505193077607  1.0000
  H   H14       1.0  0.02362609759986609  0.3274529452080372  0.6050189600555099  1.0000
  H   H15       1.0  0.9763776121684274  0.6725529059289175  0.3949655516455053  1.0000
  H   H16       1.0  0.32031349625025735  0.49023659305888145  0.7896352739689334  1.0000
  H   H17       1.0  0.6796524560255222  0.5097604691988309  0.21037314324147616  1.0000
  H   H18       1.0  0.21381191334299393  0.4817907191977753  0.9378771022739227  1.0000
  H   H19       1.0  0.7861543313377055  0.5181956182455281  0.062125369995392477  1.0000
  H   H20       1.0  0.21285576649372467  0.481522268831135  0.0999752871505564  1.0000
  C   C1        1.0  0.46213570609486954  0.7007987475739342  0.5026862822204732  1.0000
  C   C2        1.0  0.6483654327617572  0.12383010004552368  0.4705727086684134  1.0000
  C   C3        1.0  0.5547428571557163  0.8613489616449568  0.4851072394341144  1.0000
  C   C4        1.0  0.4452971725543264  0.1386547140500269  0.5149064789106674  1.0000
  C   C5        1.0  0.5531033589474534  0.968829846751504  0.4872633112095314  1.0000
  C   C6        1.0  0.446930869226705  0.031173888578500498  0.5127402828673338  1.0000
  C   C7        1.0  0.05403860967189901  0.3912014697186025  0.5683483653263934  1.0000
  C   C8        1.0  0.9459629691414334  0.6088005974325627  0.43163299075698797  1.0000
  C   C9        1.0  0.1679807305693757  0.4056463057610245  0.5631714408378697  1.0000
  C   C10       1.0  0.8320182479950446  0.5943551227999748  0.43681727805146403  1.0000
  C   C11       1.0  0.14084860688790707  0.548331676767205  0.47441140009608757  1.0000
  C   C12       1.0  0.5379067979279312  0.2991994090362198  0.49731220253852365  1.0000
  C   C13       1.0  0.8591607197541791  0.4516778340254533  0.5255714679017061  1.0000
  C   C14       1.0  0.02209229066332339  0.5405237091650505  0.4755723357897139  1.0000
  C   C15       1.0  0.9779193400791684  0.4594810968461401  0.5244012066493295  1.0000
  C   C16       1.0  0.49916176650177146  0.49960109706695716  0.32908006347527413  1.0000
  C   C17       1.0  0.5008070831394136  0.5004012223034451  0.6709275366025693  1.0000
  C   C18       1.0  0.6031479491723887  0.5060877022773482  0.8078226786699785  1.0000
  C   C19       1.0  0.39682057926365377  0.4939176842162211  0.19218626025227784  1.0000
  C   C20       1.0  0.5010780142041327  0.5002338024644715  0.7690486141786436  1.0000
  C   C21       1.0  0.4988863571025917  0.4997701849142827  0.23096319565662776  1.0000
  C   C22       1.0  0.39864838829793575  0.49434844211808127  0.8215688049465226  1.0000
  C   C23       1.0  0.2922495303547024  0.486813710377234  0.058514084640378904  1.0000
  C   C24       1.0  0.6013169215675661  0.5056547543859721  0.17844228995271288  1.0000
  C   C25       1.0  0.39620159269800576  0.4936819992315122  0.9134981442269277  1.0000
  C   C26       1.0  0.603761168839455  0.5063212555770491  0.08651245213653169  1.0000
  C   C27       1.0  0.500225792898739  0.5000365203973728  0.9534579660504575  1.0000
  C   C28       1.0  0.4997349414963709  0.4999698441312859  0.04655407392305479  1.0000
  C   C29       1.0  0.6047370739345085  0.5065113394331604  0.8995614090995614  1.0000
  C   C30       1.0  0.3952354414184994  0.4934962604785795  0.1004505669367219  1.0000
  C   C31       1.0  0.2926922809381977  0.48691646473531586  0.9690537685960547  1.0000
  C   C32       1.0  0.7072720836918478  0.513079128921305  0.030956706694681188  1.0000
  C   C33       1.0  0.23101754677637837  0.0352513550394775  0.5632987961580298  1.0000
  C   C34       1.0  0.7077313628519663  0.5131776866362684  0.9414986394530087  1.0000
  C   C35       1.0  0.7690122608212775  0.9647448961822886  0.4367083219469733  1.0000
  C   C36       1.0  0.544023478131173  0.18460782689940197  0.4946206635744588  1.0000
  C   C37       1.0  0.45600778824296384  0.8153914097123687  0.5053830988197417  1.0000
  C   C38       1.0  0.3455045723519987  0.9820736035192962  0.5344242015892391  1.0000
  C   C39       1.0  0.6545284009273402  0.017924865646435296  0.4655840389599247  1.0000
  C   C40       1.0  0.35166942918089467  0.876166056930785  0.5294380292450427  1.0000
  N   N1        1.0  0.790301234340916  0.5161542815792188  0.48305252082548117  1.0000
  N   N2        1.0  0.20970233988144568  0.4838446926245154  0.516929358700537  1.0000
  O   O1        1.0  0.5620897007932866  0.6524511489561178  0.4935951811176479  1.0000
  O   O2        1.0  0.7971482727601541  0.8724438451653566  0.42530965137900967  1.0000
  O   O3        1.0  0.4379332493862337  0.3475467391242687  0.5064051572613832  1.0000
  O   O4        1.0  0.3680624866109384  0.6616585345076729  0.5100506358604874  1.0000
  O   O5        1.0  0.6319650274640837  0.33834241590466957  0.4899651521190405  1.0000
  O   O6        1.0  0.5963690774882338  0.4949074526156068  0.35994906812199184  1.0000
  O   O7        1.0  0.4035900645495758  0.5050820999750343  0.6400525393173736  1.0000
  O   O8        1.0  0.40247092513530447  0.503994098503881  0.37440957598177954  1.0000
  O   O9        1.0  0.5974856462934142  0.49602071592123304  0.625598159292309  1.0000
  O   O10       1.0  0.20288915576210803  0.1275544168720302  0.5746865249399846  1.0000
