data_image0
_chemical_formula_structural       Cd2H16C14S2N8O10
_chemical_formula_sum              "Cd2 H16 C14 S2 N8 O10"
_cell_length_a       5.404241265487214
_cell_length_b       5.589933919506514
_cell_length_c       18.46373183486563
_cell_angle_alpha    89.99951349163383
_cell_angle_beta     89.99863674835925
_cell_angle_gamma    104.09338879798062

_space_group_name_H-M_alt    "P 1"
_space_group_IT_number       1

loop_
  _space_group_symop_operation_xyz
  'x, y, z'

loop_
  _atom_site_type_symbol
  _atom_site_label
  _atom_site_symmetry_multiplicity
  _atom_site_fract_x
  _atom_site_fract_y
  _atom_site_fract_z
  _atom_site_occupancy
  Cd  Cd1       1.0  0.3033085216704735  0.737650630350878  0.167717082570249  1.0000
  Cd  Cd2       1.0  0.696698333504081  0.2623392144968051  0.6677160379023164  1.0000
  H   H1        1.0  0.2359731267359493  0.1834519135598853  0.1936981529451671  1.0000
  H   H2        1.0  0.7640108773776861  0.816529268916391  0.6936957526126264  1.0000
  H   H3        1.0  0.9519645181684597  0.029126561278388904  0.1979789036459394  1.0000
  H   H4        1.0  0.04801677697776813  0.9708599435892116  0.6979793594032486  1.0000
  H   H5        1.0  0.03018912350352561  0.044688993202314016  0.05440812498139991  1.0000
  H   H6        1.0  0.9698387027055446  0.9552880889736957  0.554405044613425  1.0000
  H   H7        1.0  0.9810353842612971  0.09704898906961296  0.9209159926188875  1.0000
  H   H8        1.0  0.018984314190213156  0.902957595469438  0.4209039235110836  1.0000
  H   H9        1.0  0.19665173106518818  0.8709402802048062  0.8352285927549801  1.0000
  H   H10       1.0  0.8033429017317957  0.12908541408009463  0.335235390159724  1.0000
  H   H11       1.0  0.46583124336752496  0.5369120212949029  0.0219878527471238  1.0000
  H   H12       1.0  0.5341979209646868  0.4631035937484926  0.5219917278509314  1.0000
  H   H13       1.0  0.743609843225137  0.4437560896062963  0.952956462127375  1.0000
  H   H14       1.0  0.256400807357899  0.5562618050181956  0.4529642550217686  1.0000
  H   H15       1.0  0.29046497301073526  0.5425837116970345  0.7722739285503692  1.0000
  H   H16       1.0  0.7095143666744619  0.4574267251027281  0.27226968140286806  1.0000
  C   C1        1.0  0.12038418400171495  0.9450633050724097  0.015964258087898  1.0000
  C   C2        1.0  0.8796224081955515  0.05494157105194831  0.5159565469421497  1.0000
  C   C3        1.0  0.09466211627310646  0.975500621996581  0.9415967924141029  1.0000
  C   C4        1.0  0.9053357222769663  0.0245067912142147  0.4415842097770906  1.0000
  C   C5        1.0  0.21381308681198874  0.8474755024626502  0.8934811438527249  1.0000
  C   C6        1.0  0.7861717899089984  0.1525380420284321  0.393473374147689  1.0000
  C   C7        1.0  0.3513958057018557  0.6883009917597535  0.9223981124826253  1.0000
  C   C8        1.0  0.6486154000698721  0.3116944578993426  0.4223989916447977  1.0000
  C   C9        1.0  0.3659872064988507  0.6639698834606592  0.9974343877652886  1.0000
  C   C10       1.0  0.6340265712345144  0.3360383851349554  0.4974358448387193  1.0000
  C   C11       1.0  0.670894924584772  0.440889236140535  0.8979245019675162  1.0000
  C   C12       1.0  0.329114023659706  0.5591185199785401  0.3979317916928906  1.0000
  C   C13       1.0  0.4366120307836284  0.4943649254766029  0.8058073421840889  1.0000
  C   C14       1.0  0.5633797981760654  0.5056327355187805  0.3058077574723654  1.0000
  S   S1        1.0  0.7055760278622003  0.31647833825378063  0.1287420132636328  1.0000
  S   S2        1.0  0.2944267069066343  0.6835190113733562  0.6287474925086585  1.0000
  N   N1        1.0  0.25494972485199713  0.7923112526599498  0.0429969941970327  1.0000
  N   N2        1.0  0.7450644632951225  0.20769594113535564  0.5430022608721218  1.0000
  N   N3        1.0  0.47700447287748204  0.5482920736939577  0.8777075505312696  1.0000
  N   N4        1.0  0.522990625531044  0.4516908883956389  0.3777083811650499  1.0000
  N   N5        1.0  0.7464111541848268  0.3305403035442255  0.8422861229857901  1.0000
  N   N6        1.0  0.25357303551308524  0.6694610624261799  0.34229147485775263  1.0000
  N   N7        1.0  0.5970572767643818  0.36481900007827767  0.7841092912019505  1.0000
  N   N8        1.0  0.40292784555032324  0.6351816078728235  0.2841115473757867  1.0000
  O   O1        1.0  0.8929640496279281  0.48713636878049743  0.17596779215215722  1.0000
  O   O2        1.0  0.10703048482509561  0.5128659898471426  0.6759717422584046  1.0000
  O   O3        1.0  0.7853328093700045  0.33202814174104134  0.0527776629830115  1.0000
  O   O4        1.0  0.214666128749066  0.6679878024638982  0.5527777687039618  1.0000
  O   O5        1.0  0.6788364970923483  0.058725294402442806  0.15781240181487993  1.0000
  O   O6        1.0  0.321175039751772  0.9412798041000485  0.6578164881821067  1.0000
  O   O7        1.0  0.449885601257222  0.3770030492630951  0.1364579313853085  1.0000
  O   O8        1.0  0.5501145285776446  0.6229865346787166  0.6364547836778132  1.0000
  O   O9        1.0  0.12572831321511302  0.036363373429395614  0.21748914313479872  1.0000
  O   O10       1.0  0.8742492308031021  0.9636073922118913  0.7174915671168236  1.0000
