data_image0
_chemical_formula_structural       CuH8C8Cl2O6
_chemical_formula_sum              "Cu1 H8 C8 Cl2 O6"
_cell_length_a       5.081959800734417
_cell_length_b       7.707241378472311
_cell_length_c       7.468606536486131
_cell_angle_alpha    97.15543919383775
_cell_angle_beta     99.60056117843192
_cell_angle_gamma    98.85383253422063

_space_group_name_H-M_alt    "P 1"
_space_group_IT_number       1

loop_
  _space_group_symop_operation_xyz
  'x, y, z'

loop_
  _atom_site_type_symbol
  _atom_site_label
  _atom_site_symmetry_multiplicity
  _atom_site_fract_x
  _atom_site_fract_y
  _atom_site_fract_z
  _atom_site_occupancy
  Cu  Cu1       1.0  0.9999998549649121  0.9999992340103885  0.9999979908048999  1.0000
  H   H1        1.0  0.7489341942505021  0.2691374098611092  0.3391703867680746  1.0000
  H   H2        1.0  0.2510575028525821  0.7308685006305495  0.6608263619131093  1.0000
  H   H3        1.0  0.6830506272967012  0.11976730350468755  0.49772895112379695  1.0000
  H   H4        1.0  0.3169390668830586  0.8802385756279631  0.5022689056773898  1.0000
  H   H5        1.0  0.0208446684878894  0.18115873501916005  0.4628443879045818  1.0000
  H   H6        1.0  0.9791477318220455  0.818849737744308  0.5371568494286904  1.0000
  H   H7        1.0  0.5827050588040875  0.9514351470888369  0.21198797659955199  1.0000
  H   H8        1.0  0.41729875812406186  0.04856395959654951  0.7880157999004354  1.0000
  C   C1        1.0  0.7473787753210175  0.45853361211819527  0.8638905661280987  1.0000
  C   C2        1.0  0.2526175898539477  0.541460117577351  0.13611422570697576  1.0000
  C   C3        1.0  0.8666696624848453  0.3214959112022768  0.9298939347802175  1.0000
  C   C4        1.0  0.13333328161591848  0.678478076947435  0.07010055070075077  1.0000
  C   C5        1.0  0.13112420555939508  0.36384469147635196  0.06768449379157458  1.0000
  C   C6        1.0  0.8688752327321223  0.6361676079134283  0.9323248199552978  1.0000
  C   C7        1.0  0.8069800263063837  0.15174780488998607  0.3947253049926259  1.0000
  C   C8        1.0  0.1930167497383762  0.8482620909120012  0.6052726262870607  1.0000
  Cl  Cl1       1.0  0.449402884072441  0.4114729863136474  0.7058733004516426  1.0000
  Cl  Cl2       1.0  0.5506013246855871  0.5885275757137547  0.2941253852672147  1.0000
  O   O1        1.0  0.7670801631846017  0.1554490865255502  0.88316318439837  1.0000
  O   O2        1.0  0.23293552511496776  0.8445570102312274  0.11682826877783731  1.0000
  O   O3        1.0  0.23064667593636295  0.23039872001345427  0.1145944978769791  1.0000
  O   O4        1.0  0.7693551263424465  0.7695856762223269  0.8854108228614308  1.0000
  O   O5        1.0  0.7764690997758166  0.002794733848624299  0.2526685092801131  1.0000
  O   O6        1.0  0.22353419378172384  0.9972097827597463  0.7473320160855578  1.0000
