data_image0
_chemical_formula_structural       Cu2B2H24C26N16O4
_chemical_formula_sum              "Cu2 B2 H24 C26 N16 O4"
_cell_length_a       8.455612601096348
_cell_length_b       10.329624829813378
_cell_length_c       10.295555232256861
_cell_angle_alpha    99.5303745999025
_cell_angle_beta     104.47533825536308
_cell_angle_gamma    98.12021659581995

_space_group_name_H-M_alt    "P 1"
_space_group_IT_number       1

loop_
  _space_group_symop_operation_xyz
  'x, y, z'

loop_
  _atom_site_type_symbol
  _atom_site_label
  _atom_site_symmetry_multiplicity
  _atom_site_fract_x
  _atom_site_fract_y
  _atom_site_fract_z
  _atom_site_occupancy
  Cu  Cu1       1.0  0.2623417435066885  0.8362967379206057  0.27311034536846535  1.0000
  Cu  Cu2       1.0  0.7376582464661967  0.16370575677264304  0.7269033079235783  1.0000
  B   B1        1.0  0.6544288251003822  0.6827191081585652  0.8836591577831641  1.0000
  B   B2        1.0  0.3455747716471791  0.3172795111093619  0.11633623410188679  1.0000
  H   H1        1.0  0.404515925542846  0.5385598557784662  0.629937609060903  1.0000
  H   H2        1.0  0.5954749801614554  0.4614288049886639  0.3700608848263299  1.0000
  H   H3        1.0  0.8475398026444695  0.6747404096315393  0.6823665182206612  1.0000
  H   H4        1.0  0.15246557978549896  0.3252702143826908  0.3176322742593385  1.0000
  H   H5        1.0  0.9797145138731338  0.8464326410978059  0.017360079642031654  1.0000
  H   H6        1.0  0.0202875727636282  0.1535799982872064  0.9826411835496742  1.0000
  H   H7        1.0  0.9221794950170051  0.9219999260112958  0.614061242646912  1.0000
  H   H8        1.0  0.07781077673541151  0.0780148259620077  0.3859404856550626  1.0000
  H   H9        1.0  0.966259039864454  0.60861072080079  0.3103058197505959  1.0000
  H   H10       1.0  0.03375312053795199  0.39137684377882914  0.6896819815722068  1.0000
  H   H11       1.0  0.6364022145824537  0.95970827371773  0.8945821761226185  1.0000
  H   H12       1.0  0.3635845865556888  0.0402834425023926  0.1054158538601584  1.0000
  H   H13       1.0  0.8289638314496272  0.46107370616040544  0.9017455596481054  1.0000
  H   H14       1.0  0.17104991734936448  0.5389289206660023  0.0982412454317014  1.0000
  H   H15       1.0  0.6703821718660308  0.5304032527863854  0.10174275965636066  1.0000
  H   H16       1.0  0.3296259453949731  0.4695964296927643  0.8982422172119655  1.0000
  H   H17       1.0  0.5510456908169559  0.7539219418411348  0.13229025393025043  1.0000
  H   H18       1.0  0.44896636781226124  0.24607252274207525  0.8677113130096855  1.0000
  H   H19       1.0  0.4549895382498051  0.28569682142605046  0.5345539685375797  1.0000
  H   H20       1.0  0.5449996362129496  0.7142927220595539  0.465458843650552  1.0000
  H   H21       1.0  0.13500452118012163  0.8167625024279631  0.8445297651114743  1.0000
  H   H22       1.0  0.8649938522695211  0.18323419868670504  0.15546115046043243  1.0000
  H   H23       1.0  0.3534066970610397  0.7331331417596587  0.7065640320575355  1.0000
  H   H24       1.0  0.6465973514676548  0.2668634199744844  0.2934359840499638  1.0000
  C   C1        1.0  0.49976392848363826  0.48534356917824784  0.6722024389954983  1.0000
  C   C2        1.0  0.5002358575188738  0.5146510168022685  0.3277981797903067  1.0000
  C   C3        1.0  0.8159004092625893  0.7703257019393065  0.716047802785127  1.0000
  C   C4        1.0  0.1841005031788967  0.22967695011768544  0.2839485975898626  1.0000
  C   C5        1.0  0.4422209028077333  0.9949455280827872  0.5489895639009461  1.0000
  C   C6        1.0  0.5577627099722947  0.005060143460767095  0.4510226773325172  1.0000
  C   C7        1.0  0.9358563972609205  0.7722867217816543  0.06958790414220321  1.0000
  C   C8        1.0  0.06415247403282362  0.22771382438196502  0.9304110055606074  1.0000
  C   C9        1.0  0.8530384394308896  0.8929606497945956  0.6836228357412821  1.0000
  C   C10       1.0  0.14696231751985075  0.10704293228966581  0.3163814599813506  1.0000
  C   C11       1.0  0.9244796759472891  0.6468621986238219  0.2182928634787871  1.0000
  C   C12       1.0  0.07553091713483441  0.35313532860566715  0.7817049786041039  1.0000
  C   C13       1.0  0.7060929193737022  0.9163150267647493  0.8293520609761558  1.0000
  C   C14       1.0  0.29390615686043026  0.0836825292919627  0.17065374592562677  1.0000
  C   C15       1.0  0.722562319018401  0.44819360242164646  0.8135082566261858  1.0000
  C   C16       1.0  0.27744031521145746  0.5518060307012079  0.1864870761288843  1.0000
  C   C17       1.0  0.7774563676943416  0.6078387462501311  0.11549984725638039  1.0000
  C   C18       1.0  0.22256026269656107  0.39215679028673384  0.8844903461714324  1.0000
  C   C19       1.0  0.463668366079773  0.7551838314409237  0.03556618896491412  1.0000
  C   C20       1.0  0.5363196759163175  0.24482406579007682  0.9644192837001667  1.0000
  C   C21       1.0  0.5270303126616228  0.36073602348731976  0.62426789774036  1.0000
  C   C22       1.0  0.4729701343303034  0.6392615449084643  0.37573532018974026  1.0000
  C   C23       1.0  0.2526871087610942  0.7873386974193365  0.8852578622807172  1.0000
  C   C24       1.0  0.74731019792835  0.21265995631995346  0.11473993101345308  1.0000
  C   C25       1.0  0.358805825391734  0.7423350421795759  0.8141141485610675  1.0000
  C   C26       1.0  0.6411976133958108  0.257658545881732  0.18588230990675209  1.0000
  N   N1        1.0  0.022664275869011877  0.7497562792934997  0.18787689817048664  1.0000
  N   N2        1.0  0.9773384120783889  0.25024932380567577  0.8121243048540663  1.0000
  N   N3        1.0  0.7855836213253724  0.6882612325440575  0.02082348138313954  1.0000
  N   N4        1.0  0.2144201316362454  0.31174337418505615  0.9791758637806255  1.0000
  N   N5        1.0  0.4942787237989847  0.7203450335079893  0.9108996785577048  1.0000
  N   N6        1.0  0.5057198946927954  0.2796505313577313  0.08910471507968509  1.0000
  N   N7        1.0  0.6240051814561838  0.5404945180354302  0.7934904313332325  1.0000
  N   N8        1.0  0.3759982102983557  0.459504066262781  0.20650879453339144  1.0000
  N   N9        1.0  0.7221891352551141  0.7861346148897111  0.8085674546996061  1.0000
  N   N10       1.0  0.2778094396956092  0.21386403370379975  0.1914296666136579  1.0000
  N   N11       1.0  0.6671902089160255  0.33887527340475293  0.7139068763896574  1.0000
  N   N12       1.0  0.3328151138351743  0.6611253319083801  0.2860892567789008  1.0000
  N   N13       1.0  0.7832824358706463  0.9831005117447873  0.7556978322810721  1.0000
  N   N14       1.0  0.2167140055596875  0.0169020420979678  0.2443130444767121  1.0000
  N   N15       1.0  0.3190939318215698  0.7948490662530503  0.023811078934876783  1.0000
  N   N16       1.0  0.6809133201803093  0.20515451632956425  0.9761869813970704  1.0000
  O   O1        1.0  0.30838284728736204  0.9108191686898477  0.5079311170370174  1.0000
  O   O2        1.0  0.6916024795738309  0.08918039144936071  0.4920882873960365  1.0000
  O   O3        1.0  0.49345291261232654  0.07525076415647898  0.6662573518854485  1.0000
  O   O4        1.0  0.5065324261713258  0.9247568934322742  0.333755630631515  1.0000
