data_image0
_chemical_formula_structural       Y2H12C18Cl6O18
_chemical_formula_sum              "Y2 H12 C18 Cl6 O18"
_cell_length_a       9.13736076679927
_cell_length_b       10.066570176411217
_cell_length_c       10.813523106849761
_cell_angle_alpha    65.53015258180366
_cell_angle_beta     67.63847145832618
_cell_angle_gamma    70.9407814340076

_space_group_name_H-M_alt    "P 1"
_space_group_IT_number       1

loop_
  _space_group_symop_operation_xyz
  'x, y, z'

loop_
  _atom_site_type_symbol
  _atom_site_label
  _atom_site_symmetry_multiplicity
  _atom_site_fract_x
  _atom_site_fract_y
  _atom_site_fract_z
  _atom_site_occupancy
  Y   Y1        1.0  0.26089619737751946  0.35515773032791026  0.3122497165818602  1.0000
  Y   Y2        1.0  0.7391028463108992  0.6448440256552033  0.6877500201565356  1.0000
  H   H1        1.0  0.9411567646090757  0.5758888269625118  0.36630719275056844  1.0000
  H   H2        1.0  0.05882033977177758  0.4241558110669529  0.6336985910317312  1.0000
  H   H3        1.0  0.06514569914379105  0.6435796803224532  0.3708567121789699  1.0000
  H   H4        1.0  0.9348801101641084  0.35647711383217023  0.6290652466271567  1.0000
  H   H5        1.0  0.4891664609152073  0.32915536777833404  0.017414955454143045  1.0000
  H   H6        1.0  0.5106615337780623  0.6707258060561755  0.9825769522865145  1.0000
  H   H7        1.0  0.4394963878252368  0.1761356920410861  0.12403935872992378  1.0000
  H   H8        1.0  0.5604377855739668  0.8237439107652944  0.8760812547941513  1.0000
  H   H9        1.0  0.6033437287266634  0.19683706060848039  0.32901311393189303  1.0000
  H   H10       1.0  0.3966976749918415  0.8032003126270978  0.6709059399667227  1.0000
  H   H11       1.0  0.48963194804018434  0.08358905664945837  0.3879159225239732  1.0000
  H   H12       1.0  0.5104213716677107  0.9164055329130604  0.612157192173271  1.0000
  C   C1        1.0  0.02547343984429768  0.12420526450257087  0.5161358280212341  1.0000
  C   C2        1.0  0.9744767534306505  0.8758281070249434  0.48391075713434617  1.0000
  C   C3        1.0  0.15187439601453426  0.04451380427956049  0.4145784542017807  1.0000
  C   C4        1.0  0.848098619585222  0.9555044851510673  0.5854929307659165  1.0000
  C   C5        1.0  0.8812442456099914  0.07375378380120877  0.5996751695756118  1.0000
  C   C6        1.0  0.1187253045934681  0.9262759468080402  0.4003806891236863  1.0000
  C   C7        1.0  0.3745797015383232  0.4331460016100691  0.5197314534146358  1.0000
  C   C8        1.0  0.6254271739284645  0.566852555949417  0.48023647596307495  1.0000
  C   C9        1.0  0.4776360861843471  0.5072883621207467  0.3707431065418946  1.0000
  C   C10       1.0  0.522365462942787  0.49272783533129416  0.629221945651608  1.0000
  C   C11       1.0  0.40444632199694996  0.42385796199951636  0.6416538639284328  1.0000
  C   C12       1.0  0.5955740192647523  0.5761384036258974  0.3583113334521785  1.0000
  C   C13       1.0  0.12017907528969118  0.5280797455695918  0.03960450418232141  1.0000
  C   C14       1.0  0.8798708903537001  0.4719111598792691  0.9603744557127886  1.0000
  C   C15       1.0  0.032741765230511435  0.3971077318738736  0.1274392936248105  1.0000
  C   C16       1.0  0.9673059384382368  0.6028761977269569  0.8725450646318649  1.0000
  C   C17       1.0  0.07195757625775898  0.6325455438760558  0.9205196653733126  1.0000
  C   C18       1.0  0.9281066197185119  0.3674384575803983  0.07945028339088392  1.0000
  Cl  Cl1       1.0  0.743931700182294  0.15829741058018945  0.7198408809233002  1.0000
  Cl  Cl2       1.0  0.25607245646649085  0.8417144546591544  0.280232975482221  1.0000
  Cl  Cl3       1.0  0.2943580420524653  0.3261984832022974  0.8058006375244277  1.0000
  Cl  Cl4       1.0  0.705660223334483  0.6737783872467276  0.1941763600432863  1.0000
  Cl  Cl5       1.0  0.14999968362774743  0.7930974831927667  0.8252202200816401  1.0000
  Cl  Cl6       1.0  0.8500668041002368  0.20687380484959308  0.1747276787920883  1.0000
  O   O1        1.0  0.06247173798288935  0.2348517117136453  0.517180617586  1.0000
  O   O2        1.0  0.9374831504438458  0.7651944742689379  0.4828358727599353  1.0000
  O   O3        1.0  0.2817891640506716  0.09402632810807889  0.3481742028859927  1.0000
  O   O4        1.0  0.7182059403574069  0.9059604410291654  0.6519250930502523  1.0000
  O   O5        1.0  0.2618050643959647  0.383585594062616  0.5226244447687877  1.0000
  O   O6        1.0  0.7381927184977707  0.6164161314542013  0.47735602967199514  1.0000
  O   O7        1.0  0.4457281716003293  0.5015233983183762  0.2684416661217953  1.0000
  O   O8        1.0  0.5542432252580124  0.49851309135234356  0.7315315468422057  1.0000
  O   O9        1.0  0.23019437302337303  0.5295819333490783  0.08252330883771458  1.0000
  O   O10       1.0  0.7698545024189154  0.4704062287044193  0.9174613874122955  1.0000
  O   O11       1.0  0.06339364323549995  0.3205298499657303  0.24473987298375025  1.0000
  O   O12       1.0  0.9366403362768734  0.6794601880356195  0.75525080354128  1.0000
  O   O13       1.0  0.05913416388069947  0.5681196555858747  0.3378772720287131  1.0000
  O   O14       1.0  0.9408509410010732  0.43192203130809054  0.6620844648798682  1.0000
  O   O15       1.0  0.4620899548168037  0.2675751980322262  0.1171903162731809  1.0000
  O   O16       1.0  0.5378463474614887  0.7323497671023774  0.8828186037863476  1.0000
  O   O17       1.0  0.4992238300128661  0.17336930872166786  0.3963338316628652  1.0000
  O   O18       1.0  0.500824176645132  0.8266970901764592  0.6036133470425825  1.0000
