data_image0
_chemical_formula_structural       Zn4H26C48O16F2
_chemical_formula_sum              "Zn4 H26 C48 O16 F2"
_cell_length_a       6.788219442017737
_cell_length_b       10.860557216758483
_cell_length_c       34.98567394589156
_cell_angle_alpha    90.00856883046497
_cell_angle_beta     90.31072647768767
_cell_angle_gamma    90.41284523710719

_space_group_name_H-M_alt    "P 1"
_space_group_IT_number       1

loop_
  _space_group_symop_operation_xyz
  'x, y, z'

loop_
  _atom_site_type_symbol
  _atom_site_label
  _atom_site_symmetry_multiplicity
  _atom_site_fract_x
  _atom_site_fract_y
  _atom_site_fract_z
  _atom_site_occupancy
  Zn  Zn1       1.0  0.7097869222994292  0.003960967413661402  0.5003155136013648  1.0000
  Zn  Zn2       1.0  0.3134989261660124  0.9997801870750326  0.49985323292260386  1.0000
  Zn  Zn3       1.0  0.19631312613801552  0.996843261247264  0.9996982360240523  1.0000
  Zn  Zn4       1.0  0.592702251268591  0.9961883798964738  0.00014775848680419982  1.0000
  H   H1        1.0  0.7758916094751742  0.9960013020524985  0.8756646022031377  1.0000
  H   H2        1.0  0.7434459009792604  0.996555139262526  0.8050244065760525  1.0000
  H   H3        1.0  0.1107219971938562  0.9951856812834098  0.8156773457582744  1.0000
  H   H4        1.0  0.14654232875508202  0.9947364813832068  0.8865973536670353  1.0000
  H   H5        1.0  0.804905486726291  0.997214775697387  0.6833750038235282  1.0000
  H   H6        1.0  0.17296515266765772  0.9961024228621017  0.6957101599960183  1.0000
  H   H7        1.0  0.13526334413366922  0.9973698864286862  0.6251917657758385  1.0000
  H   H8        1.0  0.7637790376062343  0.9988103531660643  0.6125986263524368  1.0000
  H   H9        1.0  0.23475806542032981  0.9964339301675978  0.7554322396380329  1.0000
  H   H10       1.0  0.6837044971464155  0.9957218169689741  0.74429731324458  1.0000
  H   H11       1.0  0.7751220780071507  0.9953126629219611  0.1249667230278249  1.0000
  H   H12       1.0  0.7428638892796898  0.9958296318166121  0.1955323811030496  1.0000
  H   H13       1.0  0.11011792675524391  0.9958277348975886  0.1836306635093834  1.0000
  H   H14       1.0  0.1457097057739105  0.9953559269130849  0.1127840108224518  1.0000
  H   H15       1.0  0.8047256546508805  0.9967146014162653  0.3172716295529341  1.0000
  H   H16       1.0  0.17268549482303544  0.9953127163356471  0.30380274402711654  1.0000
  H   H17       1.0  0.1356407426951023  0.9966933814383054  0.3742560499652328  1.0000
  H   H18       1.0  0.7642578186149722  0.9983785562073568  0.38798546851056415  1.0000
  H   H19       1.0  0.23426038714357136  0.9967319826210856  0.2441270198539982  1.0000
  H   H20       1.0  0.6832134461924682  0.9947799969127045  0.2561535186751415  1.0000
  H   H21       1.0  0.9098962005547409  0.6146001568959321  0.5012624395739067  1.0000
  H   H22       1.0  0.27624133986886085  0.6215116221966568  0.4992641555694348  1.0000
  H   H23       1.0  0.8975206773273285  0.3837337838186201  0.5011501879631837  1.0000
  H   H24       1.0  0.9933916340448405  0.6060712933414224  0.999840052002611  1.0000
  H   H25       1.0  0.62712198272515  0.6176291878746696  0.9993152906687043  1.0000
  H   H26       1.0  0.004851212922695  0.3752992599268481  0.9998547199579876  1.0000
  C   C1        1.0  0.5934052935737243  0.7699095498103858  0.50023940374723  1.0000
  C   C2        1.0  0.4340965088081817  0.9992457087134314  0.5720485120193644  1.0000
  C   C3        1.0  0.5829318494646571  0.234940384886805  0.5001434615461235  1.0000
  C   C4        1.0  0.4346253139807672  0.9988383852143131  0.4279354691314481  1.0000
  C   C5        1.0  0.3112146305239847  0.7637582056078147  0.9997272369252315  1.0000
  C   C6        1.0  0.47394702053189525  0.9952179571277571  0.927978416232911  1.0000
  C   C7        1.0  0.31953011729412145  0.22880357001371723  0.999771444528271  1.0000
  C   C8        1.0  0.4731470710926048  0.9952015162988703  0.0720516967026441  1.0000
  C   C9        1.0  0.4629191581697043  0.9953220820450215  0.8854830950317095  1.0000
  C   C10       1.0  0.630767651869178  0.9958014437549352  0.8621860053904271  1.0000
  C   C11       1.0  0.6112924128692185  0.9961040289492902  0.8226107676424377  1.0000
  C   C12       1.0  0.42357736106296073  0.9958618401299122  0.804947836384379  1.0000
  C   C13       1.0  0.2569511191249774  0.9953771755101712  0.8288190389280106  1.0000
  C   C14       1.0  0.27563985596244583  0.9950973693583767  0.8682737485162451  1.0000
  C   C15       1.0  0.39026076214017996  0.9961430642781935  0.7638314038904213  1.0000
  C   C16       1.0  0.5279711243434875  0.9960625403525186  0.7360443397821613  1.0000
  C   C17       1.0  0.6576564684149063  0.997287261079869  0.6706650729757655  1.0000
  C   C18       1.0  0.4927386541710917  0.9966080137945287  0.6949689722217086  1.0000
  C   C19       1.0  0.30383204819077053  0.9966692050167154  0.6777751309177731  1.0000
  C   C20       1.0  0.2813665105909848  0.9973554879603698  0.6382588527607781  1.0000
  C   C21       1.0  0.44753838818407143  0.9981703672694379  0.6145273215707479  1.0000
  C   C22       1.0  0.6359872516059468  0.9981146606427632  0.6312641270173955  1.0000
  C   C23       1.0  0.46212257728637246  0.9952655143931538  0.11452261460508592  1.0000
  C   C24       1.0  0.6300315200778215  0.9953643161696634  0.1381550690580013  1.0000
  C   C25       1.0  0.6106246926553353  0.9956608394859076  0.17769082289108704  1.0000
  C   C26       1.0  0.42295089889674387  0.995754914242653  0.19498680475253852  1.0000
  C   C27       1.0  0.2562975859010166  0.9956792766737197  0.1707737108169383  1.0000
  C   C28       1.0  0.2748824588973875  0.9953972414978343  0.1313577954462488  1.0000
  C   C29       1.0  0.3897441645191009  0.9960390675289905  0.23604350694066062  1.0000
  C   C30       1.0  0.5275308100554882  0.9954922303065813  0.2641062805169838  1.0000
  C   C31       1.0  0.6576049173735399  0.996738894395186  0.32972818273294996  1.0000
  C   C32       1.0  0.4925084751234935  0.9959916714173079  0.3051158024515885  1.0000
  C   C33       1.0  0.3037323907271486  0.9959481765892734  0.32196555980317504  1.0000
  C   C34       1.0  0.28162277822208637  0.9966607174226428  0.3614418136778071  1.0000
  C   C35       1.0  0.44795839741540533  0.997609731246016  0.3854809143037557  1.0000
  C   C36       1.0  0.636294879652887  0.9976091187217621  0.3690925283293467  1.0000
  C   C37       1.0  0.5830888470571836  0.3723686348104068  0.5001704834965892  1.0000
  C   C38       1.0  0.594290726585605  0.6322829120757092  0.5002702409337305  1.0000
  C   C39       1.0  0.40975825005990885  0.44249643795937055  0.49965569293988216  1.0000
  C   C40       1.0  0.7698450378369727  0.5652424156940087  0.5008047279020006  1.0000
  C   C41       1.0  0.4131968380205393  0.570056138896753  0.49970725299109386  1.0000
  C   C42       1.0  0.7629171636162013  0.43731657714069894  0.5007532074826884  1.0000
  C   C43       1.0  0.31928905347658093  0.3662276568241154  0.9996530268904068  1.0000
  C   C44       1.0  0.3091840614821209  0.6261029349190609  0.999599131161496  1.0000
  C   C45       1.0  0.4928823668825687  0.4376586126548645  0.999454307457988  1.0000
  C   C46       1.0  0.1332688332079357  0.5577709487342589  0.9997330745319246  1.0000
  C   C47       1.0  0.4899451829889543  0.5651645706114437  0.9994157491358421  1.0000
  C   C48       1.0  0.1396857301787549  0.4298594195147417  0.9997512752754361  1.0000
  O   O1        1.0  0.7610805170703756  0.8267155259823442  0.5003889305810247  1.0000
  O   O2        1.0  0.4261465240346071  0.8214937413802943  0.500055383622339  1.0000
  O   O3        1.0  0.26376389795844096  0.997634918095969  0.5554071612857429  1.0000
  O   O4        1.0  0.5975172912741159  0.001690977300285101  0.5544177623794015  1.0000
  O   O5        1.0  0.418281052220344  0.17909620526096864  0.4999785469637387  1.0000
  O   O6        1.0  0.7527442933329667  0.1818595334278115  0.5003195250153069  1.0000
  O   O7        1.0  0.5979920702434927  0.0013646290009319002  0.4459250800854662  1.0000
  O   O8        1.0  0.2642385228915103  0.997339769469463  0.4442013479006732  1.0000
  O   O9        1.0  0.14389617696564733  0.8195301460281358  0.999592606489216  1.0000
  O   O10       1.0  0.4786945377169261  0.8165275518192487  0.9999798034856724  1.0000
  O   O11       1.0  0.64381241904983  0.9947652399011846  0.9448342915852666  1.0000
  O   O12       1.0  0.30993281295731384  0.9956512242113222  0.9453990569113772  1.0000
  O   O13       1.0  0.4841453067706923  0.17442943856930532  9.713743729399953e-06  1.0000
  O   O14       1.0  0.14987986357679262  0.17390792928490842  0.9996306488066155  1.0000
  O   O15       1.0  0.3091677574908758  0.9956807324029172  0.0542746672760686  1.0000
  O   O16       1.0  0.6430826110095681  0.9947131683812958  0.05557386376182901  1.0000
  F   F1        1.0  0.22954082238540255  0.3875912320974919  0.4990126574373477  1.0000
  F   F2        1.0  0.67297500110913  0.38419737045801855  0.9992633582165809  1.0000
