data_image0
_chemical_formula_structural       Cd4H40C40N16O20
_chemical_formula_sum              "Cd4 H40 C40 N16 O20"
_cell_length_a       7.989403117
_cell_length_b       10.68080299785681
_cell_length_c       14.8034
_cell_angle_alpha    93.29235368164501
_cell_angle_beta     90.0
_cell_angle_gamma    90.0

_space_group_name_H-M_alt    "P 1"
_space_group_IT_number       1

loop_
  _space_group_symop_operation_xyz
  'x, y, z'

loop_
  _atom_site_type_symbol
  _atom_site_label
  _atom_site_symmetry_multiplicity
  _atom_site_fract_x
  _atom_site_fract_y
  _atom_site_fract_z
  _atom_site_occupancy
  Cd  Cd1       1.0  0.0061982102135545  0.0956094291046412  0.6235255071861019  1.0000
  Cd  Cd2       1.0  0.5062005184585772  0.4043908417340347  0.3764740649482902  1.0000
  Cd  Cd3       1.0  0.9938026513026159  0.9043920503797622  0.37647502698348484  1.0000
  Cd  Cd4       1.0  0.4938040980314682  0.5956087621362656  0.6235243649401951  1.0000
  H   H1        1.0  0.7181612838875608  0.9181478042405473  0.6748684957615012  1.0000
  H   H2        1.0  0.2181614789584572  0.5818539460825392  0.32513161054248485  1.0000
  H   H3        1.0  0.2818395776286096  0.0818536752438632  0.32513136288760347  1.0000
  H   H4        1.0  0.7818418858736393  0.4181475334018714  0.6748689236271019  1.0000
  H   H5        1.0  0.2168835361821948  0.665085259887995  0.4609527509904581  1.0000
  H   H6        1.0  0.7168845927692615  0.8349136770139296  0.5390465632135886  1.0000
  H   H7        1.0  0.7831160736760197  0.3349152817893568  0.5390477443193191  1.0000
  H   H8        1.0  0.2831150170889529  0.1650859268563707  0.4609518666748968  1.0000
  H   H9        1.0  0.2447191575350303  0.8607962138835603  0.715140334191446  1.0000
  H   H10       1.0  0.7447189624641408  0.639205536439519  0.2848590965920507  1.0000
  H   H11       1.0  0.755282955639103  0.1392052656008431  0.2848588489371622  1.0000
  H   H12       1.0  0.2552831507099923  0.360796880851936  0.715140125396381  1.0000
  H   H13       1.0  0.6763421398154463  0.4305303377363288  0.8150594000621397  1.0000
  H   H14       1.0  0.1763435865442986  0.0694689952952956  0.1849408087329323  1.0000
  H   H15       1.0  0.3236549667268491  0.5694692661339786  0.1849424074287995  1.0000
  H   H16       1.0  0.8236560233139156  0.9305306085750047  0.8150589721965319  1.0000
  H   H17       1.0  0.6240591352051084  0.5451678719565507  0.9629969999346955  1.0000
  H   H18       1.0  0.12406058193396058  0.9548310649453741  0.03700298978984049  1.0000
  H   H19       1.0  0.3759392229951501  0.4548336075278598  0.0370042097553807  1.0000
  H   H20       1.0  0.8759377762662977  0.0451666633108161  0.9629973889404794  1.0000
  H   H21       1.0  0.9935460614210001  0.3199638239353604  0.0895272740957296  1.0000
  H   H22       1.0  0.4935500114657714  0.1800345712892124  0.910471544798547  1.0000
  H   H23       1.0  0.006448541805376398  0.6800367177419915  0.9104732212140405  1.0000
  H   H24       1.0  0.5064483467344869  0.8199631569669847  0.0895268073703122  1.0000
  H   H25       1.0  0.052510806358903  0.2079812214836068  0.9390320559551597  1.0000
  H   H26       1.0  0.5525143662618888  0.2920181115480176  0.06096747731942288  1.0000
  H   H27       1.0  0.9474863001833924  0.7920202580008038  0.0609684782144271  1.0000
  H   H28       1.0  0.4474852435963256  0.7079796167081724  0.9390315503699256  1.0000
  H   H29       1.0  0.5536145736079516  0.11276098230616328  0.6979895413130421  1.0000
  H   H30       1.0  0.053614768678848186  0.3872402263395642  0.30201074520166327  1.0000
  H   H31       1.0  0.4463862879082185  0.8872395593711886  0.3020109539967279  1.0000
  H   H32       1.0  0.9463860928373291  0.6127621909518908  0.6979891523072582  1.0000
  H   H33       1.0  0.4807029941733773  0.9956228583516022  0.6160329404510348  1.0000
  H   H34       1.0  0.9807040507604441  0.5043779541644327  0.3839664514726451  1.0000
  H   H35       1.0  0.5192966156848371  0.0043776833257496  0.3839668793382458  1.0000
  H   H36       1.0  0.019298062413689393  0.495625400934088  0.6160328093756036  1.0000
  H   H37       1.0  0.5964062559142957  0.1274423517287531  0.5806722800604476  1.0000
  H   H38       1.0  0.0964064509851923  0.3725569813028713  0.41932860425510643  1.0000
  H   H39       1.0  0.4035933539439185  0.8725563143344957  0.4193288130501784  1.0000
  H   H40       1.0  0.9035931588730219  0.6274454359885908  0.5806706177333182  1.0000
  C   C1        1.0  0.19997614047041876  0.735499564693221  0.5161949674723232  1.0000
  C   C2        1.0  0.6999771970574853  0.7645003100157551  0.4838057366325188  1.0000
  C   C3        1.0  0.8000234693877954  0.2645009769841309  0.48380552783744685  1.0000
  C   C4        1.0  0.3000224128007289  0.2354983560474935  0.5161946809576179  1.0000
  C   C5        1.0  0.214800777338219  0.833568861699206  0.645252913165109  1.0000
  C   C6        1.0  0.7148005822673298  0.6664338264309322  0.35474655647821157  1.0000
  C   C7        1.0  0.7852013358359144  0.1664326177851976  0.3547469454839955  1.0000
  C   C8        1.0  0.2852015309068037  0.3335685908605299  0.6452533410307097  1.0000
  C   C9        1.0  0.9052778904859975  0.2410792458228883  0.7792392083536512  1.0000
  C   C10       1.0  0.40528058887280577  0.258920087208736  0.2207603249209242  1.0000
  C   C11       1.0  0.0947217193722167  0.7589212958544636  0.2207612869561189  1.0000
  C   C12       1.0  0.5947215243013273  0.7410785788545127  0.7792400926692125  1.0000
  C   C13       1.0  0.8678846089573256  0.3106692182280923  0.8681510107911449  1.0000
  C   C14       1.0  0.36788730734414077  0.18932917699648039  0.1318491591441102  1.0000
  C   C15       1.0  0.1321162525588448  0.6893331990633698  0.1318502377587478  1.0000
  C   C16       1.0  0.6321173091459116  0.8106666756456065  0.8681511418665834  1.0000
  C   C17       1.0  0.7466490190371002  0.40579755231429  0.8744497250072597  1.0000
  C   C18       1.0  0.24665046576595265  0.094202718524393  0.1255498471271395  1.0000
  C   C19       1.0  0.2533518424790699  0.5942020515560102  0.1255500559222114  1.0000
  C   C20       1.0  0.7533516474081805  0.9057968853459072  0.8744512848433033  1.0000
  C   C21       1.0  0.7156629746011589  0.4700870392530874  0.9571243552486024  1.0000
  C   C22       1.0  0.2156656729879742  0.029912293778537  0.0428758535464695  1.0000
  C   C23       1.0  0.2843316286252175  0.5299116268101614  0.0428753868210521  1.0000
  C   C24       1.0  0.784332685212284  0.970088247898815  0.9571239662428113  1.0000
  C   C25       1.0  0.8057110031540304  0.4375329430048325  0.03310562235498081  1.0000
  C   C26       1.0  0.3057149531988017  0.0624654522197332  0.9668952231007566  1.0000
  C   C27       1.0  0.1942873550462281  0.562468536479571  0.9668935607736273  1.0000
  C   C28       1.0  0.6942871599753317  0.9375313382294053  0.033105792290236  1.0000
  C   C29       1.0  0.9263157574628591  0.3429391589391315  0.028861699384421496  1.0000
  C   C30       1.0  0.4263172041917115  0.157062049706596  0.9711379116097874  1.0000
  C   C31       1.0  0.0736813490794361  0.6570623205452719  0.9711388347851653  1.0000
  C   C32       1.0  0.5736811540085398  0.8429375541637044  0.0288618693196767  1.0000
  C   C33       1.0  0.9569513376702472  0.2803902418916309  0.9455904276793206  1.0000
  C   C34       1.0  0.4569527843990996  0.21961002894704507  0.054409819975568  1.0000
  C   C35       1.0  0.043045768872048  0.7196112375927726  0.054412133051734195  1.0000
  C   C36       1.0  0.5430455738011517  0.7803886371162037  0.945589246573597  1.0000
  C   C37       1.0  0.5834941524080293  0.060899314440384  0.6337946732354  1.0000
  C   C38       1.0  0.08349685079484458  0.4391000185912405  0.3662062110801543  1.0000
  C   C39       1.0  0.41650420579222197  0.9390993516228576  0.36620641987522606  1.0000
  C   C40       1.0  0.9165052623792889  0.5609023987002217  0.6337930109082706  1.0000
  N   N1        1.0  0.1197073155521409  0.9031560206832481  0.5933895068146029  1.0000
  N   N2        1.0  0.6197071204812516  0.5968457296398384  0.40661059948938316  1.0000
  N   N3        1.0  0.8802960492799485  0.0968454588011625  0.4066103518345016  1.0000
  N   N4        1.0  0.3802949926928817  0.40315387423046195  0.5933878303991023  1.0000
  N   N5        1.0  0.10992560860163537  0.839675861231619  0.5100269567133537  1.0000
  N   N6        1.0  0.609926665188695  0.6603240134773571  0.489973071870999  1.0000
  N   N7        1.0  0.8900752529145421  0.1603256182527915  0.4899729019357437  1.0000
  N   N8        1.0  0.3900729446695195  0.3396727769717813  0.5100265924790222  1.0000
  N   N9        1.0  0.2681789826627892  0.7277767236076258  0.5995084464851316  1.0000
  N   N10       1.0  0.7681800392498559  0.7722240889084091  0.400492296479527  1.0000
  N   N11       1.0  0.731823130511337  0.2722238180697261  0.40049069778366686  1.0000
  N   N12       1.0  0.23182082226631445  0.2277764527689499  0.5995102253917111  1.0000
  N   N13       1.0  0.7752606683245915  0.5067356010969348  0.1199295543498167  1.0000
  N   N14       1.0  0.2752633667114068  0.9932614601908795  0.8800710331755752  1.0000
  N   N15       1.0  0.2247389415336229  0.493264940580417  0.8800709409599534  1.0000
  N   N16       1.0  0.7247362431468076  0.0067343924512073  0.1199299433556007  1.0000
  O   O1        1.0  0.9972346974265207  0.1436242124369542  0.7801788843967116  1.0000
  O   O2        1.0  0.4972361441553729  0.3563769962087804  0.2198207265974972  1.0000
  O   O3        1.0  0.002763660773730699  0.8563763292404047  0.2198229619540371  1.0000
  O   O4        1.0  0.5027622140448782  0.6436244832756302  0.7801777810106216  1.0000
  O   O5        1.0  0.8448353276401619  0.2809941896340931  0.7065703691638987  1.0000
  O   O6        1.0  0.3448342710530951  0.21900608120459  0.2934285274500112  1.0000
  O   O7        1.0  0.1551655338760156  0.7190072898503175  0.2934301650056881  1.0000
  O   O8        1.0  0.6551653388051193  0.7809925848586587  0.7065712146196432  1.0000
  O   O9        1.0  0.6701076315210768  0.5926574833388969  0.12229692157764299  1.0000
  O   O10       1.0  0.1701140848817673  0.9073367645277629  0.8777035493682988  1.0000
  O   O11       1.0  0.3298919783371375  0.4073421205314034  0.877704885913289  1.0000
  O   O12       1.0  0.8298892799503221  0.0926553368861107  0.1222965962031211  1.0000
  O   O13       1.0  0.8579977627382502  0.4773475414613059  0.18642732908421072  1.0000
  O   O14       1.0  0.3579954544932278  0.0226499159562081  0.8135721264707385  1.0000
  O   O15       1.0  0.142001847119964  0.5226511246019356  0.8135730885059331  1.0000
  O   O16       1.0  0.6419991487331558  0.977347812299989  0.1864275767390922  1.0000
  O   O17       1.0  0.7387172625501675  0.993761311350397  0.6392903079503043  1.0000
  O   O18       1.0  0.23871870927901984  0.5062395011656307  0.36071043501435435  1.0000
  O   O19       1.0  0.26128485062396567  0.0062401681340063  0.36071090173977177  1.0000
  O   O20       1.0  0.7612859072110325  0.4937601027046695  0.6392893459151097  1.0000
