data_image0
_chemical_formula_structural       Cu4H16C12S4N8Cl8
_chemical_formula_sum              "Cu4 H16 C12 S4 N8 Cl8"
_cell_length_a       7.105152848413215
_cell_length_b       7.9786980695312115
_cell_length_c       11.779119001296575
_cell_angle_alpha    90.000734747283
_cell_angle_beta     89.99959161416261
_cell_angle_gamma    100.27439925707453

_space_group_name_H-M_alt    "P 1"
_space_group_IT_number       1

loop_
  _space_group_symop_operation_xyz
  'x, y, z'

loop_
  _atom_site_type_symbol
  _atom_site_label
  _atom_site_symmetry_multiplicity
  _atom_site_fract_x
  _atom_site_fract_y
  _atom_site_fract_z
  _atom_site_occupancy
  Cu  Cu1       1.0  0.3122003295223977  0.7700437211648816  0.7357018665018629  1.0000
  Cu  Cu2       1.0  0.812203873159099  0.7700485879191987  0.764295456915555  1.0000
  Cu  Cu3       1.0  0.6877970902093722  0.22994774311322166  0.2642976789350158  1.0000
  Cu  Cu4       1.0  0.1878023438334822  0.2299518117271191  0.23570069269985788  1.0000
  H   H1        1.0  0.3955763190767243  0.6814840675651934  0.9804776888528579  1.0000
  H   H2        1.0  0.8955944607049203  0.6814984608527296  0.5195125950038317  1.0000
  H   H3        1.0  0.6044121497345073  0.31850482625211635  0.0195193097128339  1.0000
  H   H4        1.0  0.10441360984187038  0.31851849373796864  0.4804759140371644  1.0000
  H   H5        1.0  0.6754785962085633  0.8519178745034848  0.9915745502237102  1.0000
  H   H6        1.0  0.1754802663254935  0.8518973703340575  0.5084333828270005  1.0000
  H   H7        1.0  0.32453063157399953  0.1480978102686875  0.0084266932084063  1.0000
  H   H8        1.0  0.8245115770686766  0.14808007509767407  0.49157889696243723  1.0000
  H   H9        1.0  0.7756550712361729  0.8724389216101683  0.1316255560341233  1.0000
  H   H10       1.0  0.2756392449591516  0.8724224659226107  0.3683794843506761  1.0000
  H   H11       1.0  0.22436592385702167  0.12757934123290227  0.8683748384234349  1.0000
  H   H12       1.0  0.7243231237175534  0.12756253795414807  0.6316285507341349  1.0000
  H   H13       1.0  0.6615984849104563  0.6702892085659187  0.0831773641917195  1.0000
  H   H14       1.0  0.1616007267132744  0.6702673305475171  0.416829031564852  1.0000
  H   H15       1.0  0.33840073184361336  0.32973281448615666  0.9168306709677765  1.0000
  H   H16       1.0  0.8383975021156546  0.3297139514836616  0.5831883419863502  1.0000
  C   C1        1.0  0.9351830940569527  0.7596458181458202  0.0106122967338678  1.0000
  C   C2        1.0  0.43518544493580447  0.7596431024365342  0.4893843250433179  1.0000
  C   C3        1.0  0.0648206139199274  0.2403418439503894  0.9893855507537737  1.0000
  C   C4        1.0  0.5648132292969449  0.24035473063227633  0.5106160693772992  1.0000
  C   C5        1.0  0.2513447666387307  0.7085695265001559  0.9796393401251039  1.0000
  C   C6        1.0  0.7513422804380239  0.7085864254967829  0.5203568849050768  1.0000
  C   C7        1.0  0.748665634143869  0.29140924226331316  0.0203627521107208  1.0000
  C   C8        1.0  0.24865221000813875  0.2914330384470531  0.47963671793520757  1.0000
  C   C9        1.0  0.7512264681374675  0.790725773117323  0.0561366008105182  1.0000
  C   C10       1.0  0.2512250192781096  0.7907082032620919  0.4438661665605039  1.0000
  C   C11       1.0  0.2487864824147366  0.20928737558813273  0.9438629446831612  1.0000
  C   C12       1.0  0.7487629476866998  0.20927814314376997  0.556141868474711  1.0000
  S   S1        1.0  0.11218320931444481  0.7087006779386014  0.09693610407701668  1.0000
  S   S2        1.0  0.6121929218695358  0.7087093952053252  0.403067428828443  1.0000
  S   S3        1.0  0.8878094840269738  0.29128822741903077  0.9030693840788828  1.0000
  S   S4        1.0  0.387810268575663  0.291311365489669  0.5969338146378148  1.0000
  N   N1        1.0  0.16842097005715576  0.7434754689979997  0.8854178467729953  1.0000
  N   N2        1.0  0.6684380508306943  0.7434686981228749  0.6145662918736079  1.0000
  N   N3        1.0  0.8315660341404721  0.2565274245856699  0.1145689643350281  1.0000
  N   N4        1.0  0.33157777262633914  0.2565304544022027  0.3854179722769331  1.0000
  N   N5        1.0  0.9850333420033763  0.7686409930626111  0.9020651443046788  1.0000
  N   N6        1.0  0.48504077052497513  0.7686336138097403  0.5979314222286547  1.0000
  N   N7        1.0  0.014964927658461089  0.2313619311805083  0.09793185429830228  1.0000
  N   N8        1.0  0.5149680119396436  0.2313655197292164  0.4020655763358789  1.0000
  Cl  Cl1       1.0  0.5436027986175489  0.9779722775338655  0.8099743414435566  1.0000
  Cl  Cl2       1.0  0.0436095791286348  0.9779742343846461  0.6900284181570839  1.0000
  Cl  Cl3       1.0  0.45639215284899143  0.022028091593831796  0.1900269019555694  1.0000
  Cl  Cl4       1.0  0.9563987015170453  0.022022351680277597  0.309972825197562  1.0000
  Cl  Cl5       1.0  0.09719818426593464  0.5403557986322269  0.6729454070188723  1.0000
  Cl  Cl6       1.0  0.597201122858216  0.5403541833323543  0.82705177980381  1.0000
  Cl  Cl7       1.0  0.902800740874568  0.45964330817750465  0.3270532894866491  1.0000
  Cl  Cl8       1.0  0.40280112046384176  0.45964747862409866  0.1729460677452792  1.0000
