data_image0
_chemical_formula_structural       Bi4H40C20S8Br8N4
_chemical_formula_sum              "Bi4 H40 C20 S8 Br8 N4"
_cell_length_a       7.848902867025576
_cell_length_b       9.931929644378885
_cell_length_c       14.747911655320236
_cell_angle_alpha    89.99940065509332
_cell_angle_beta     90.00046908802472
_cell_angle_gamma    91.30800286263441

_space_group_name_H-M_alt    "P 1"
_space_group_IT_number       1

loop_
  _space_group_symop_operation_xyz
  'x, y, z'

loop_
  _atom_site_type_symbol
  _atom_site_label
  _atom_site_symmetry_multiplicity
  _atom_site_fract_x
  _atom_site_fract_y
  _atom_site_fract_z
  _atom_site_occupancy
  Bi  Bi1       1.0  0.7298298495082847  0.7823026289309214  0.28832237531769783  1.0000
  Bi  Bi2       1.0  0.7701690714457358  0.21770976630447342  0.7883233709253404  1.0000
  Bi  Bi3       1.0  0.27017869332321  0.21769841815538624  0.7116863487798358  1.0000
  Bi  Bi4       1.0  0.22982924585411274  0.7822903043030962  0.2116778944702489  1.0000
  H   H1        1.0  0.8924261907995755  0.569911568561352  0.5889667179583142  1.0000
  H   H2        1.0  0.6075757081100973  0.4300917767738286  0.0889663063080874  1.0000
  H   H3        1.0  0.10757340042889749  0.4300884982401811  0.41103251325375123  1.0000
  H   H4        1.0  0.3924227109443592  0.5699113151811093  0.911032246828711  1.0000
  H   H5        1.0  0.07542618333260977  0.6148773173666343  0.6525866729115324  1.0000
  H   H6        1.0  0.42457745636465916  0.3851244073170008  0.15258659919723533  1.0000
  H   H7        1.0  0.9245759218636777  0.3851217346775968  0.3474132363716579  1.0000
  H   H8        1.0  0.5754209287749746  0.6148776775186846  0.847413310067225  1.0000
  H   H9        1.0  0.1918579322834475  0.845164319947962  0.6326205793716541  1.0000
  H   H10       1.0  0.30814540849466  0.15483771065045462  0.13262093739427172  1.0000
  H   H11       1.0  0.8081442407526324  0.1548367463243778  0.3673779737804139  1.0000
  H   H12       1.0  0.6918529766449736  0.845164374185231  0.8673789718701957  1.0000
  H   H13       1.0  0.19751022482162736  0.903830333093005  0.5195982821370465  1.0000
  H   H14       1.0  0.3024913899209595  0.0961724221076636  0.0195990272808757  1.0000
  H   H15       1.0  0.8024969421946578  0.0961676965870382  0.48039755878811974  1.0000
  H   H16       1.0  0.697509509191569  0.9038286479655259  0.980402238116824  1.0000
  H   H17       1.0  0.811470038924689  0.6624953507167461  0.7396458557865133  1.0000
  H   H18       1.0  0.6885367655378333  0.33750869961681224  0.23964508979710086  1.0000
  H   H19       1.0  0.18853733167187406  0.33750872158529444  0.2603540534905164  1.0000
  H   H20       1.0  0.3114629953154946  0.6624964027290262  0.760354141397663  1.0000
  H   H21       1.0  0.7392334288852139  0.7705970623903582  0.6521264875743356  1.0000
  H   H22       1.0  0.7607732374376539  0.22940530376881443  0.1521240821034411  1.0000
  H   H23       1.0  0.26077132598384617  0.22940500332681785  0.3478747778282526  1.0000
  H   H24       1.0  0.23923027738714348  0.7705977729048215  0.8478737929823836  1.0000
  H   H25       1.0  0.9234569913029986  0.8165458351016571  0.7168328373161403  1.0000
  H   H26       1.0  0.5765493019787583  0.18345352923695654  0.21683063127171925  1.0000
  H   H27       1.0  0.07655158539255781  0.1834562191558362  0.283167750032689  1.0000
  H   H28       1.0  0.4234541789261428  0.8165485403226215  0.7831679218796668  1.0000
  H   H29       1.0  0.4588588803691919  0.7772887725829635  0.5535580006735615  1.0000
  H   H30       1.0  0.041144516730057  0.22271345848485427  0.05355672129169162  1.0000
  H   H31       1.0  0.5411455692157431  0.22270422911289964  0.4464486892569895  1.0000
  H   H32       1.0  0.958855040563293  0.7772856012182033  0.9464411537996258  1.0000
  H   H33       1.0  0.33791014650476814  0.6902857832034001  0.4695780172699814  1.0000
  H   H34       1.0  0.16209083283500553  0.30971815727421165  0.9695772191008347  1.0000
  H   H35       1.0  0.6620968509171234  0.30970721090116626  0.5304218920451049  1.0000
  H   H36       1.0  0.8379087244532712  0.6902809024340469  0.03041997792837491  1.0000
  H   H37       1.0  0.3369745260380412  0.6309025810419014  0.5834838421974169  1.0000
  H   H38       1.0  0.1630292851875836  0.36909818437993647  0.08348477777988712  1.0000
  H   H39       1.0  0.6630212094440466  0.36909649010525664  0.4165167451339613  1.0000
  H   H40       1.0  0.8369677581480985  0.6309018900700354  0.9165137753645072  1.0000
  C   C1        1.0  0.9375249734801867  0.7582706203633266  0.469247510075995  1.0000
  C   C2        1.0  0.5624801387634546  0.241728920218776  0.9692467558559063  1.0000
  C   C3        1.0  0.06247713172625419  0.24172843167050925  0.5307537553314108  1.0000
  C   C4        1.0  0.4375182124512095  0.7582721575080528  0.030753153412021606  1.0000
  C   C5        1.0  0.9633429215091027  0.6556277695319609  0.6188379192913374  1.0000
  C   C6        1.0  0.5366606646332953  0.34437410719272077  0.11883712274279652  1.0000
  C   C7        1.0  0.03666045762089  0.3443712787010327  0.38116063387042953  1.0000
  C   C8        1.0  0.46333772049618455  0.6556279776533531  0.8811614303974551  1.0000
  C   C9        1.0  0.1909215478269175  0.8125793727641623  0.5614309514197018  1.0000
  C   C10       1.0  0.30908196715787284  0.187422737659233  0.06143176290156302  1.0000
  C   C11       1.0  0.8090793851851998  0.18742270444385403  0.43856692366401273  1.0000
  C   C12       1.0  0.6909163501368952  0.8125773329535378  0.9385688244319257  1.0000
  C   C13       1.0  0.8529282675148268  0.731758135898076  0.6856116119205282  1.0000
  C   C14       1.0  0.6470789340650782  0.2682447243051911  0.18561047366382877  1.0000
  C   C15       1.0  0.1470777952129083  0.26824493311672637  0.3143882973571763  1.0000
  C   C16       1.0  0.35292206680205135  0.7317593671153588  0.8143880794750731  1.0000
  C   C17       1.0  0.33913815526361185  0.7215806249027281  0.5409052969898839  1.0000
  C   C18       1.0  0.16086632635557413  0.27842179620048313  0.0409048253340742  1.0000
  C   C19       1.0  0.6608638820928902  0.2784164129133869  0.4590959684244353  1.0000
  C   C20       1.0  0.8391319569939172  0.7215772673242001  0.959093049754465  1.0000
  S   S1        1.0  0.0027503042597700885  0.8730329296261842  0.3864089399856213  1.0000
  S   S2        1.0  0.4972491924597832  0.12696523537503168  0.8864108817763782  1.0000
  S   S3        1.0  0.9972569306521422  0.12696711422482576  0.6135930034915519  1.0000
  S   S4        1.0  0.502749124840058  0.873034835232545  0.11359038361921851  1.0000
  S   S5        1.0  0.7515373452739808  0.666334526798515  0.45084889116466104  1.0000
  S   S6        1.0  0.7484663193723763  0.3336683208060053  0.9508516908266672  1.0000
  S   S7        1.0  0.2484647260176445  0.3336635181160759  0.5491537303704135  1.0000
  S   S8        1.0  0.251533305791213  0.6663327530940037  0.04914889650614641  1.0000
  Br  Br1       1.0  0.4701555921081281  0.9657549634263346  0.3418982441114693  1.0000
  Br  Br2       1.0  0.029850474792937103  0.03423177531614391  0.8419015163760977  1.0000
  Br  Br3       1.0  0.5298524078476987  0.03422996999610461  0.6581003091098696  1.0000
  Br  Br4       1.0  0.970147910341616  0.9657703095247357  0.15809771482626195  1.0000
  Br  Br5       1.0  0.9379079674172529  0.5763138404693534  0.2066869074482512  1.0000
  Br  Br6       1.0  0.5620943182246946  0.42368468366308315  0.706686908808834  1.0000
  Br  Br7       1.0  0.06209524209296549  0.42368017221413373  0.7933123237929254  1.0000
  Br  Br8       1.0  0.4379065808776801  0.5763163864204941  0.29331300046465714  1.0000
  N   N1        1.0  0.025848933553376693  0.7435962913501726  0.5451722614422891  1.0000
  N   N2        1.0  0.4741529622872491  0.25640305069055813  0.04517195052233092  1.0000
  N   N3        1.0  0.9741518977041325  0.25640276451049  0.45482832590022343  1.0000
  N   N4        1.0  0.5258440471336172  0.7435960166401614  0.9548279587497251  1.0000
