data_image0
_chemical_formula_structural       La4H34C42N6O32
_chemical_formula_sum              "La4 H34 C42 N6 O32"
_cell_length_a       11.25896984875451
_cell_length_b       11.36089470603185
_cell_length_c       12.69
_cell_angle_alpha    103.05724049607778
_cell_angle_beta     106.94720185694075
_cell_angle_gamma    114.45087402827029

_space_group_name_H-M_alt    "P 1"
_space_group_IT_number       1

loop_
  _space_group_symop_operation_xyz
  'x, y, z'

loop_
  _atom_site_type_symbol
  _atom_site_label
  _atom_site_symmetry_multiplicity
  _atom_site_fract_x
  _atom_site_fract_y
  _atom_site_fract_z
  _atom_site_occupancy
  La  La1       1.0  0.18566496376323022  0.1347180824032748  0.1807282602993681  1.0000
  La  La2       1.0  0.8143311710039285  0.8652818639477005  0.8192710444338615  1.0000
  La  La3       1.0  0.16026480290374684  0.4320696594263183  0.5201910561605274  1.0000
  La  La4       1.0  0.8397335597321102  0.5679292329162634  0.4798086115572174  1.0000
  H   H1        1.0  0.71792830081354  0.2524086592616256  0.14792933906659292  1.0000
  H   H2        1.0  0.2820641172640279  0.7475860170473964  0.8520726666622664  1.0000
  H   H3        1.0  0.6332172348660594  0.1985425064681223  0.9277110527154235  1.0000
  H   H4        1.0  0.3667798284031604  0.8014574398828528  0.07229164423477379  1.0000
  H   H5        1.0  0.3674499489892611  0.1019963919271234  0.8028196573039706  1.0000
  H   H6        1.0  0.6325467434153963  0.8980046084322452  0.1971815808749965  1.0000
  H   H7        1.0  0.003928391876804891  0.4786684243688626  0.9101498972020393  1.0000
  H   H8        1.0  0.9960725694923196  0.5213283599569394  0.08984922820524585  1.0000
  H   H9        1.0  0.1801503512095408  0.4324448864132577  0.041473569903033074  1.0000
  H   H10       1.0  0.8198485663825109  0.5675497898957643  0.9585261766164591  1.0000
  H   H11       1.0  0.3579175802018142  0.3998370288432511  0.9726308752934115  1.0000
  H   H12       1.0  0.6420882131318989  0.6001671335412835  0.027370204031782808  1.0000
  H   H13       1.0  0.21128753873320957  0.0314326382148451  0.6000865883143618  1.0000
  H   H14       1.0  0.7887165816879926  0.9685683621445164  0.3999142068280717  1.0000
  H   H15       1.0  0.2833421655877472  0.8466122133307152  0.5587956956291434  1.0000
  H   H16       1.0  0.716661583968893  0.1533898410370327  0.44120285271998927  1.0000
  H   H17       1.0  0.2836289702001621  0.758813314420628  0.3591910905368677  1.0000
  H   H18       1.0  0.7163729223523346  0.24118873994712686  0.6408054015107253  1.0000
  H   H19       1.0  0.8893151331300473  0.1495226842531068  0.29878067459988233  1.0000
  H   H20       1.0  0.1106875011515811  0.8504772620978613  0.7012171589460365  1.0000
  H   H21       1.0  0.9537649546356446  0.19676123228855144  0.033652539659833246  1.0000
  H   H22       1.0  0.0462347100481608  0.8032418760875899  0.9663435894032446  1.0000
  H   H23       1.0  0.3210021641619534  0.4589047130427772  0.21818542215942216  1.0000
  H   H24       1.0  0.6789945282427041  0.5410962873165914  0.781818180085743  1.0000
  H   H25       1.0  0.4544954718064247  0.6489961802376527  0.5368384945872364  1.0000
  H   H26       1.0  0.5455034457856272  0.3509984960713694  0.46316361599844663  1.0000
  H   H27       1.0  0.4593851723542031  0.4596119526726525  0.29401850642960875  1.0000
  H   H28       1.0  0.5406193216128726  0.5403932637202757  0.7059808739956493  1.0000
  H   H29       1.0  0.0458592962966193  0.32707355962046586  0.1663030291479757  1.0000
  H   H30       1.0  0.9541390663392377  0.6729253327221159  0.8336958505476985  1.0000
  H   H31       1.0  0.8221858137890976  0.2467676063568618  0.33534083185838875  1.0000
  H   H32       1.0  0.17781514758002712  0.7532291779689402  0.6646567175047692  1.0000
  H   H33       1.0  0.374959626070229  0.5154353990469005  0.4048000360604291  1.0000
  H   H34       1.0  0.625041148525959  0.4845592772621217  0.5952001907164757  1.0000
  C   C1        1.0  0.5085134332621379  0.2017656641255883  0.14154792043151332  1.0000
  C   C2        1.0  0.4914793556799991  0.7982279581750475  0.8584539680244417  1.0000
  C   C3        1.0  0.6056139195044352  0.21447805932071867  0.09081751726160553  1.0000
  C   C4        1.0  0.39438072644183814  0.78551556297991  0.9091840634296985  1.0000
  C   C5        1.0  0.5572405814624304  0.1815276490238773  0.9679586160806153  1.0000
  C   C6        1.0  0.442754624802653  0.8184722973270979  0.03204360061216244  1.0000
  C   C7        1.0  0.4112913172431405  0.1299328843114154  0.8991960822289968  1.0000
  C   C8        1.0  0.5887076030302154  0.8700670620395526  0.10080551893447873  1.0000
  C   C9        1.0  0.3203511455175416  0.11700230937949388  0.9563313251610381  1.0000
  C   C10       1.0  0.6796442448391673  0.8829944749463081  0.04366557145193888  1.0000
  C   C11       1.0  0.5540744971864413  0.24159769520255026  0.27412419968244706  1.0000
  C   C12       1.0  0.4459184785286325  0.7583980351148583  0.7258765874038957  1.0000
  C   C13       1.0  0.1600873177643862  0.0529333553681113  0.8873681425165715  1.0000
  C   C14       1.0  0.8399088170027722  0.9470665909828638  0.1126280101283966  1.0000
  C   C15       1.0  0.07843677621002601  0.4582153915555338  0.7731602037586071  1.0000
  C   C16       1.0  0.9215649295695341  0.5417845547954413  0.22683975372480344  1.0000
  C   C17       1.0  0.080357289501876  0.4604045669821417  0.8839121233187156  1.0000
  C   C18       1.0  0.9196453447797523  0.5395953793688335  0.11608886231546474  1.0000
  C   C19       1.0  0.1788101422038935  0.4349818846086535  0.9559931376262368  1.0000
  C   C20       1.0  0.8211917476672923  0.5650148997171485  0.04400701593181814  1.0000
  C   C21       1.0  0.275420040177984  0.4145436079127904  0.9176143513743042  1.0000
  C   C22       1.0  0.724585753155729  0.5854605544717443  0.08238751597295385  1.0000
  C   C23       1.0  0.2706562673799339  0.4211132422093867  0.8079766968923323  1.0000
  C   C24       1.0  0.7293491550892099  0.5788919741835343  0.19202528772783017  1.0000
  C   C25       1.0  0.9763416753668535  0.48256193136254666  0.688059129299347  1.0000
  C   C26       1.0  0.02365687136062882  0.5174337989548689  0.3119415225151058  1.0000
  C   C27       1.0  0.3850546114959243  0.42333930792965185  0.76843181127753  1.0000
  C   C28       1.0  0.6149550853003092  0.5766722325136158  0.23157098183686728  1.0000
  C   C29       1.0  0.19435287309025276  0.04877950830202589  0.4318396778398466  1.0000
  C   C30       1.0  0.8056475333226771  0.9512214920573356  0.5681609448098185  1.0000
  C   C31       1.0  0.22042335361446422  0.9933702335761296  0.5176879097568303  1.0000
  C   C32       1.0  0.7795815112171808  0.0066339288084052  0.4823121414175943  1.0000
  C   C33       1.0  0.25768241430962047  0.890698222270842  0.4937100723998497  1.0000
  C   C34       1.0  0.742320777609514  0.10930277808851939  0.5062889065697433  1.0000
  C   C35       1.0  0.2583845255835371  0.8410164827867348  0.3829705905929686  1.0000
  C   C36       1.0  0.7416158808293928  0.1589845175726268  0.6170276679904987  1.0000
  C   C37       1.0  0.22237296004055904  0.8965258346606858  0.29938669360693376  1.0000
  C   C38       1.0  0.7776285616473755  0.1034772737154626  0.7006122797797616  1.0000
  C   C39       1.0  0.1671199987212191  0.1683103838097963  0.45228768444278694  1.0000
  C   C40       1.0  0.832881336193779  0.8316906165495651  0.5477147543797187  1.0000
  C   C41       1.0  0.20688522355904126  0.8404146439958851  0.17320153446551248  1.0000
  C   C42       1.0  0.7931114688456162  0.15958635636347648  0.8267965516251935  1.0000
  N   N1        1.0  0.3689894055681791  0.156380062840249  0.07570059068304147  1.0000
  N   N2        1.0  0.6310039410114641  0.8436146134687659  0.9242992911083332  1.0000
  N   N3        1.0  0.1716815432831211  0.4391315156411721  0.7361109987030972  1.0000
  N   N4        1.0  0.8283227639110176  0.560871592734969  0.2638910591359077  1.0000
  N   N5        1.0  0.1959664009181452  0.0016505771391735  0.3256796650202105  1.0000
  N   N6        1.0  0.8040323352635851  0.9983525312369679  0.6743201640244861  1.0000
  O   O1        1.0  0.6885859790982278  0.2984266655811253  0.3421867501572818  1.0000
  O   O2        1.0  0.3114075542543444  0.7015701187446763  0.6578128182865369  1.0000
  O   O3        1.0  0.4556785434230122  0.21862347431967774  0.31041404894991587  1.0000
  O   O4        1.0  0.5443149899295676  0.7813733100061242  0.689587883560101  1.0000
  O   O5        1.0  0.10118202299940288  0.9891120396794122  0.77519103218318  1.0000
  O   O6        1.0  0.8988129938114326  0.0108805286128302  0.2248057031028381  1.0000
  O   O7        1.0  0.08981143566115429  0.06283787221154569  0.9496080850589479  1.0000
  O   O8        1.0  0.9101848831976297  0.9371589121142563  0.050387475638608216  1.0000
  O   O9        1.0  0.9690873537149329  0.453125585038883  0.5811212113469963  1.0000
  O   O10       1.0  0.030912308287554383  0.5468722532953052  0.41888015527067773  1.0000
  O   O11       1.0  0.9054224735767205  0.531415220251894  0.7206803666722336  1.0000
  O   O12       1.0  0.09457793015489807  0.4685805100655215  0.27932155342170256  1.0000
  O   O13       1.0  0.47611741166503657  0.3977110939200657  0.8231352990552095  1.0000
  O   O14       1.0  0.5238982323707901  0.6023099325987146  0.17687410289063613  1.0000
  O   O15       1.0  0.38407261745920346  0.46419794317874613  0.6797564128613374  1.0000
  O   O16       1.0  0.6159309480058113  0.535807273214175  0.32024351545727814  1.0000
  O   O17       1.0  0.12273555527169577  0.19568087368851647  0.5295688079124972  1.0000
  O   O18       1.0  0.8772672657828762  0.8043211806792385  0.4704358044844523  1.0000
  O   O19       1.0  0.19486810044104166  0.24240928166306464  0.3892369225229331  1.0000
  O   O20       1.0  0.8051256196844674  0.7575896106795168  0.6107639086174642  1.0000
  O   O21       1.0  0.17706240115133898  0.9063228426483078  0.1076934034158298  1.0000
  O   O22       1.0  0.8229348488908171  0.0936792117194472  0.8923050400764864  1.0000
  O   O23       1.0  0.21991460625939396  0.7365589812683169  0.13956672299476477  1.0000
  O   O24       1.0  0.7800835722848304  0.2634430730994382  0.8604327486483284  1.0000
  O   O25       1.0  0.3668028715464828  0.5591366949245752  0.4773342164812319  1.0000
  O   O26       1.0  0.6331995732808977  0.4408558733676671  0.5226683799447684  1.0000
  O   O27       1.0  0.3485306609962606  0.4112519397099561  0.2671385139204432  1.0000
  O   O28       1.0  0.6514725309228736  0.5887490606494126  0.7328620410932771  1.0000
  O   O29       1.0  0.0414023904983196  0.2451275693015873  0.11239222901813409  1.0000
  O   O30       1.0  0.9586011749666951  0.7548776470913339  0.8876029711680928  1.0000
  O   O31       1.0  0.9109926958834506  0.2426158673075562  0.3506077615622232  1.0000
  O   O32       1.0  0.08901105367318952  0.7573861870601916  0.6493836945883372  1.0000
