data_image0
_chemical_formula_structural       Cd2P2H34C48N4O12
_chemical_formula_sum              "Cd2 P2 H34 C48 N4 O12"
_cell_length_a       10.224348415323293
_cell_length_b       11.013840242121718
_cell_length_c       11.861883072072878
_cell_angle_alpha    67.4639533777363
_cell_angle_beta     65.15928356576137
_cell_angle_gamma    81.92957379885799

_space_group_name_H-M_alt    "P 1"
_space_group_IT_number       1

loop_
  _space_group_symop_operation_xyz
  'x, y, z'

loop_
  _atom_site_type_symbol
  _atom_site_label
  _atom_site_symmetry_multiplicity
  _atom_site_fract_x
  _atom_site_fract_y
  _atom_site_fract_z
  _atom_site_occupancy
  Cd  Cd1       1.0  0.957868765687607  0.1589903169074987  0.5219562640778648  1.0000
  Cd  Cd2       1.0  0.042130305408385  0.8410106831975243  0.4780438853237996  1.0000
  P   P1        1.0  0.26610743955406946  0.1450147977155538  0.28272134141058564  1.0000
  P   P2        1.0  0.7338926288231986  0.8549832529353268  0.7172803414771566  1.0000
  H   H1        1.0  0.5268941502207767  0.3908687403758151  0.5109998279284439  1.0000
  H   H2        1.0  0.4731048904034337  0.609131276616445  0.4890023685161681  1.0000
  H   H3        1.0  0.4263022299489591  0.9106073173582558  0.3531175266827519  1.0000
  H   H4        1.0  0.5736967867523218  0.08939171622504459  0.646884185434658  1.0000
  H   H5        1.0  0.6592181864833576  0.8712404510539785  0.3793980078499574  1.0000
  H   H6        1.0  0.3407829901475735  0.12875858308748178  0.6206012393023174  1.0000
  H   H7        1.0  0.7043078666658003  0.28269572374221497  0.2913120769608214  1.0000
  H   H8        1.0  0.2956911500354805  0.7173033098410855  0.7086896351565957  1.0000
  H   H9        1.0  0.47493819685488586  0.3247517787358802  0.25941012837579086  1.0000
  H   H10       1.0  0.5250619259171003  0.6752482384367225  0.7405899917961989  1.0000
  H   H11       1.0  0.23428000400087962  0.4097285929210983  0.1137057094693503  1.0000
  H   H12       1.0  0.7657189844115635  0.5902694574507095  0.8862972059009662  1.0000
  H   H13       1.0  0.3111919943121535  0.5186268716062655  0.8655613596987379  1.0000
  H   H14       1.0  0.6888070724179371  0.48137412869622415  0.13444047728302166  1.0000
  H   H15       1.0  0.469983298382445  0.15005050380901963  0.8201415022305624  1.0000
  H   H16       1.0  0.5300157966364836  0.84995147970497  0.179859131498297  1.0000
  H   H17       1.0  0.39636704639727327  0.0433677576401976  0.06616649749561535  1.0000
  H   H18       1.0  0.6036320007757964  0.9566322590558586  0.9338331675788539  1.0000
  H   H19       1.0  0.958523786887383  0.3841196298012689  0.2527950262603725  1.0000
  H   H20       1.0  0.0414763924622719  0.6158823537943192  0.7472026874058245  1.0000
  H   H21       1.0  0.9308539620692071  0.6292461777386081  0.15282019110409084  1.0000
  H   H22       1.0  0.069145106843834  0.3707548224651447  0.847180802087621  1.0000
  H   H23       1.0  0.8417223931559831  0.7575742281366401  0.3072155902468551  1.0000
  H   H24       1.0  0.1582756001581416  0.2424267715905657  0.6927849478473364  1.0000
  H   H25       1.0  0.7800317029840967  0.6398840190377867  0.54721071857508  1.0000
  H   H26       1.0  0.21996518644227336  0.3601159970013867  0.4527905676744838  1.0000
  H   H27       1.0  0.7031426430304606  0.523825337461659  0.747558157617746  1.0000
  H   H28       1.0  0.2968575102133144  0.47617566282370644  0.2524399155113032  1.0000
  H   H29       1.0  0.6512266603454576  0.3774081713930499  0.9834456515275605  1.0000
  H   H30       1.0  0.34877349289831727  0.6225928288923086  0.01655242160148867  1.0000
  H   H31       1.0  0.7322186137206684  0.1444181992360072  0.032427856293814686  1.0000
  H   H32       1.0  0.26778153734015575  0.8555828011480883  0.9675710606252822  1.0000
  H   H33       1.0  0.8595513305074717  0.06611723043635462  0.8382795888939186  1.0000
  H   H34       1.0  0.1404498983352269  0.9338837703255578  0.16171893933265125  1.0000
  C   C1        1.0  0.43711752260146847  0.1204719650162929  0.2998182672700125  1.0000
  C   C2        1.0  0.5628815223886504  0.8795280517785002  0.7001822415945044  1.0000
  C   C3        1.0  0.49037766172598635  0.992998926132671  0.3338659278056683  1.0000
  C   C4        1.0  0.5096224371230704  0.0070001076309723  0.6661337080391334  1.0000
  C   C5        1.0  0.6206540060796897  0.970830349128519  0.34895707012517374  1.0000
  C   C6        1.0  0.3793460666634799  0.0291677013248943  0.6510429251824804  1.0000
  C   C7        1.0  0.6994807655615672  0.07537069615055  0.33181173607111697  1.0000
  C   C8        1.0  0.3005193311045388  0.9246283377118233  0.668188743563732  1.0000
  C   C9        1.0  0.6457785151831174  0.2027563753048796  0.29876599078747296  1.0000
  C   C10       1.0  0.3542215510111929  0.7972416754447382  0.7012365358903238  1.0000
  C   C11       1.0  0.5164086223934986  0.22531650628177863  0.2822121963162799  1.0000
  C   C12       1.0  0.4835925520544747  0.7746825279584114  0.7177878946260422  1.0000
  C   C13       1.0  0.833193712046075  0.050184293321478904  0.3608911763314921  1.0000
  C   C14       1.0  0.16680530683815675  0.9498147401630916  0.6391096919958769  1.0000
  C   C15       1.0  0.31519177923646413  0.22156325406935912  0.1039991103090969  1.0000
  C   C16       1.0  0.6848083413525713  0.7784367632019809  0.8960018536529404  1.0000
  C   C17       1.0  0.28870834330275136  0.35490612312799635  0.047809941359062705  1.0000
  C   C18       1.0  0.7112928289622714  0.6450929112109237  0.952190993373307  1.0000
  C   C19       1.0  0.3300252642754344  0.4148144036006017  0.9109028247427347  1.0000
  C   C20       1.0  0.6699759558354471  0.5851865975562446  0.08909907864402565  1.0000
  C   C21       1.0  0.39740957793721066  0.3413902458203778  0.8285446400655446  1.0000
  C   C22       1.0  0.6025905121800292  0.6586087883381992  0.17145837093944755  1.0000
  C   C23       1.0  0.41966413623727294  0.2067958681388902  0.8845811464152648  1.0000
  C   C24       1.0  0.5803360104576426  0.7932051324426792  0.1154194580839274  1.0000
  C   C25       1.0  0.37915689990067136  0.14781914050065836  0.021566983278496807  1.0000
  C   C26       1.0  0.6208432250542728  0.8521808765732148  0.978432293103445  1.0000
  C   C27       1.0  0.44586225052215406  0.4098268427228647  0.6829804074429974  1.0000
  C   C28       1.0  0.5541338395552344  0.5901839897459452  0.3170206885679077  1.0000
  C   C29       1.0  0.9186226117666222  0.4454225116006326  0.3135357046207402  1.0000
  C   C30       1.0  0.0813775131883148  0.5545775054732401  0.6864635717612089  1.0000
  C   C31       1.0  0.902624646966501  0.5806528458936598  0.2594018395972171  1.0000
  C   C32       1.0  0.09737868741112268  0.4193461889046829  0.74059578637997  1.0000
  C   C33       1.0  0.8514865417422328  0.6510580011687849  0.34477163096247665  1.0000
  C   C34       1.0  0.14851361586745065  0.3489429989191137  0.6552247545864774  1.0000
  C   C35       1.0  0.8160475161424187  0.5845871531985195  0.4807199739190723  1.0000
  C   C36       1.0  0.18395263710135618  0.4154138470868459  0.5192780992099769  1.0000
  C   C37       1.0  0.8351098403537092  0.4484406810993348  0.5275054287956068  1.0000
  C   C38       1.0  0.1648881529604154  0.5515603186278709  0.4724951092985776  1.0000
  C   C39       1.0  0.8034626526519729  0.36951711397080794  0.6702738781801257  1.0000
  C   C40       1.0  0.19653747230296398  0.630482903103065  0.3297253982018233  1.0000
  C   C41       1.0  0.7341143219543794  0.4213013312433416  0.7715337082016092  1.0000
  C   C42       1.0  0.26588582910643765  0.5786996691407535  0.22846520871748777  1.0000
  C   C43       1.0  0.7073631332643728  0.3401146724874308  0.9027617412865396  1.0000
  C   C44       1.0  0.29263594219752775  0.659886327420125  0.09723672053502953  1.0000
  C   C45       1.0  0.7516722719992899  0.2101345765611669  0.930720946800264  1.0000
  C   C46       1.0  0.2483279051674145  0.7898674071331581  0.06927761065598052  1.0000
  C   C47       1.0  0.821310936755992  0.16624219103772483  0.824475667308505  1.0000
  C   C48       1.0  0.17868813433999972  0.8337588090672979  0.1755244820931595  1.0000
  N   N1        1.0  0.886676336681596  0.38182565614653896  0.4434940514342003  1.0000
  N   N2        1.0  0.11332271049147377  0.6181743605495242  0.5565056136402691  1.0000
  N   N3        1.0  0.8453164013051616  0.2436907284448536  0.6986908701522694  1.0000
  N   N4        1.0  0.15468264805085846  0.7563092881524723  0.3013079511321592  1.0000
  O   O1        1.0  0.8847164369845542  0.9355301325691341  0.37595775947026067  1.0000
  O   O2        1.0  0.115283685787432  0.0644698846034686  0.6240423607017364  1.0000
  O   O3        1.0  0.8805512042357788  0.1447249071565864  0.3707151621229628  1.0000
  O   O4        1.0  0.11944781464845278  0.855274126327977  0.6292857062044064  1.0000
  O   O5        1.0  0.4996516625352641  0.33434538614655196  0.6113350960841188  1.0000
  O   O6        1.0  0.5003474063777773  0.6656556140572006  0.3886658971075929  1.0000
  O   O7        1.0  0.43604251343288064  0.5317969188240637  0.634228837013005  1.0000
  O   O8        1.0  0.5639562617665986  0.46819326526338056  0.36577864164021884  1.0000
  O   O9        1.0  0.17899574452664518  0.24485504420620424  0.343901050917772  1.0000
  O   O10       1.0  0.8210043521394537  0.755143989656176  0.6560994287170773  1.0000
  O   O11       1.0  0.20141275808406078  0.010722130797248  0.32693973327867104  1.0000
  O   O12       1.0  0.7985873625049746  0.989277886474092  0.6730612306833733  1.0000
