data_image0
_chemical_formula_structural       Zn2H12C16N8Cl8
_chemical_formula_sum              "Zn2 H12 C16 N8 Cl8"
_cell_length_a       3.5997985407667477
_cell_length_b       9.760303516001013
_cell_length_c       16.592748680584076
_cell_angle_alpha    90.00001116005556
_cell_angle_beta     94.28100005376331
_cell_angle_gamma    90.00005082701401

_space_group_name_H-M_alt    "P 1"
_space_group_IT_number       1

loop_
  _space_group_symop_operation_xyz
  'x, y, z'

loop_
  _atom_site_type_symbol
  _atom_site_label
  _atom_site_symmetry_multiplicity
  _atom_site_fract_x
  _atom_site_fract_y
  _atom_site_fract_z
  _atom_site_occupancy
  Zn  Zn1       1.0  0.5000024951058606  0.49999896171306096  0.5000001947155541  1.0000
  Zn  Zn2       1.0  1.2433999999999993e-12  1.0245583013e-06  7.820000000000001e-14  1.0000
  H   H1        1.0  0.31652210561595956  0.19215399813515424  0.5104669333076546  1.0000
  H   H2        1.0  0.18348096149185975  0.6921559248968734  0.9895319742893353  1.0000
  H   H3        1.0  0.6834828820723474  0.8078439252908681  0.4895328534099336  1.0000
  H   H4        1.0  0.8165212354489881  0.307845072203392  0.010466562433165906  1.0000
  H   H5        1.0  0.7305230979127586  0.467214190030262  0.6868466718853057  1.0000
  H   H6        1.0  0.7694815172768728  0.9672160865544228  0.8131526572500507  1.0000
  H   H7        1.0  0.2694818922989555  0.5327837333958599  0.31315371754580223  1.0000
  H   H8        1.0  0.23052068218738242  0.03278491054593499  0.1868464821859704  1.0000
  H   H9        1.0  0.7564673460318049  0.27585950664854414  0.7906762347846625  1.0000
  H   H10       1.0  0.7435340251816384  0.7758613599387942  0.7093242259313544  1.0000
  H   H11       1.0  0.2435320752958248  0.7241394413350477  0.20932466822348772  1.0000
  H   H12       1.0  0.25646817933067473  0.224140661720071  0.29067611893178485  1.0000
  C   C1        1.0  0.42411283049489173  0.1083574618815888  0.6322684789515877  1.0000
  C   C2        1.0  0.07588446735683618  0.6083582877391223  0.8677315321145687  1.0000
  C   C3        1.0  0.5758865883105672  0.8916425106602047  0.3677318213431208  1.0000
  C   C4        1.0  0.9241093775177164  0.3916427093599282  0.13226807633013493  1.0000
  C   C5        1.0  0.4138459764905634  0.21079791217594135  0.5731603814656625  1.0000
  C   C6        1.0  0.08615435257666348  0.7107987611502651  0.9268390871290892  1.0000
  C   C7        1.0  0.5861562305426703  0.7892020603664206  0.42684056611084753  1.0000
  C   C8        1.0  0.913845063705388  0.28920121139142196  0.07316061045209922  1.0000
  C   C9        1.0  0.6421859443757755  0.36322355413742  0.6709023139916044  1.0000
  C   C10       1.0  0.8578100669584643  0.8632244607599661  0.8290980709548565  1.0000
  C   C11       1.0  0.35781069124747944  0.6367753938456957  0.32909854444826453  1.0000
  C   C12       1.0  0.14218378043949537  0.1367765363391911  0.17090214020336705  1.0000
  C   C13       1.0  0.656051296152924  0.25786823572260437  0.7279218643286856  1.0000
  C   C14       1.0  0.8439444575657262  0.7578691187296371  0.7720779017844352  1.0000
  C   C15       1.0  0.34394255124379214  0.7421317368182514  0.27207834682945997  1.0000
  C   C16       1.0  0.15605217301319393  0.24213187836988234  0.22792175122854275  1.0000
  N   N1        1.0  0.5460842514692389  0.1298896121392445  0.7085752944800918  1.0000
  N   N2        1.0  0.9539167612658446  0.6298905381238951  0.7914239384747933  1.0000
  N   N3        1.0  0.45391516986087055  0.8701113849609498  0.2914256085282149  1.0000
  N   N4        1.0  0.04608543819840351  0.37011045897646255  0.2085752009612279  1.0000
  N   N5        1.0  0.5231934107154217  0.33804397664331276  0.5935450867766721  1.0000
  N   N6        1.0  0.9768053228336628  0.8380449485812135  0.9064547361719735  1.0000
  N   N7        1.0  0.4768032198597752  0.6619539467813027  0.40645456623607873  1.0000
  N   N8        1.0  0.0231940934496251  0.16195604851877476  0.09354496140928603  1.0000
  Cl  Cl1       1.0  0.9632983358821577  0.37883168774731507  0.42555976757405756  1.0000
  Cl  Cl2       1.0  0.5367115249281441  0.8788334273684767  0.07443974826708201  1.0000
  Cl  Cl3       1.0  0.03670665180739259  0.6211672602370086  0.5744400191436088  1.0000
  Cl  Cl4       1.0  0.46329067706075483  0.1211685942902889  0.9255599938825443  1.0000
  Cl  Cl5       1.0  0.27167243980516537  0.9450834609081726  0.6060445456004688  1.0000
  Cl  Cl6       1.0  0.2283228851189847  0.4450847063776848  0.8939548697044517  1.0000
  Cl  Cl7       1.0  0.72832697899905  0.05491548707531278  0.3939557546941615  1.0000
  Cl  Cl8       1.0  0.7716765311643029  0.5549162907223035  0.10604482787681493  1.0000
