data_image0
_chemical_formula_structural       Zn2H40C52N4O16
_chemical_formula_sum              "Zn2 H40 C52 N4 O16"
_cell_length_a       7.624929897601668
_cell_length_b       8.242590001404821
_cell_length_c       19.016
_cell_angle_alpha    96.68318137152555
_cell_angle_beta     97.9211811874058
_cell_angle_gamma    109.25336271911019

_space_group_name_H-M_alt    "P 1"
_space_group_IT_number       1

loop_
  _space_group_symop_operation_xyz
  'x, y, z'

loop_
  _atom_site_type_symbol
  _atom_site_label
  _atom_site_symmetry_multiplicity
  _atom_site_fract_x
  _atom_site_fract_y
  _atom_site_fract_z
  _atom_site_occupancy
  Zn  Zn1       1.0  0.5129145146367691  0.3205123985942251  0.4478731426055234  1.0000
  Zn  Zn2       1.0  0.48708494421769183  0.679486911311052  0.5521269504414619  1.0000
  H   H1        1.0  0.13054190340868388  0.9468519697005175  0.542872104650975  1.0000
  H   H2        1.0  0.869459544083476  0.053152559298879985  0.4571299391824084  1.0000
  H   H3        1.0  0.8741233622468484  0.9106862569910346  0.7314354527596549  1.0000
  H   H4        1.0  0.1258774207290756  0.0893130529142496  0.268565239329341  1.0000
  H   H5        1.0  0.2121864327815004  0.4111250059445338  0.6909404242195977  1.0000
  H   H6        1.0  0.7878214679611447  0.5888756087342768  0.309062304625435  1.0000
  H   H7        1.0  0.9063477869752319  0.1834015769489525  0.8122648523676759  1.0000
  H   H8        1.0  0.09365796268392049  0.8166003425033921  0.1877367716852234  1.0000
  H   H9        1.0  0.15768265525189654  0.279640367761388  0.8329770697366286  1.0000
  H   H10       1.0  0.8423219376426018  0.720365466011543  0.16702416198086206  1.0000
  H   H11       1.0  0.06646668028437121  0.7400114410554437  0.7691276190186329  1.0000
  H   H12       1.0  0.933535426813016  0.2599878688498336  0.23086946512878367  1.0000
  H   H13       1.0  0.1637291288676295  0.9952760297260355  0.8698333263229827  1.0000
  H   H14       1.0  0.8362686760627653  0.0047258897263092  0.1301641776049038  1.0000
  H   H15       1.0  0.17447772818788107  0.6548293011377381  0.02294100534979999  1.0000
  H   H16       1.0  0.8255139532946387  0.3451739230881329  0.9770583295164741  1.0000
  H   H17       1.0  0.08245710131597411  0.4005263305588898  0.9242646700516134  1.0000
  H   H18       1.0  0.9175407036144136  0.5994755888934478  0.07573388562217791  1.0000
  H   H19       1.0  0.6310397280927802  0.267757795222046  0.3089396088742191  1.0000
  H   H20       1.0  0.36896188184517353  0.7322402099096976  0.691060537219002  1.0000
  H   H21       1.0  0.600819347870278  0.024056109575902  0.2131008296325447  1.0000
  H   H22       1.0  0.39917828970329333  0.9759418955558485  0.7868985710805418  1.0000
  H   H23       1.0  0.301689354284548  0.6691831147432339  0.3439850062137921  1.0000
  H   H24       1.0  0.6983096074104863  0.3308148903885168  0.6560144676683635  1.0000
  H   H25       1.0  0.3422617601075401  0.92669843775338  0.4334427815695037  1.0000
  H   H26       1.0  0.6577372015874943  0.07329956737837048  0.5665566923126448  1.0000
  H   H27       1.0  0.4646752373070981  0.8238418355958783  0.1262659238326336  1.0000
  H   H28       1.0  0.5353271995928921  0.1761548647623385  0.8737352538836659  1.0000
  H   H29       1.0  0.4392135657253391  0.5727133790159584  0.0365013025588254  1.0000
  H   H30       1.0  0.5607853959696953  0.42728462611579227  0.9634986971962717  1.0000
  H   H31       1.0  0.3450528698564669  0.23547639331190595  0.1832038819096198  1.0000
  H   H32       1.0  0.6549474159600308  0.7645216118198447  0.8167977686333927  1.0000
  H   H33       1.0  0.3814590416155426  0.4763480251710915  0.2836737737308752  1.0000
  H   H34       1.0  0.6185417413603816  0.5236512847341854  0.7163269183581207  1.0000
  H   H35       1.0  0.3329790565770169  0.2411534629417105  0.0435451047274  1.0000
  H   H36       1.0  0.6670157653968263  0.7588406278694464  0.9564544688139235  1.0000
  H   H37       1.0  0.8403663551324102  0.4336075586430397  0.5412589100348839  1.0000
  H   H38       1.0  0.15963591932178633  0.5663956655828313  0.458742061929776  1.0000
  H   H39       1.0  0.8488836426258928  0.3190106042609884  0.47130944527383883  1.0000
  H   H40       1.0  0.15111813466888435  0.6809913151913489  0.5286924851448235  1.0000
  C   C1        1.0  0.2986118063208565  0.3023473415070796  0.5673339248603639  1.0000
  C   C2        1.0  0.7013922894142227  0.6976571874923179  0.4326682653111362  1.0000
  C   C3        1.0  0.1808149627006301  0.1900833221969904  0.6121403180748644  1.0000
  C   C4        1.0  0.8191907869585222  0.8099185972553471  0.3878618318509908  1.0000
  C   C5        1.0  0.10538204304847201  0.0084771136255668  0.5924162253664491  1.0000
  C   C6        1.0  0.8946205612083349  0.9915235010532368  0.4075862108023429  1.0000
  C   C7        1.0  0.9940039169895913  0.9083507123720123  0.6353694935010097  1.0000
  C   C8        1.0  0.006000508548105195  0.09165120708032497  0.3646325832557835  1.0000
  C   C9        1.0  0.9649125447538509  0.9901221742818291  0.6993514800654381  1.0000
  C   C10       1.0  0.035090886464985316  0.009877135623447896  0.30065041010757915  1.0000
  C   C11       1.0  0.0480994023619559  0.1706813398032381  0.7211312323207508  1.0000
  C   C12       1.0  0.9519045260163139  0.8293192748755727  0.2788707511441473  1.0000
  C   C13       1.0  0.15198154521635132  0.26991850018802666  0.6762728960754175  1.0000
  C   C14       1.0  0.8480218860024918  0.7300808097172578  0.3237300458434973  1.0000
  C   C15       1.0  0.8989267138257303  0.7145409569728256  0.6119701482824667  1.0000
  C   C16       1.0  0.10107870603081177  0.2854635720265718  0.38803106331219783  1.0000
  C   C17       1.0  0.03137362294130948  0.260093555505783  0.7921285345751842  1.0000
  C   C18       1.0  0.9686316295584163  0.7399070591730279  0.2078740479317318  1.0000
  C   C19       1.0  0.07280585797303736  0.5566111688800248  0.8402393955967257  1.0000
  C   C20       1.0  0.9271889689118281  0.4433933601193728  0.15975860128070707  1.0000
  C   C21       1.0  0.09350827502707662  0.7242980534315038  0.8252541392194317  1.0000
  C   C22       1.0  0.9064862171441562  0.2756986469267133  0.17474344424480387  1.0000
  C   C23       1.0  0.14742952248694505  0.86510660326131  0.8812145483185105  1.0000
  C   C24       1.0  0.8525687796028691  0.13489662096456095  0.11878252302832239  1.0000
  C   C25       1.0  0.17959139566281113  0.8410909416648378  0.953211718712417  1.0000
  C   C26       1.0  0.8204022695463921  0.1589070634669056  0.04678483312873991  1.0000
  C   C27       1.0  0.15349682207485668  0.6726942603129444  0.9670812333013855  1.0000
  C   C28       1.0  0.8464981721668181  0.32731418300704707  0.03291434091789819  1.0000
  C   C29       1.0  0.10176354689214409  0.5301842857997912  0.911735937572864  1.0000
  C   C30       1.0  0.8982291239982061  0.4698111097848993  0.0882625311763192  1.0000
  C   C31       1.0  0.24258236202650346  0.9874930556185219  0.015264689301709182  1.0000
  C   C32       1.0  0.7574076606209202  0.012502339966168596  0.9847220639044709  1.0000
  C   C33       1.0  0.557820452580245  0.1326824202838495  0.313857477528714  1.0000
  C   C34       1.0  0.44217967079045906  0.867322108715548  0.6861429155167613  1.0000
  C   C35       1.0  0.5402150822561396  0.9952512390289596  0.2607266019587655  1.0000
  C   C36       1.0  0.4597833822794755  0.0047454613292572  0.7392717268856046  1.0000
  C   C37       1.0  0.44845787632833384  0.8227484353775907  0.2698450142870783  1.0000
  C   C38       1.0  0.5515424094881638  0.1772495697541601  0.7301545327641323  1.0000
  C   C39       1.0  0.3763200753407787  0.7988371556635412  0.3333794346430707  1.0000
  C   C40       1.0  0.6236802104757191  0.20116084946820925  0.6666185347892934  1.0000
  C   C41       1.0  0.39864562948031323  0.9435078351426751  0.3840629269303193  1.0000
  C   C42       1.0  0.6013538293741476  0.0564914747626091  0.6159361143707683  1.0000
  C   C43       1.0  0.43018097792464965  0.6741843116844064  0.2142072448986383  1.0000
  C   C44       1.0  0.5698193078918479  0.325813693447344  0.7857933538984696  1.0000
  C   C45       1.0  0.4463940458895266  0.6985183380222395  0.1431954362789156  1.0000
  C   C46       1.0  0.5536070668890076  0.3014783623359846  0.8568040906494687  1.0000
  C   C47       1.0  0.42789825180458496  0.5564585103769912  0.09195550739991629  1.0000
  C   C48       1.0  0.5721020340119125  0.4435394947547593  0.9080435137783454  1.0000
  C   C49       1.0  0.3762662828536918  0.3699972394997744  0.17449070536231664  1.0000
  C   C50       1.0  0.6237353270842618  0.6300007656319762  0.8255094407309045  1.0000
  C   C51       1.0  0.3958198460727402  0.5049395275378927  0.2297106451207895  1.0000
  C   C52       1.0  0.6041827581840663  0.49506108714091107  0.7702891616832588  1.0000
  N   N1        1.0  0.4878857298001337  0.10786693251338868  0.3746467155080566  1.0000
  N   N2        1.0  0.512114556016364  0.892131072618362  0.625352305670205  1.0000
  N   N3        1.0  0.3919345260213447  0.3947918508937604  0.10671455741371008  1.0000
  N   N4        1.0  0.6080665867571895  0.6052048494644635  0.8932854953876229  1.0000
  O   O1        1.0  0.342881936769416  0.22554967629430675  0.5139846153918627  1.0000
  O   O2        1.0  0.6571226561250898  0.7744561574786246  0.48601714219857683  1.0000
  O   O3        1.0  0.34720807203244414  0.465964637417933  0.5869577847257474  1.0000
  O   O4        1.0  0.6527951967405982  0.534041196354998  0.4130454773144763  1.0000
  O   O5        1.0  0.9876565336407879  0.6306949051500297  0.5801393932195963  1.0000
  O   O6        1.0  0.012342098251636492  0.3693057095287813  0.419860719950222  1.0000
  O   O7        1.0  0.7338741458958467  0.6431254825720385  0.6247029427876426  1.0000
  O   O8        1.0  0.266129452679813  0.3568777416538325  0.3752991540919695  1.0000
  O   O9        1.0  0.28713843600466055  0.14469286062914213  0.9963279947824261  1.0000
  O   O10       1.0  0.7128519213563962  0.8553103635967287  0.003672844533632295  1.0000
  O   O11       1.0  0.2547305318355271  0.9646634331609858  0.0788877214732722  1.0000
  O   O12       1.0  0.7452545241286757  0.03532935287664429  0.9211180829410708  1.0000
  O   O13       1.0  0.02255735609098503  0.427686496363087  0.7817815690328445  1.0000
  O   O14       1.0  0.9774434268849321  0.5723128135421902  0.2182164936914077  1.0000
  O   O15       1.0  0.7656831941425397  0.3191410816140063  0.5078591077067144  1.0000
  O   O16       1.0  0.2343195774710835  0.6808634473853912  0.4921430092957237  1.0000
