data_image0
_chemical_formula_structural       Zn8H42C70I3N3O26
_chemical_formula_sum              "Zn8 H42 C70 I3 N3 O26"
_cell_length_a       18.342745117181156
_cell_length_b       18.261124676927874
_cell_length_c       18.237627916154857
_cell_angle_alpha    89.4001444754758
_cell_angle_beta     60.01413239825927
_cell_angle_gamma    59.83541413737068

_space_group_name_H-M_alt    "P 1"
_space_group_IT_number       1

loop_
  _space_group_symop_operation_xyz
  'x, y, z'

loop_
  _atom_site_type_symbol
  _atom_site_label
  _atom_site_symmetry_multiplicity
  _atom_site_fract_x
  _atom_site_fract_y
  _atom_site_fract_z
  _atom_site_occupancy
  Zn  Zn1       1.0  0.9054129366309808  0.9577894087688322  0.5528684541951704  1.0000
  Zn  Zn2       1.0  0.9166735524409189  0.1267100377423773  0.5327050020238032  1.0000
  Zn  Zn3       1.0  0.08608721608185028  0.9448690671882858  0.36722731475042986  1.0000
  Zn  Zn4       1.0  0.08524872347413044  0.9563519158338281  0.5419146888004461  1.0000
  Zn  Zn5       1.0  0.0856366149495784  0.5426687599632061  0.9622458776215552  1.0000
  Zn  Zn6       1.0  0.9055443387861432  0.5431495599606037  0.13129569200557942  1.0000
  Zn  Zn7       1.0  0.0872895001054133  0.36832543264301876  0.9526576481095861  1.0000
  Zn  Zn8       1.0  0.9140844410992485  0.543033396170692  0.9531072622926046  1.0000
  H   H1        1.0  0.07382083062746145  0.8373784913186668  0.7486263010038527  1.0000
  H   H2        1.0  0.3996120409812818  0.7271454195601947  0.21848480297415296  1.0000
  H   H3        1.0  0.16013332506214778  0.7420922642931062  0.6537191640737632  1.0000
  H   H4        1.0  0.30259839461847104  0.9665675704958758  0.42753601056838864  1.0000
  H   H5        1.0  0.3914154960608371  0.030665177271174602  0.4339843235528704  1.0000
  H   H6        1.0  0.5810073450334553  0.9475664536116712  0.3269477793294514  1.0000
  H   H7        1.0  0.965359937779553  0.06764248607412071  0.7728459525731282  1.0000
  H   H8        1.0  0.9567836737499815  0.03822176059688331  0.9072759647086812  1.0000
  H   H9        1.0  0.9638856779747228  0.131110914140649  0.00014529710343704475  1.0000
  H   H10       1.0  0.9789961934044696  0.253597194999216  0.9560510224873084  1.0000
  H   H11       1.0  0.1610644055627829  0.6503580984572679  0.7437698858561036  1.0000
  H   H12       1.0  0.946837369432792  0.6575914657085492  0.7526253814775288  1.0000
  H   H13       1.0  0.9730752056255408  0.38815164236048366  0.7309882707568747  1.0000
  H   H14       1.0  0.01965794149588619  0.1150365680227381  0.21026095185649757  1.0000
  H   H15       1.0  0.15297247224854968  0.30348197058503257  0.3945637433546523  1.0000
  H   H16       1.0  0.09470219386733442  0.431226511336341  0.33788676576413934  1.0000
  H   H17       1.0  0.03793759278125466  0.4285152254943014  0.2408304611808134  1.0000
  H   H18       1.0  0.011597622626268834  0.21863755921374656  0.11893262488530348  1.0000
  H   H19       1.0  0.5962385215637268  0.1206435790764075  0.7613808105305537  1.0000
  H   H20       1.0  0.68582859120481  0.25605719839825986  0.5332537262840445  1.0000
  H   H21       1.0  0.5878775932826767  0.37830403939869944  0.4921536565083001  1.0000
  H   H22       1.0  0.07726603773401308  0.7451574679468395  0.83885291727173  1.0000
  H   H23       1.0  0.8345712784279654  0.8755015221361617  0.7881682736641265  1.0000
  H   H24       1.0  0.3955110365223218  0.4683101754778108  0.5858863258624397  1.0000
  H   H25       1.0  0.30366850482657526  0.43708365231921686  0.720791559409257  1.0000
  H   H26       1.0  0.40434257385313543  0.2139204411584004  0.8574544999439978  1.0000
  H   H27       1.0  0.8807188480875039  0.9186742030759305  0.827127319746637  1.0000
  H   H28       1.0  0.8857153457182534  0.8291770855922636  0.918897954427109  1.0000
  H   H29       1.0  0.9605272518462797  0.7364518068998861  0.6502103302571032  1.0000
  H   H30       1.0  0.09368198285824998  0.6798923429314315  0.5998977167767876  1.0000
  H   H31       1.0  0.7532962468067764  0.734042481590933  0.1910896350437951  1.0000
  H   H32       1.0  0.7267968705172339  0.8367981110938486  0.20877314887054124  1.0000
  H   H33       1.0  0.6706763624668992  0.5916694921519723  0.05052018875970526  1.0000
  H   H34       1.0  0.8333687140070861  0.7897954472631099  0.884779492495369  1.0000
  H   H35       1.0  0.5515248470604985  0.6123737338668606  0.0923598466136539  1.0000
  H   H36       1.0  0.9543197312957613  0.3651618182588905  0.6191853464724417  1.0000
  H   H37       1.0  0.9457307433250363  0.27944113618872274  0.5931218172560266  1.0000
  H   H38       1.0  0.8625939167614192  0.8858759567663056  0.344777576574408  1.0000
  H   H39       1.0  0.29346595405602477  0.5113980598524392  0.2718043639942777  1.0000
  H   H40       1.0  0.2958625042193146  0.4247827653174099  0.1656996806740879  1.0000
  H   H41       1.0  0.16401887778074814  0.5010536201363749  0.1338389535610104  1.0000
  H   H42       1.0  0.8619152130022555  0.7927277752567508  0.2464795452275935  1.0000
  C   C1        1.0  0.9832935350610863  0.14183051056838278  0.6465700086838098  1.0000
  C   C2        1.0  0.1635608361845868  0.5389530773948581  0.1799094202704978  1.0000
  C   C3        1.0  0.08599703125698706  0.6321632057043091  0.2216286254869146  1.0000
  C   C4        1.0  0.997587055335103  0.8461647970245424  0.37501844883649926  1.0000
  C   C5        1.0  0.08405718433776603  0.6847080299807901  0.2826171996806083  1.0000
  C   C6        1.0  0.00311874387410434  0.7781068433285367  0.32298421668343735  1.0000
  C   C7        1.0  0.9244347829362171  0.8148272104867758  0.31106982824854124  1.0000
  C   C8        1.0  0.9245635114181637  0.762935156746849  0.2549201370000135  1.0000
  C   C9        1.0  0.005844614793112225  0.6742648281993554  0.20798477299505438  1.0000
  C   C10       1.0  0.38527722857168795  0.931480306686119  0.3801608344344416  1.0000
  C   C11       1.0  0.4349453681705243  0.9665099594418648  0.3843674413421282  1.0000
  C   C12       1.0  0.01807993126828227  0.7184172710952268  0.6642490726791124  1.0000
  C   C13       1.0  0.5417258266388886  0.9193522194048639  0.32435252351554994  1.0000
  C   C14       1.0  0.6009615421693725  0.8368294766778205  0.2600241757521288  1.0000
  C   C15       1.0  0.551819475721011  0.7977405883371915  0.25413724171865243  1.0000
  C   C16       1.0  0.7211504745581718  0.14225549728195827  0.6250495677458688  1.0000
  C   C17       1.0  0.44146892023046996  0.8488328891869515  0.3147124318385438  1.0000
  C   C18       1.0  0.3896915340785014  0.8180064177730273  0.3010509571582034  1.0000
  C   C19       1.0  0.44241771049741635  0.7455158790455556  0.22932470082078266  1.0000
  C   C20       1.0  0.5510927731819422  0.6930985747825956  0.169732107201419  1.0000
  C   C21       1.0  0.6060103545030842  0.7158832888117814  0.18597722925460378  1.0000
  C   C22       1.0  0.9686137626115962  0.10881270653284501  0.8121327163196599  1.0000
  C   C23       1.0  0.0003391429843944007  0.804020159292641  0.7060680613517291  1.0000
  C   C24       1.0  0.9640487504289438  0.0921418760894142  0.8877945794011594  1.0000
  C   C25       1.0  0.9678965969536008  0.14439409348990753  0.9402484761140855  1.0000
  C   C26       1.0  0.9760438793457948  0.21304954181495364  0.9157627509465273  1.0000
  C   C27       1.0  0.980460327784307  0.23221825720858652  0.8386417492583362  1.0000
  C   C28       1.0  0.2754913121939992  0.8653798101759946  0.36032205968891867  1.0000
  C   C29       1.0  0.9767804566218175  0.17908732186040066  0.784666966391363  1.0000
  C   C30       1.0  0.9755443871248912  0.20094294419737221  0.7090362088998888  1.0000
  C   C31       1.0  0.9692292603471837  0.2788653756151192  0.6920974388333931  1.0000
  C   C32       1.0  0.9742980397769186  0.3296269019404506  0.7457750966350644  1.0000
  C   C33       1.0  0.9825454647692664  0.3064951053105959  0.8144945814179183  1.0000
  C   C34       1.0  0.000529493232278438  0.7043099446991121  0.8097116580418486  1.0000
  C   C35       1.0  0.11104694733876391  0.23731780446424014  0.343327763167295  1.0000
  C   C36       1.0  0.11907283658675284  0.30610819244122917  0.35883306987276603  1.0000
  C   C37       1.0  0.08841380974230621  0.3772139181668166  0.32471908590341053  1.0000
  C   C38       1.0  0.056476956335487244  0.37596640366486866  0.27083260591327724  1.0000
  C   C39       1.0  0.04754125370840969  0.3063064876871024  0.2533325978770264  1.0000
  C   C40       1.0  0.029353356115279904  0.12178112086804299  0.3462954332826129  1.0000
  C   C41       1.0  0.06813314224882559  0.2379908810027018  0.29578172203768094  1.0000
  C   C42       1.0  0.04882458001983989  0.173816480087396  0.2836994094290688  1.0000
  C   C43       1.0  0.03097633624734899  0.1663852913539188  0.21974435716724372  1.0000
  C   C44       1.0  0.023355759189705297  0.22605176938879623  0.17055037038588952  1.0000
  C   C45       1.0  0.8960855563631609  0.7981613226132254  0.8600337733108246  1.0000
  C   C46       1.0  0.02528223441483854  0.2977725345324346  0.19019305668454217  1.0000
  C   C47       1.0  0.6023943641743159  0.2951507628213008  0.5744973714270358  1.0000
  C   C48       1.0  0.5472668624925632  0.36384630334854506  0.5517882069982463  1.0000
  C   C49       1.0  0.438893733437034  0.41492238690732813  0.6047899815042684  1.0000
  C   C50       1.0  0.3871739266949275  0.3972700806143409  0.6804668851303789  1.0000
  C   C51       1.0  0.441136961125899  0.32741928738617093  0.7065181226130763  1.0000
  C   C52       1.0  0.9989583851221439  0.860938659812696  0.6443280220119263  1.0000
  C   C53       1.0  0.5520585630574503  0.27416128431772785  0.651586971175817  1.0000
  C   C54       1.0  0.6064933444280171  0.2001952742075659  0.6748224556299364  1.0000
  C   C55       1.0  0.5530410562759085  0.17857156835679427  0.746568223385175  1.0000
  C   C56       1.0  0.010760467882682973  0.6636091877931707  0.7289783523217039  1.0000
  C   C57       1.0  0.44532319855812125  0.2307736133468126  0.8003840315418032  1.0000
  C   C58       1.0  0.3895766347768229  0.30531633412174847  0.7828567997168321  1.0000
  C   C59       1.0  0.7183250368501599  0.648090021374145  0.13482403869426915  1.0000
  C   C60       1.0  0.2753349895316006  0.3615594824808639  0.8483589826510142  1.0000
  C   C61       1.0  0.004615788705528672  0.6248623912195584  0.1441157368808703  1.0000
  C   C62       1.0  0.9929803606242866  0.3626586902743228  0.8624782791935104  1.0000
  C   C63       1.0  0.007764905906874709  0.3615114497438654  0.13877899305075658  1.0000
  C   C64       1.0  0.08597376951264828  0.7767359212563746  0.7192433888212691  1.0000
  C   C65       1.0  0.9939016607030525  0.6489649189126611  0.8730076177721315  1.0000
  C   C66       1.0  0.08711378428814942  0.7164234328805039  0.7794398766976088  1.0000
  C   C67       1.0  0.1621211959139117  0.6369047816060416  0.29866116394614284  1.0000
  C   C68       1.0  0.8954691860855913  0.856396914071837  0.7978548893817957  1.0000
  C   C69       1.0  0.23605732192044138  0.5457489955002968  0.25720646627518545  1.0000
  C   C70       1.0  0.23705230856168671  0.4966025799015411  0.19730005414008642  1.0000
  I   I1        1.0  0.17263125167877294  0.6940096078558398  0.3907232943771178  1.0000
  I   I2        1.0  0.1903998753405246  0.12278511881242339  0.37321222807824483  1.0000
  I   I3        1.0  0.14262450427676746  0.5219106256597287  0.6595295620201328  1.0000
  N   N1        1.0  0.7057831295425743  0.798667325944507  0.19714144446696458  1.0000
  N   N2        1.0  0.5971532226849944  0.6190414571020711  0.1031108662116651  1.0000
  N   N3        1.0  0.9643174359758362  0.3060636800010599  0.6237652047705423  1.0000
  O   O1        1.0  0.9977869386107444  0.9960450447003949  0.49789812953741824  1.0000
  O   O2        1.0  0.05711518883416029  0.3221607127194872  0.88288645994367  1.0000
  O   O3        1.0  0.948631793976801  0.44556450847100854  0.18051823424756464  1.0000
  O   O4        1.0  0.0416449224855953  0.057326193461484806  0.6282641166180697  1.0000
  O   O5        1.0  0.9352016205614002  0.6241950398969963  0.8886084617552473  1.0000
  O   O6        1.0  0.05254668486011834  0.3249769219680871  0.056168093989377624  1.0000
  O   O7        1.0  0.04485688548134449  0.633832894502703  0.9062442173961643  1.0000
  O   O8        1.0  0.08322238448077  0.5854651657738829  0.06299004752765563  1.0000
  O   O9        1.0  0.9379209515647275  0.4469494710515249  0.8775736267255922  1.0000
  O   O10       1.0  0.759826672768611  0.6256393693937738  0.17831059536197777  1.0000
  O   O11       1.0  0.23365886208144104  0.32008734409912876  0.8820206269614204  1.0000
  O   O12       1.0  0.7611928582324551  0.060657377900696495  0.6227964379195116  1.0000
  O   O13       1.0  0.9273373892026202  0.8808388489633218  0.4584604422111341  1.0000
  O   O14       1.0  0.7700185804712021  0.1778429072950374  0.5907639041716733  1.0000
  O   O15       1.0  0.23203528658303446  0.8725507603196688  0.3211439865880763  1.0000
  O   O16       1.0  0.9654675989831104  0.16750392942964956  0.42921535404569505  1.0000
  O   O17       1.0  0.06973984266560497  0.8736668296946279  0.608184354669426  1.0000
  O   O18       1.0  0.06938310023515021  0.0399497732492975  0.3118383197022824  1.0000
  O   O19       1.0  0.9265366543128833  0.8910512068632244  0.6334963671205641  1.0000
  O   O20       1.0  0.23093322416674036  0.8930856306646933  0.44461524928577495  1.0000
  O   O21       1.0  0.931972681930162  0.17962339218242818  0.6127841273548783  1.0000
  O   O22       1.0  0.058403178790683914  0.867976056232628  0.327903356926832  1.0000
  O   O23       1.0  0.9978443992145073  0.49924877373685217  0.0005933669877575969  1.0000
  O   O24       1.0  0.7672041584882121  0.6103106723626015  0.050931354672506875  1.0000
  O   O25       1.0  0.22860969622750105  0.4462437918921509  0.8678979957536797  1.0000
  O   O26       1.0  0.9226329129454741  0.6288229814861455  0.175958209287458  1.0000
