data_image0
_chemical_formula_structural       Na4Zn2H36C8N36O16
_chemical_formula_sum              "Na4 Zn2 H36 C8 N36 O16"
_cell_length_a       6.9624427190917535
_cell_length_b       11.878660708380568
_cell_length_c       13.598057605412176
_cell_angle_alpha    63.23835138419396
_cell_angle_beta     80.17871645354882
_cell_angle_gamma    81.1897843378034

_space_group_name_H-M_alt    "P 1"
_space_group_IT_number       1

loop_
  _space_group_symop_operation_xyz
  'x, y, z'

loop_
  _atom_site_type_symbol
  _atom_site_label
  _atom_site_symmetry_multiplicity
  _atom_site_fract_x
  _atom_site_fract_y
  _atom_site_fract_z
  _atom_site_occupancy
  Na  Na1       1.0  0.1799722740241592  0.8880133164656244  0.07553577710996243  1.0000
  Na  Na2       1.0  0.8200287871510881  0.11198767543424278  0.9244637853365134  1.0000
  Na  Na3       1.0  0.36183301102919796  0.6275799291641063  0.019218371622642373  1.0000
  Na  Na4       1.0  0.6381637996883569  0.37242011246677004  0.9807812111509265  1.0000
  Zn  Zn1       1.0  0.2458606054734673  0.712188850389147  0.5768810269979596  1.0000
  Zn  Zn2       1.0  0.7541407129636043  0.28781024870008315  0.4231192585297022  1.0000
  H   H1        1.0  0.07882496037903051  0.0675840707388886  0.6232292695795819  1.0000
  H   H2        1.0  0.9211749005778602  0.9324150272834968  0.3767711470601257  1.0000
  H   H3        1.0  0.3194505772475722  0.4003888284536855  0.4782128588978055  1.0000
  H   H4        1.0  0.6805536561498399  0.5996102727692262  0.521787164405758  1.0000
  H   H5        1.0  0.5970279207452336  0.628513807633361  0.6668618307329836  1.0000
  H   H6        1.0  0.4029690252513162  0.3714852882553359  0.3331388481308224  1.0000
  H   H7        1.0  0.617726359442493  0.767959101894661  0.5713133345010419  1.0000
  H   H8        1.0  0.3822719154033223  0.2320409414662024  0.4286868517101253  1.0000
  H   H9        1.0  0.562130944997925  0.7718704913044123  0.0888518152341787  1.0000
  H   H10       1.0  0.4378717022884118  0.22812955525698442  0.9111479776408373  1.0000
  H   H11       1.0  0.54193481444824  0.8722330947302197  0.9627729101010232  1.0000
  H   H12       1.0  0.4580648025430136  0.12776789742908792  0.037228252556786856  1.0000
  H   H13       1.0  0.9875176380338574  0.7273973686589771  0.9872052919885873  1.0000
  H   H14       1.0  0.012479301314613188  0.27260172656658455  0.012794652325574368  1.0000
  H   H15       1.0  0.9349783506317734  0.7027093376611689  0.11038209155449137  1.0000
  H   H16       1.0  0.06502138169421558  0.2972907067665319  0.8896179635446231  1.0000
  H   H17       1.0  0.2211431812300475  0.04483953252454851  0.17085434781183298  1.0000
  H   H18       1.0  0.778854843002037  0.9551624043101016  0.8291458498677856  1.0000
  H   H19       1.0  0.40031483465725165  0.9522115437228821  0.2150990903012725  1.0000
  H   H20       1.0  0.5996831829267465  0.047790392448625596  0.7849003728287014  1.0000
  H   H21       1.0  0.19212936480417403  0.09075200297372989  0.8152763229371446  1.0000
  H   H22       1.0  0.8078702388909063  0.9092489878593003  0.18472337062137684  1.0000
  H   H23       1.0  0.1019544375777386  0.9630958266072439  0.8490070514612286  1.0000
  H   H24       1.0  0.8980464883185137  0.0369061110348099  0.15099141489500306  1.0000
  H   H25       1.0  0.7269579613500384  0.5260668715318603  0.10007414954129958  1.0000
  H   H26       1.0  0.27303885601560307  0.47393317076215885  0.8999261677819135  1.0000
  H   H27       1.0  0.7685944379109275  0.6113556148420329  0.9725712883870514  1.0000
  H   H28       1.0  0.23140250808562965  0.38864348104666396  0.027429390476754557  1.0000
  H   H29       1.0  0.1675801569186959  0.4314576797545229  0.21465683697704924  1.0000
  H   H30       1.0  0.8324195820553797  0.5685423653363202  0.7853439526717095  1.0000
  H   H31       1.0  0.23333824451134427  0.5284345918948788  0.25368728333824464  1.0000
  H   H32       1.0  0.7666616230936398  0.47156450679064205  0.7463138678511071  1.0000
  H   H33       1.0  0.49279784391609377  0.7958387203055042  0.76938377069996  1.0000
  H   H34       1.0  0.507198980097634  0.20416132265165743  0.230617281172897  1.0000
  H   H35       1.0  0.5102680310959543  0.6490959483640638  0.8152354468870584  1.0000
  H   H36       1.0  0.48972878626969424  0.3509040939299624  0.18476487043615455  1.0000
  C   C1        1.0  0.23622638857697356  0.9978223410033422  0.515126639461087  1.0000
  C   C2        1.0  0.7637718862688417  0.0021777023575211005  0.4848735467500801  1.0000
  C   C3        1.0  0.06905415982284772  0.8752407973527172  0.6956670934874367  1.0000
  C   C4        1.0  0.9309456944859632  0.12475830000652618  0.3043325886026267  1.0000
  C   C5        1.0  0.282160350005597  0.4339335548149422  0.6170759783511669  1.0000
  C   C6        1.0  0.7178438900399017  0.566065547071112  0.3829247795020407  1.0000
  C   C7        1.0  0.20332415892543307  0.5854078532320629  0.433626097718907  1.0000
  C   C8        1.0  0.7966800678238994  0.41459124732770664  0.5663731910350122  1.0000
  N   N1        1.0  0.2820312531512242  0.9049831174354709  0.48168896419458207  1.0000
  N   N2        1.0  0.7179670283426771  0.0950169265885279  0.5183119565662295  1.0000
  N   N3        1.0  0.38254658044487405  0.9587191191454637  0.37924583038356013  1.0000
  N   N4        1.0  0.6174516944009412  0.0412809242153998  0.6207543558276073  1.0000
  N   N5        1.0  0.394435179621901  0.07751224145234663  0.3533938662459164  1.0000
  N   N6        1.0  0.60556588820144  0.922488751110663  0.6466064307502035  1.0000
  N   N7        1.0  0.3044557955337909  0.1061272085957654  0.4368925847254062  1.0000
  N   N8        1.0  0.6955424859601107  0.8938728354282406  0.5631083360354053  1.0000
  N   N9        1.0  0.13310283988386823  0.9863193956085256  0.6141411163591143  1.0000
  N   N10       1.0  0.8668955635928554  0.013679701347015799  0.3858594313926459  1.0000
  N   N11       1.0  0.9824905024214772  0.8634672745651529  0.7955957629079151  1.0000
  N   N12       1.0  0.0175077657762515  0.13653276813256807  0.2044036887536009  1.0000
  N   N13       1.0  0.9369587080761832  0.7414345015812815  0.8505154397801319  1.0000
  N   N14       1.0  0.06303969540054058  0.2585645953742599  0.1494851079716213  1.0000
  N   N15       1.0  0.9944974090639745  0.6825798234864281  0.7882847048234609  1.0000
  N   N16       1.0  0.005502451892922989  0.3174192745359576  0.21171571181625376  1.0000
  N   N17       1.0  0.07903531372880924  0.7643274393223509  0.689417691953892  1.0000
  N   N18       1.0  0.9209630897479144  0.23567165763319048  0.3105828557978684  1.0000
  N   N19       1.0  0.2560930405727788  0.515377968749327  0.6636394592826704  1.0000
  N   N20       1.0  0.743908284512372  0.48462113100303844  0.33636156079462864  1.0000
  N   N21       1.0  0.2829519473371676  0.44371647720482355  0.7710044364357173  1.0000
  N   N22       1.0  0.71704791361973  0.5562826208175552  0.2289959802039903  1.0000
  N   N23       1.0  0.32269187931143506  0.32500821367922583  0.7868112061800545  1.0000
  N   N24       1.0  0.6773123540859773  0.674990887543686  0.21318881712350896  1.0000
  N   N25       1.0  0.32411176218074184  0.3143133856229809  0.692088292908764  1.0000
  N   N26       1.0  0.6758924712166705  0.6856857155999307  0.30791173039479247  1.0000
  N   N27       1.0  0.2670729532797438  0.4674012160083548  0.508034864925932  1.0000
  N   N28       1.0  0.7329327375978423  0.5325978862813942  0.4919650272655787  1.0000
  N   N29       1.0  0.1815690684270521  0.6149513349423401  0.3279608639562781  1.0000
  N   N30       1.0  0.8184351583222738  0.38504776561743626  0.6720384247976413  1.0000
  N   N31       1.0  0.11224142323599298  0.7383815375567407  0.2841068186906313  1.0000
  N   N32       1.0  0.8877628035133328  0.2616175630030284  0.715892470063288  1.0000
  N   N33       1.0  0.09211975198703466  0.7819679384177152  0.35825627253096554  1.0000
  N   N34       1.0  0.9078830172821172  0.218031161075217  0.6417431473349992  1.0000
  N   N35       1.0  0.15070277236836196  0.6874590028215907  0.45441937360211426  1.0000
  N   N36       1.0  0.8493000035488761  0.31254009733447674  0.5455807808134948  1.0000
  O   O1        1.0  0.5567821845062896  0.6858968920934246  0.5915598469293852  1.0000
  O   O2        1.0  0.4432160903395258  0.3141031512674389  0.4084403392817819  1.0000
  O   O3        1.0  0.4791663751131595  0.8018197453187879  0.027686711476995633  1.0000
  O   O4        1.0  0.5208348146929964  0.198180300175757  0.9723132125100661  1.0000
  O   O5        1.0  0.039175286710744175  0.7315695351730086  0.04850996019499114  1.0000
  O   O6        1.0  0.9608229814869844  0.26843050752471953  0.951489491466532  1.0000
  O   O7        1.0  0.33854698734862154  0.0001620164503251  0.1465442419187255  1.0000
  O   O8        1.0  0.6614524943636368  0.9998399214511624  0.8534558246488472  1.0000
  O   O9        1.0  0.1380316546172295  0.017853180166739004  0.8789319560077118  1.0000
  O   O10       1.0  0.8619711146519291  0.9821459193261932  0.12106746385825307  1.0000
  O   O11       1.0  0.7020809626116745  0.5367672393815397  0.026649296961522864  1.0000
  O   O12       1.0  0.2979157261230582  0.46323374931780154  0.9733506588210901  1.0000
  O   O13       1.0  0.28248346788615214  0.4704815876849653  0.2163133885391772  1.0000
  O   O14       1.0  0.7175163930707384  0.5295175103374207  0.7836870281005304  1.0000
  O   O15       1.0  0.4326553906682378  0.7188562620916842  0.826957591133464  1.0000
  O   O16       1.0  0.5673399625691502  0.28114377847234806  0.17304212275215747  1.0000
