data_image0
_chemical_formula_structural       Cu4H56C48N4O16
_chemical_formula_sum              "Cu4 H56 C48 N4 O16"
_cell_length_a       8.959324571723368
_cell_length_b       12.425946908466855
_cell_length_c       14.455118025340434
_cell_angle_alpha    115.46586797387525
_cell_angle_beta     96.10167086135962
_cell_angle_gamma    89.98572641748397

_space_group_name_H-M_alt    "P 1"
_space_group_IT_number       1

loop_
  _space_group_symop_operation_xyz
  'x, y, z'

loop_
  _atom_site_type_symbol
  _atom_site_label
  _atom_site_symmetry_multiplicity
  _atom_site_fract_x
  _atom_site_fract_y
  _atom_site_fract_z
  _atom_site_occupancy
  Cu  Cu1       1.0  0.0847738979149355  0.008630986067515984  0.5797953660662502  1.0000
  Cu  Cu2       1.0  0.41537420597769176  0.4287689763668966  0.4202196710486703  1.0000
  Cu  Cu3       1.0  0.9152268922882243  0.9913654592374145  0.420205870999915  1.0000
  Cu  Cu4       1.0  0.5846179876114377  0.5712489813972185  0.5797932811240116  1.0000
  H   H1        1.0  0.2853768365162495  0.8395480578400482  0.6302815948595965  1.0000
  H   H2        1.0  0.21482433505939014  0.209417097228915  0.3698707493805387  1.0000
  H   H3        1.0  0.7146228190551585  0.1604412660877089  0.369711622930943  1.0000
  H   H4        1.0  0.7851694031131801  0.7905858303653166  0.6301325164528606  1.0000
  H   H5        1.0  0.46550354927970966  0.8342002578143949  0.7708786708518359  1.0000
  H   H6        1.0  0.03452569523199139  0.06354437459955882  0.2293452267796852  1.0000
  H   H7        1.0  0.5344911153649221  0.16579876278958494  0.2291171123191234  1.0000
  H   H8        1.0  0.9654793050547354  0.9364531014222947  0.7706525738362372  1.0000
  H   H9        1.0  0.368856884822705  0.20104434072613495  0.9572278435463346  1.0000
  H   H10       1.0  0.1318261145488577  0.2433648360958074  0.042667335880736304  1.0000
  H   H11       1.0  0.6311425869968872  0.7989480436562245  0.042765758617648066  1.0000
  H   H12       1.0  0.8681858456885296  0.7566322469418768  0.9573336374685796  1.0000
  H   H13       1.0  0.1881716063064545  0.18882318325530198  0.8069786431884225  1.0000
  H   H14       1.0  0.31214583350549663  0.3816503093476129  0.19300681312460452  1.0000
  H   H15       1.0  0.8118267056573744  0.8111662272391983  0.1930110906440561  1.0000
  H   H16       1.0  0.6878567671937291  0.6183543526146668  0.8069963954846955  1.0000
  H   H17       1.0  0.5901528873566376  0.111418437622838  0.012212607838897285  1.0000
  H   H18       1.0  0.9097457492077083  0.09936925930426814  0.9881315886094058  1.0000
  H   H19       1.0  0.4098533232338468  0.8885737173082549  0.9877807592202927  1.0000
  H   H20       1.0  0.09026161703452831  0.900626560762909  0.011866338605301478  1.0000
  H   H21       1.0  0.6322037998271739  0.9617110842692967  0.9350313207851854  1.0000
  H   H22       1.0  0.868088778890389  0.026661569125664638  0.06521033787194602  1.0000
  H   H23       1.0  0.36779456638059577  0.038278458154025016  0.0649594379628411  1.0000
  H   H24       1.0  0.1319150989685269  0.9733358299300294  0.9347873866241089  1.0000
  H   H25       1.0  0.9716221159555832  0.4161306659937907  0.3989711099658138  1.0000
  H   H26       1.0  0.5286591719156561  0.017128490627463692  0.6012195499649238  1.0000
  H   H27       1.0  0.02836806697772689  0.5838757824047818  0.6010330037054387  1.0000
  H   H28       1.0  0.4713384515718674  0.9828618983315139  0.3987783070720993  1.0000
  H   H29       1.0  0.8654735830888568  0.2860325389122878  0.3078550174022538  1.0000
  H   H30       1.0  0.6349367411052568  0.978230819272227  0.6923349196680633  1.0000
  H   H31       1.0  0.13450789584561557  0.7139732621529407  0.6921529200637764  1.0000
  H   H32       1.0  0.365064245461717  0.021760491833440254  0.3076638575525905  1.0000
  H   H33       1.0  0.767762794372672  0.38688072116750055  0.2036109656474636  1.0000
  H   H34       1.0  0.7326609283107572  0.1833648137686553  0.7964632566130803  1.0000
  H   H35       1.0  0.2322464408135758  0.6131227562376369  0.7963892662019134  1.0000
  H   H36       1.0  0.2673444020516627  0.8166236444222861  0.2035299830443194  1.0000
  H   H37       1.0  0.9663312177351956  0.40533022193794477  0.2244452914886494  1.0000
  H   H38       1.0  0.5340845271722685  0.18099073556240355  0.7756879451958838  1.0000
  H   H39       1.0  0.033673010403290994  0.5946729393570895  0.7755644501844047  1.0000
  H   H40       1.0  0.4659240910056681  0.8190019690875019  0.2243086488496999  1.0000
  H   H41       1.0  0.9670352471735769  0.618849141260732  0.45938661908373035  1.0000
  H   H42       1.0  0.5332971445635052  0.1593894026189916  0.5406245256643771  1.0000
  H   H43       1.0  0.03296787155715459  0.381142751167822  0.5406109523695761  1.0000
  H   H44       1.0  0.4667122152316027  0.8406243514301295  0.45937081157285314  1.0000
  H   H45       1.0  0.0877121939151451  0.6065890514489781  0.3681485592037602  1.0000
  H   H46       1.0  0.4124665501468812  0.23828107411530675  0.6318116125909442  1.0000
  H   H47       1.0  0.9122882540083808  0.39340936727584375  0.6318492956651697  1.0000
  H   H48       1.0  0.5875407824633642  0.7617202759376128  0.36819184921592546  1.0000
  H   H49       1.0  0.7418160755570397  0.5914451066096904  0.3339943506667923  1.0000
  H   H50       1.0  0.7583722462185136  0.25753472140156936  0.6660857855566533  1.0000
  H   H51       1.0  0.25818607437467733  0.4085612649148233  0.6660034259141768  1.0000
  H   H52       1.0  0.24163755703917644  0.7424568096468819  0.33391052587631254  1.0000
  H   H53       1.0  0.8539287460551465  0.5938652583176207  0.2421286466069006  1.0000
  H   H54       1.0  0.6461037878333259  0.351773546801269  0.7579113401869151  1.0000
  H   H55       1.0  0.14607705919571154  0.4061392387566446  0.7578717156153516  1.0000
  H   H56       1.0  0.3539141852707104  0.6482213883279329  0.2420937290505094  1.0000
  C   C1        1.0  0.3061139403436286  0.9174271802317336  0.7045349139313045  1.0000
  C   C2        1.0  0.19413758190503932  0.21293712236937534  0.2955673546098083  1.0000
  C   C3        1.0  0.6938799151328753  0.08256551056805256  0.2954589994573453  1.0000
  C   C4        1.0  0.8058582842272842  0.7870670777959464  0.7044353972802712  1.0000
  C   C5        1.0  0.40726118213649454  0.9156628138207451  0.7838991796257203  1.0000
  C   C6        1.0  0.09294578661227598  0.13183751398398166  0.21626669054185746  1.0000
  C   C7        1.0  0.592730658072128  0.0843281770173833  0.21609660571333933  1.0000
  C   C8        1.0  0.9070604361821497  0.868161685358125  0.7837346196730834  1.0000
  C   C9        1.0  0.4328869252186395  0.018538193963401475  0.8771912317705031  1.0000
  C   C10       1.0  0.0674369909208963  0.14124898567740732  0.12288405256744991  1.0000
  C   C11       1.0  0.5671006296424751  0.981455090470071  0.1228104242233385  1.0000
  C   C12       1.0  0.9325691275896518  0.8587492585588238  0.8771145159923605  1.0000
  C   C13       1.0  0.3518777588142613  0.11843024341779816  0.8863206644543382  1.0000
  C   C14       1.0  0.14864314688671953  0.2317992475187722  0.1136434111060609  1.0000
  C   C15       1.0  0.6481098881267898  0.8815569517105359  0.11367579003888295  1.0000
  C   C16       1.0  0.8513663094792822  0.7682040663534623  0.886360228581502  1.0000
  C   C17       1.0  0.25177976261359447  0.11243489846586394  0.8034950784841469  1.0000
  C   C18       1.0  0.24859673152190712  0.30875845705599403  0.19648573378317744  1.0000
  C   C19       1.0  0.7482141054749151  0.8875557185892688  0.19649675943244194  1.0000
  C   C20       1.0  0.7514084104766425  0.6912428709934347  0.8035186006994975  1.0000
  C   C21       1.0  0.5400207925662173  0.02063970109972536  0.9651620243078725  1.0000
  C   C22       1.0  0.960105346197928  0.05548322245673635  0.03499932692968604  1.0000
  C   C23       1.0  0.45997778641330467  0.9793510602871436  0.03483352592638049  1.0000
  C   C24       1.0  0.0398998794725642  0.944513398783997  0.9650011897004093  1.0000
  C   C25       1.0  0.7333178509481684  0.42260755186094917  0.40455630983327506  1.0000
  C   C26       1.0  0.7669315540055663  0.0179941010294444  0.5955217005367645  1.0000
  C   C27       1.0  0.266676312072903  0.577410591439552  0.5954523618254086  1.0000
  C   C28       1.0  0.23306835596952885  0.9819986475353346  0.4044794091276103  1.0000
  C   C29       1.0  0.8680814998526999  0.383950141116337  0.3451748948971414  1.0000
  C   C30       1.0  0.6322455432021883  0.03877819223352237  0.6549626541206095  1.0000
  C   C31       1.0  0.1319097344484845  0.6160590173124376  0.6548310372745121  1.0000
  C   C32       1.0  0.36775191334951535  0.9612124921871796  0.34503281999378294  1.0000
  C   C33       1.0  0.8637336377276199  0.4314142895920484  0.26264750566537026  1.0000
  C   C34       1.0  0.6366244704364306  0.1688250418123831  0.7374459206838537  1.0000
  C   C35       1.0  0.13626677656391448  0.568589659118523  0.7373558837957219  1.0000
  C   C36       1.0  0.3633829168258132  0.8311673220136981  0.26254854741075206  1.0000
  C   C37       1.0  0.9803492117077539  0.7703126818316551  0.4294570696323844  1.0000
  C   C38       1.0  0.5197310008852868  0.34080118855552416  0.5705803595457155  1.0000
  C   C39       1.0  0.019652801003104486  0.22968548679353537  0.570547677032792  1.0000
  C   C40       1.0  0.4802714324700618  0.6592128870241539  0.4294304847687656  1.0000
  C   C41       1.0  0.975920601465937  0.636066120427472  0.3917322161321549  1.0000
  C   C42       1.0  0.5242723975533822  0.24425712842694491  0.6082953852518074  1.0000
  C   C43       1.0  0.024079838049594588  0.36393368079378524  0.6082670223848154  1.0000
  C   C44       1.0  0.47573338247347874  0.7557515161366343  0.39170912791457374  1.0000
  C   C45       1.0  0.8515275736260081  0.5668400375119091  0.3051234079466028  1.0000
  C   C46       1.0  0.6486635904365414  0.2617319004040227  0.6949325134814472  1.0000
  C   C47       1.0  0.14847386721746153  0.43316165056250355  0.6948759323312003  1.0000
  C   C48       1.0  0.3513483866168415  0.7382624176407901  0.30506569257178734  1.0000
  N   N1        1.0  0.22940600552045257  0.013786668409537255  0.7136294746635201  1.0000
  N   N2        1.0  0.2708589204586715  0.30012454999049254  0.286422122302838  1.0000
  N   N3        1.0  0.7705912340554947  0.98620348829585  0.286361899788659  1.0000
  N   N4        1.0  0.7291393406491053  0.6998822736382948  0.7135859320456888  1.0000
  O   O1        1.0  0.059178563137045635  0.8303748270573407  0.5160649752706234  1.0000
  O   O2        1.0  0.44103483981332664  0.31417578167348387  0.4839164889107153  1.0000
  O   O3        1.0  0.9408119832169888  0.16962073314810783  0.4839148470749707  1.0000
  O   O4        1.0  0.5589627148990814  0.6858566813475236  0.5161082974190805  1.0000
  O   O5        1.0  0.6055156475651984  0.3755057188703149  0.3552251756700785  1.0000
  O   O6        1.0  0.8947981644264119  0.020339157117000288  0.6448300262094264  1.0000
  O   O7        1.0  0.39447990028732965  0.6245236616925994  0.6448000989620866  1.0000
  O   O8        1.0  0.10518617800423165  0.9796410980131113  0.3551416267888925  1.0000
  O   O9        1.0  0.9088824940845657  0.8139234124696558  0.3734028839741014  1.0000
  O   O10       1.0  0.5910021250741907  0.4405318750784774  0.6266380547199475  1.0000
  O   O11       1.0  0.09109283908748009  0.1860701838243842  0.6265830214612151  1.0000
  O   O12       1.0  0.4090073304757028  0.5594896751050982  0.37338562222323907  1.0000
  O   O13       1.0  0.7562536496807583  0.5017038435618133  0.4977790878767152  1.0000
  O   O14       1.0  0.7438348574426215  0.0037869040555379516  0.5022907728443968  1.0000
  O   O15       1.0  0.2437588434849546  0.49831783719547235  0.5022393597567927  1.0000
  O   O16       1.0  0.2561375879464692  0.996212690819462  0.4976913163443228  1.0000
