data_image0
_chemical_formula_structural       Zn6H34C68I18O32
_chemical_formula_sum              "Zn6 H34 C68 I18 O32"
_cell_length_a       18.402286839613573
_cell_length_b       18.78449555206067
_cell_length_c       18.983296331556136
_cell_angle_alpha    110.76008789902664
_cell_angle_beta     109.14230973598443
_cell_angle_gamma    108.9703170343379

_space_group_name_H-M_alt    "P 1"
_space_group_IT_number       1

loop_
  _space_group_symop_operation_xyz
  'x, y, z'

loop_
  _atom_site_type_symbol
  _atom_site_label
  _atom_site_symmetry_multiplicity
  _atom_site_fract_x
  _atom_site_fract_y
  _atom_site_fract_z
  _atom_site_occupancy
  Zn  Zn1       1.0  0.5165034682619023  0.5671129816922476  0.569647444407046  1.0000
  Zn  Zn2       1.0  0.5179896063571762  0.44601018434674705  0.43672841459596146  1.0000
  Zn  Zn3       1.0  0.0727195040898749  0.010473281510130099  0.571939383365816  1.0000
  Zn  Zn4       1.0  0.9428346702239023  0.006652291595756297  0.44189167054967243  1.0000
  Zn  Zn5       1.0  0.044606282933933976  0.5478657950935072  0.014718705988208463  1.0000
  Zn  Zn6       1.0  0.9120705723568108  0.4135284905475487  0.00010644153717705997  1.0000
  H   H1        1.0  0.8153372052788157  0.7047499069289316  0.43559345813532946  1.0000
  H   H2        1.0  0.2604128624186475  0.6930471630458614  0.3011995669579405  1.0000
  H   H3        1.0  0.32825001081977234  0.6674412831013967  0.41920856449576127  1.0000
  H   H4        1.0  0.3305597426529303  0.47788003785550615  0.6774269210308147  1.0000
  H   H5        1.0  0.6248313261761567  0.5438653861455975  0.7641014526432597  1.0000
  H   H6        1.0  0.1501312392071199  0.7302992739031353  0.2790997128816668  1.0000
  H   H7        1.0  0.10231267372292051  0.2570319430780188  0.9234397491073736  1.0000
  H   H8        1.0  0.15930661552116732  0.2514476986606198  0.786818010473084  1.0000
  H   H9        1.0  0.9124740084787889  0.8630496305424984  0.6896849405440048  1.0000
  H   H10       1.0  0.2542103089719062  0.35062055200144465  0.22044803717275824  1.0000
  H   H11       1.0  0.20477383704377422  0.07397424900962332  0.3243784709039659  1.0000
  H   H12       1.0  0.11796287633964651  0.0484117591085322  0.3511557794616849  1.0000
  H   H13       1.0  0.16593432414161674  0.9788332628325307  0.3346039391950056  1.0000
  H   H14       1.0  0.12045802040034202  0.4368948429964519  0.6072635155704943  1.0000
  H   H15       1.0  0.11971080439354863  0.40637337671432766  0.6872149115021527  1.0000
  H   H16       1.0  0.021526240555772316  0.3469609244391307  0.5814490251528993  1.0000
  H   H17       1.0  0.3393052504328793  0.575928819131981  0.6228357628141479  1.0000
  H   H18       1.0  0.25494116451955057  0.5634913184820646  0.6530746672503722  1.0000
  H   H19       1.0  0.2315037839770398  0.5502938037413687  0.5483760089035669  1.0000
  H   H20       1.0  0.7069641055347304  0.4126640492268408  0.8292868728208445  1.0000
  H   H21       1.0  0.6113953055769202  0.42158506833094833  0.7770250221093988  1.0000
  H   H22       1.0  0.635601191921296  0.4172505609965995  0.8743266091180926  1.0000
  H   H23       1.0  0.8085823199467724  0.8235007174301644  0.18852747975919462  1.0000
  H   H24       1.0  0.6984655614295578  0.7442500734112304  0.15449289391130352  1.0000
  H   H25       1.0  0.7547800180054834  0.7124130920539429  0.09872541121602273  1.0000
  H   H26       1.0  0.2821032239700756  0.8616757449159707  0.38978219465942454  1.0000
  H   H27       1.0  0.29392534171675794  0.9200267384684937  0.4948893457599508  1.0000
  H   H28       1.0  0.3038302925472395  0.9733983355383559  0.43360755317729616  1.0000
  H   H29       1.0  0.7469401713039474  0.1869957532605326  0.7627761518118347  1.0000
  H   H30       1.0  0.7053283359290745  0.1187250594196314  0.6479893838041021  1.0000
  H   H31       1.0  0.6772379863971595  0.20265135431520062  0.6845199130316856  1.0000
  H   H32       1.0  0.28240975968839893  0.7528126385915926  0.21684324454959364  1.0000
  H   H33       1.0  0.2846309933719127  0.6632352867600418  0.14261145147516863  1.0000
  H   H34       1.0  0.3801286067042043  0.7718292586026438  0.2077037471317381  1.0000
  C   C1        1.0  0.3960567823057276  0.48944687105294815  0.37266318774344137  1.0000
  C   C2        1.0  0.854171968706723  0.825922888672338  0.6248899129033916  1.0000
  C   C3        1.0  0.8044766070095618  0.7243135769558723  0.5615773854940327  1.0000
  C   C4        1.0  0.7114903943962289  0.7189078437275354  0.5417271551361862  1.0000
  C   C5        1.0  0.32508115415911487  0.5674153717144392  0.3156846985102176  1.0000
  C   C6        1.0  0.325822823768462  0.4907790056270331  0.30672088852387697  1.0000
  C   C7        1.0  0.2551087205304584  0.41177043003572333  0.23047238458203617  1.0000
  C   C8        1.0  0.18433982946969255  0.40964803537968925  0.1702360791202436  1.0000
  C   C9        1.0  0.1868097698369127  0.4877734373703575  0.17642103366279105  1.0000
  C   C10       1.0  0.2627138245643508  0.5657259249732361  0.24789714682665906  1.0000
  C   C11       1.0  0.30507371668879557  0.6664204615965801  0.29642464923721673  1.0000
  C   C12       1.0  0.6369170958661102  0.6480657878756162  0.5336180805374153  1.0000
  C   C13       1.0  0.3586083431273296  0.6626988091236258  0.3779403905731228  1.0000
  C   C14       1.0  0.29528404905749983  0.3501764370792415  0.5701114995398056  1.0000
  C   C15       1.0  0.3464237918439539  0.3351611945560011  0.5324630952738544  1.0000
  C   C16       1.0  0.3310259350976565  0.24790006481502047  0.49542903727351006  1.0000
  C   C17       1.0  0.26448129055747677  0.1807468779633297  0.49307959219352415  1.0000
  C   C18       1.0  0.2157883154151676  0.19893658281554846  0.5336464263489873  1.0000
  C   C19       1.0  0.23346854824998087  0.2853220374358188  0.5718614069690204  1.0000
  C   C20       1.0  0.20692225853478874  0.34567650941185246  0.6185466776347183  1.0000
  C   C21       1.0  0.2756360983682455  0.4211882361637295  0.6135027132710035  1.0000
  C   C22       1.0  0.730077133925498  0.5334182305552702  0.7343732286405285  1.0000
  C   C23       1.0  0.6398175544213202  0.4763040756540279  0.5784977526793538  1.0000
  C   C24       1.0  0.7159754269287147  0.4868907451481661  0.6503554315702046  1.0000
  C   C25       1.0  0.775383528084717  0.45495383837966596  0.6449316438645736  1.0000
  C   C26       1.0  0.8435521477560711  0.4694765918656358  0.7207533333220721  1.0000
  C   C27       1.0  0.8483819723160977  0.5071661252507839  0.8022155158363656  1.0000
  C   C28       1.0  0.7903687862248318  0.5386715114641589  0.8057576970141936  1.0000
  C   C29       1.0  0.7600684634018433  0.5812814670750585  0.8656969145100315  1.0000
  C   C30       1.0  0.695131110815325  0.5805191365671334  0.7845493891800925  1.0000
  C   C31       1.0  0.9696475470428253  0.8770797762996382  0.3683895096244708  1.0000
  C   C32       1.0  0.9194407202060618  0.9003129554949967  0.5412612868301917  1.0000
  C   C33       1.0  0.9627319244826466  0.11548277122259522  0.5857666503356356  1.0000
  C   C34       1.0  0.40735303380423454  0.4073098057111794  0.5289119917943166  1.0000
  C   C35       1.0  0.14506393496452566  0.12617491330949804  0.5288958853690247  1.0000
  C   C36       1.0  0.9460352278776298  0.33957933419836195  0.8806826999849021  1.0000
  C   C37       1.0  0.11459886371837068  0.49268432405227003  0.11703400530368666  1.0000
  C   C38       1.0  0.9373933040394393  0.5622345680673533  0.11439395718316075  1.0000
  C   C39       1.0  0.907522149742064  0.5124726955143545  0.882627402833371  1.0000
  C   C40       1.0  0.023602113751081826  0.7725187989409221  0.3191976827896708  1.0000
  C   C41       1.0  0.9543274741505527  0.7911743993186278  0.30578472948022273  1.0000
  C   C42       1.0  0.8702583867104251  0.7217121956672302  0.23316284783322758  1.0000
  C   C43       1.0  0.8600954788338271  0.6412519720063232  0.17467206451349415  1.0000
  C   C44       1.0  0.9340872938039055  0.6306961850866416  0.18200559202217886  1.0000
  C   C45       1.0  0.708429539068149  0.7323815154353852  0.46320831216413416  1.0000
  C   C46       1.0  0.014101680156350991  0.6971865599227416  0.25821198251592387  1.0000
  C   C47       1.0  0.10793608205931095  0.718894184558181  0.3079193081808142  1.0000
  C   C48       1.0  0.12075851897139243  0.8076173837394406  0.3788737726975808  1.0000
  C   C49       1.0  0.015890793079897523  0.20684318385996656  0.7416979747804574  1.0000
  C   C50       1.0  0.9500821069669954  0.16867396769493578  0.6554527433896451  1.0000
  C   C51       1.0  0.8786036802169122  0.18523298391177434  0.6457680217949076  1.0000
  C   C52       1.0  0.8738459204868151  0.23445972690009856  0.7191029466399995  1.0000
  C   C53       1.0  0.9441028948504026  0.2759808715708588  0.8047188530475963  1.0000
  C   C54       1.0  0.014948541481558728  0.2612425152395659  0.8134139821924434  1.0000
  C   C55       1.0  0.10270594059601025  0.2797328515862106  0.8777868108435455  1.0000
  C   C56       1.0  0.7995914501541038  0.7372983636838982  0.4839094076393378  1.0000
  C   C57       1.0  0.10523586589784632  0.22065261604041814  0.7971966430179123  1.0000
  C   C58       1.0  0.8495046826471367  0.8398677418421556  0.5474499742090443  1.0000
  C   C59       1.0  0.7570832546916791  0.8348253276704442  0.5263072271773549  1.0000
  C   C60       1.0  0.7625670004651609  0.820911917587715  0.6045978059735188  1.0000
  C   C61       1.0  0.17915721202293614  0.0464998481876506  0.3591424715716868  1.0000
  C   C62       1.0  0.09424005356466131  0.3819953410140259  0.6171849947398726  1.0000
  C   C63       1.0  0.26760148185140054  0.5395469394119061  0.5986942981080289  1.0000
  C   C64       1.0  0.6649071080779835  0.44078114945304503  0.8397410311999207  1.0000
  C   C65       1.0  0.7630869809949061  0.7539768030718152  0.16189723671238426  1.0000
  C   C66       1.0  0.27010095966294057  0.9108140970753666  0.4293185155881926  1.0000
  C   C67       1.0  0.7289170398916056  0.1847749118191686  0.7005152273950657  1.0000
  C   C68       1.0  0.32480133345185197  0.7246199586613219  0.20629169369765776  1.0000
  I   I1        1.0  0.49521997604740176  0.7644666482554785  0.4682014528796897  1.0000
  I   I2        1.0  0.4085661562091118  0.20958232108058178  0.44725356875565575  1.0000
  I   I3        1.0  0.26661818124831177  0.38122732012841  0.7622922543620871  1.0000
  I   I4        1.0  0.7648490121780327  0.38558531360701664  0.5240892714108583  1.0000
  I   I5        1.0  0.6009247349377133  0.6574571528320021  0.33445954095  1.0000
  I   I6        1.0  0.9425014456774932  0.4378204023290593  0.7170320140182012  1.0000
  I   I7        1.0  0.8662778058700268  0.7076093249274892  0.9824828525442155  1.0000
  I   I8        1.0  0.7120257291804465  0.7033186443535728  0.7927679806273031  1.0000
  I   I9        1.0  0.7298728070819536  0.5378740855339431  0.08262793021930276  1.0000
  I   I10       1.0  0.11738582927413449  0.6194227522408017  0.3369043800420428  1.0000
  I   I11       1.0  0.14737912473878376  0.819107694040639  0.5078146745898022  1.0000
  I   I12       1.0  0.7224651171914047  0.9235900895516808  0.5028917533675992  1.0000
  I   I13       1.0  0.7757273877975734  0.14556324850063618  0.5247872130054957  1.0000
  I   I14       1.0  0.21208094583742113  0.4143865149516587  0.9607845340649702  1.0000
  I   I15       1.0  0.11295096378915301  0.10875607865386883  0.8006315963109215  1.0000
  I   I16       1.0  0.7404996385792516  0.8919088199274373  0.7023750360563596  1.0000
  I   I17       1.0  0.8421756447101529  0.6376950002964746  0.5880071482387802  1.0000
  I   I18       1.0  0.07636512017563044  0.2830697887907761  0.0706506845683492  1.0000
  O   O1        1.0  0.4241808804402681  0.5411552651640648  0.452103485770344  1.0000
  O   O2        1.0  0.9201051500251084  0.9072150916925852  0.3408778284950669  1.0000
  O   O3        1.0  0.0012041249332099657  0.928136230119108  0.5933184919127111  1.0000
  O   O4        1.0  0.8925093467490725  0.9183963764527974  0.48303675392472173  1.0000
  O   O5        1.0  0.025871620256879214  0.10033003121439782  0.6117812519817745  1.0000
  O   O6        1.0  0.9115262438909042  0.08703245968974471  0.5053545692149085  1.0000
  O   O7        1.0  0.1709807719693472  0.10232088758746731  0.5833830847565338  1.0000
  O   O8        1.0  0.06621530628269313  0.09574140961423443  0.4716444689482415  1.0000
  O   O9        1.0  0.007553204527830815  0.4181279564601255  0.9206661233461303  1.0000
  O   O10       1.0  0.886945618701546  0.31130340322764743  0.9011285674527798  1.0000
  O   O11       1.0  0.14150524784515997  0.554246718275465  0.10062279673868339  1.0000
  O   O12       1.0  0.4222617159618239  0.43588704238752746  0.3429084928941748  1.0000
  O   O13       1.0  0.03439035378628578  0.44025940248698003  0.08928560059757724  1.0000
  O   O14       1.0  0.99950575005483  0.5929092256079757  0.09967918499791026  1.0000
  O   O15       1.0  0.8814319231929345  0.4802520828907433  0.07687429172557345  1.0000
  O   O16       1.0  0.9910334213989315  0.5688035475722161  0.9240772129176518  1.0000
  O   O17       1.0  0.8700239953424999  0.46290689111712174  0.9053206622207521  1.0000
  O   O18       1.0  0.6085543681948522  0.6697905615680995  0.5865661367378434  1.0000
  O   O19       1.0  0.6088627188135903  0.5710557838161991  0.47422990580958674  1.0000
  O   O20       1.0  0.6051814429516824  0.5208535388773329  0.604763633424234  1.0000
  O   O21       1.0  0.6111790181370721  0.4251887378746276  0.49771370314687147  1.0000
  O   O22       1.0  0.43494239541740853  0.48694090888206915  0.5867104482700823  1.0000
  O   O23       1.0  0.4264449558909221  0.38674909170685373  0.469260131192051  1.0000
  O   O24       1.0  0.032749412982319544  0.9154743617165338  0.44554266923508107  1.0000
  O   O25       1.0  0.2453649742180843  0.09506671611184461  0.45080006343447104  1.0000
  O   O26       1.0  0.11892916692765003  0.31817350905641467  0.5823855140414409  1.0000
  O   O27       1.0  0.2351704353262818  0.4469070150551957  0.5580143538597611  1.0000
  O   O28       1.0  0.7175315381074511  0.5349372436617442  0.8966799540011364  1.0000
  O   O29       1.0  0.796595811528647  0.7284760540878781  0.22356627453333983  1.0000
  O   O30       1.0  0.1773332426909421  0.8842165894123896  0.3894283287612906  1.0000
  O   O31       1.0  0.8044161792409952  0.2502233648587763  0.7081226573528738  1.0000
  O   O32       1.0  0.36408026529583287  0.7109993833687797  0.275128722506764  1.0000
