data_image0
_chemical_formula_structural       Ag4H32C40N8O12
_chemical_formula_sum              "Ag4 H32 C40 N8 O12"
_cell_length_a       9.857829505966821
_cell_length_b       10.48368569564651
_cell_length_c       11.573049955772332
_cell_angle_alpha    70.97442975550712
_cell_angle_beta     69.33552317682239
_cell_angle_gamma    86.73831995564825

_space_group_name_H-M_alt    "P 1"
_space_group_IT_number       1

loop_
  _space_group_symop_operation_xyz
  'x, y, z'

loop_
  _atom_site_type_symbol
  _atom_site_label
  _atom_site_symmetry_multiplicity
  _atom_site_fract_x
  _atom_site_fract_y
  _atom_site_fract_z
  _atom_site_occupancy
  Ag  Ag1       1.0  0.39075679584725265  0.5938549468251609  0.4964657033746036  1.0000
  Ag  Ag2       1.0  0.6092518431634628  0.4061603457890187  0.503523949483359  1.0000
  Ag  Ag3       1.0  0.501114954965402  0.17609764150441265  0.8885111437809244  1.0000
  Ag  Ag4       1.0  0.49888563826554844  0.8238986378146578  0.11149290444081571  1.0000
  H   H1        1.0  0.23174421124427616  0.29288011788536755  0.017555274244109898  1.0000
  H   H2        1.0  0.7682539507283578  0.7071132087278045  0.9824530075680612  1.0000
  H   H3        1.0  0.14841152687940004  0.433388993103982  0.1623076285628073  1.0000
  H   H4        1.0  0.8515826307529438  0.5666083518204135  0.837698824324249  1.0000
  H   H5        1.0  0.5739131930350253  0.4187723620059814  0.1923235085490376  1.0000
  H   H6        1.0  0.42607532465492437  0.5812219534163746  0.807684680324776  1.0000
  H   H7        1.0  0.6447324863281808  0.281371885323189  0.0404623731225797  1.0000
  H   H8        1.0  0.35526078770687514  0.7186285669653429  0.9595459500838998  1.0000
  H   H9        1.0  0.7685844346583651  0.07985314188019291  0.7098420214885265  1.0000
  H   H10       1.0  0.2314132970433036  0.9201493805744793  0.2901669418573291  1.0000
  H   H11       1.0  0.8182511829654828  0.9284537059669377  0.5771557010824678  1.0000
  H   H12       1.0  0.18175036657719795  0.0715428458355163  0.42285835462161  1.0000
  H   H13       1.0  0.35489304041463043  0.8819405263199445  0.6686194117605948  1.0000
  H   H14       1.0  0.6451067890115638  0.11805977867017253  0.33138272468563923  1.0000
  H   H15       1.0  0.3216513711364257  0.0323028534143504  0.8037438382163627  1.0000
  H   H16       1.0  0.678346378795709  0.967698449842722  0.19625772525682084  1.0000
  H   H17       1.0  0.018397482726449334  0.966147440510689  0.6329910574168806  1.0000
  H   H18       1.0  0.9816049780783374  0.0338589192875958  0.367008401424421  1.0000
  H   H19       1.0  0.021846987065551125  0.9922550924148583  0.8378409399015537  1.0000
  H   H20       1.0  0.9781597643198195  0.0077360083079725  0.16215948915888137  1.0000
  H   H21       1.0  0.07407563275154419  0.7916221520803931  0.005781364980720092  1.0000
  H   H22       1.0  0.9259263835230201  0.20836276548537572  0.9942172094443364  1.0000
  H   H23       1.0  0.13297967077022574  0.5787306775928512  0.9598752766452634  1.0000
  H   H24       1.0  0.8670231157396131  0.4212631759527243  0.040114203314665475  1.0000
  H   H25       1.0  0.15537459140782062  0.6121066371984798  0.3822518732582337  1.0000
  H   H26       1.0  0.8446227889524209  0.3879025501207424  0.6177395312705444  1.0000
  H   H27       1.0  0.10715757850427109  0.5504770994520101  0.27364662753551267  1.0000
  H   H28       1.0  0.8928395061813177  0.4495291940738895  0.7263509623699422  1.0000
  H   H29       1.0  0.7371769126372101  0.7003721363473403  0.42025043396450457  1.0000
  H   H30       1.0  0.26282301835104244  0.2996303061472716  0.5797553202594585  1.0000
  H   H31       1.0  0.8283367237530755  0.7866679549547799  0.4820463282125828  1.0000
  H   H32       1.0  0.17166773922186  0.2133363956878966  0.5179540450912867  1.0000
  C   C1        1.0  0.3046106072100442  0.3216620374248508  0.05835402621856643  1.0000
  C   C2        1.0  0.6953892995400607  0.6783392784539191  0.94164776873815  1.0000
  C   C3        1.0  0.2585185385161424  0.3993109900620625  0.14013038825576268  1.0000
  C   C4        1.0  0.7414781064641219  0.6006903647477558  0.8598732098540436  1.0000
  C   C5        1.0  0.35565448350442347  0.43535723734087395  0.18957467865791944  1.0000
  C   C6        1.0  0.6443383372043173  0.5646371264703093  0.8104348333342982  1.0000
  C   C7        1.0  0.4966549298333262  0.3919688863152829  0.15435067690560092  1.0000
  C   C8        1.0  0.5033332467095164  0.608021454988773  0.8456614583803342  1.0000
  C   C9        1.0  0.5353149735695413  0.315490621670982  0.07103990846220395  1.0000
  C   C10       1.0  0.46467690745231494  0.6845057923248137  0.9289700950362486  1.0000
  C   C11       1.0  0.315863438296482  0.5182663660389154  0.27950568832487477  1.0000
  C   C12       1.0  0.6841319683184038  0.4817329722554716  0.7204989070978769  1.0000
  C   C13       1.0  0.6788681508522388  0.03303809774843101  0.7004571577231216  1.0000
  C   C14       1.0  0.3211327865296667  0.966963328595661  0.2995486236564488  1.0000
  C   C15       1.0  0.7060788521666765  0.9499297351613265  0.6234975291776903  1.0000
  C   C16       1.0  0.2939245164735382  0.050074643888663714  0.37650401861144184  1.0000
  C   C17       1.0  0.5890028072327097  0.8939885323300918  0.6107432209260181  1.0000
  C   C18       1.0  0.41099796069758554  0.10602388017841949  0.3892539574946595  1.0000
  C   C19       1.0  0.4484433778297685  0.9244600972913872  0.6761515659195964  1.0000
  C   C20       1.0  0.5515547162533138  0.075546352990699  0.32385173071142503  1.0000
  C   C21       1.0  0.42976724505544456  0.007152430660305199  0.7517600290597386  1.0000
  C   C22       1.0  0.5702312504509877  0.9928460661233206  0.24825084606163006  1.0000
  C   C23       1.0  0.6019367192299399  0.8024558355367618  0.5311194947499871  1.0000
  C   C24       1.0  0.3980709948976724  0.19754849932030547  0.4688799355521454  1.0000
  C   C25       1.0  0.06800227121737382  0.7480614630846959  0.554648174438732  1.0000
  C   C26       1.0  0.9320009155330239  0.25193859466542534  0.4453444174922225  1.0000
  C   C27       1.0  0.07821898624588641  0.7600314859528013  0.6778963003024855  1.0000
  C   C28       1.0  0.9217853827802927  0.23996953113322664  0.3220939155023287  1.0000
  C   C29       1.0  0.04600440945156242  0.8820870304016779  0.7042805093146781  1.0000
  C   C30       1.0  0.9539973205827081  0.11790912792832844  0.2957189238163807  1.0000
  C   C31       1.0  0.04756362137739252  0.8962985565200586  0.8195794254951208  1.0000
  C   C32       1.0  0.952449776344018  0.10369455755428453  0.1804192947341577  1.0000
  C   C33       1.0  0.07932583951091492  0.786310740735985  0.9116655606392499  1.0000
  C   C34       1.0  0.920682038060626  0.21368026214321398  0.08833111348184995  1.0000
  C   C35       1.0  0.11277293236112482  0.6648830959792917  0.8856634204861819  1.0000
  C   C36       1.0  0.8872233306090397  0.33511083542838804  0.11432966577993395  1.0000
  C   C37       1.0  0.11416051947958289  0.6497887246147515  0.7690698512091386  1.0000
  C   C38       1.0  0.8858414926083426  0.3502091777473027  0.23091857712663721  1.0000
  C   C39       1.0  0.13699537827723424  0.5090422505171619  0.7567009669831037  1.0000
  C   C40       1.0  0.8630072039256902  0.49096148572243703  0.2432768109020316  1.0000
  N   N1        1.0  0.4411919732099179  0.2799199257041707  0.023925084605203  1.0000
  N   N2        1.0  0.5588065859994346  0.720078432206826  0.9760806296080344  1.0000
  N   N3        1.0  0.543130549023914  0.06059781799067569  0.7647628241555394  1.0000
  N   N4        1.0  0.45687043082659773  0.9394035157716588  0.2352395166186199  1.0000
  N   N5        1.0  0.18442658314783963  0.5644456764248817  0.31101472531805285  1.0000
  N   N6        1.0  0.8155714730760906  0.43555849748008774  0.6889797926271014  1.0000
  N   N7        1.0  0.7325836445312889  0.763259166058113  0.4726975217390999  1.0000
  N   N8        1.0  0.2674225461734424  0.2367402353447475  0.5273082311012942  1.0000
  O   O1        1.0  0.41395119324354107  0.5399567000944075  0.31914306275455556  1.0000
  O   O2        1.0  0.5860400225317691  0.46004470417020843  0.6808629671761678  1.0000
  O   O3        1.0  0.48651212805535243  0.7692751551349347  0.5225468295410918  1.0000
  O   O4        1.0  0.5134920498620801  0.2307262785689802  0.47745886898809436  1.0000
  O   O5        1.0  0.02222119261988811  0.43408430792187164  0.7964788643636637  1.0000
  O   O6        1.0  0.9777766498627684  0.5659156141195397  0.20350927817737127  1.0000
  O   O7        1.0  0.2657465355399466  0.4721470433835649  0.718382616851663  1.0000
  O   O8        1.0  0.7342521450675435  0.5278486909687318  0.28160141640540093  1.0000
  O   O9        1.0  0.14021042039270531  0.658455569460216  0.5112177592491418  1.0000
  O   O10       1.0  0.8597944231940958  0.3415514898122894  0.48876954746721407  1.0000
  O   O11       1.0  0.9885840386002087  0.8272007028551018  0.5012469762541159  1.0000
  O   O12       1.0  0.011411797102844902  0.17280359730079914  0.49875247111563675  1.0000
