data_image0
_chemical_formula_structural       Cu2H34C30N10O2
_chemical_formula_sum              "Cu2 H34 C30 N10 O2"
_cell_length_a       6.7764072851156
_cell_length_b       7.977723005765157
_cell_length_c       13.56102144545511
_cell_angle_alpha    103.57113539121255
_cell_angle_beta     89.99989146940821
_cell_angle_gamma    90.00066307883496

_space_group_name_H-M_alt    "P 1"
_space_group_IT_number       1

loop_
  _space_group_symop_operation_xyz
  'x, y, z'

loop_
  _atom_site_type_symbol
  _atom_site_label
  _atom_site_symmetry_multiplicity
  _atom_site_fract_x
  _atom_site_fract_y
  _atom_site_fract_z
  _atom_site_occupancy
  Cu  Cu1       1.0  0.23136258627975795  0.4112929191915171  0.16066454878482972  1.0000
  Cu  Cu2       1.0  0.7313739855709187  0.5887074691350448  0.8393347893579277  1.0000
  H   H1        1.0  0.49853561133294017  0.7487772656078918  0.3685427080749904  1.0000
  H   H2        1.0  0.9985460563158031  0.2512206531444576  0.6314582135291857  1.0000
  H   H3        1.0  0.7511946910545222  0.095997315196314  0.3019102873880045  1.0000
  H   H4        1.0  0.2511882581271437  0.9040058295507123  0.6980849808217686  1.0000
  H   H5        1.0  0.742597593478628  0.7864295929612126  0.21181655408942393  1.0000
  H   H6        1.0  0.24260073336918003  0.2135734515100012  0.7881757601764792  1.0000
  H   H7        1.0  0.9299413849181521  0.34472191491941834  0.39453955435441673  1.0000
  H   H8        1.0  0.4299289315419302  0.6552804635634785  0.6054598385631565  1.0000
  H   H9        1.0  0.22112107915047122  0.4756659481486949  0.49568003656040105  1.0000
  H   H10       1.0  0.7211090511242234  0.5243330585436468  0.5043213364546091  1.0000
  H   H11       1.0  0.5011324303338185  0.2842533811371767  0.5217527365947703  1.0000
  H   H12       1.0  0.0011300482371226  0.7157434526019274  0.4782552167783081  1.0000
  H   H13       1.0  0.5006532243744105  0.979922588977793  0.44102720568006504  1.0000
  H   H14       1.0  0.0006603737900477002  0.020071653948591  0.5589789198160064  1.0000
  H   H15       1.0  0.5528036310170493  0.3514273539835884  0.3316637096249622  1.0000
  H   H16       1.0  0.052811549201266  0.6485751025491738  0.6683338935203693  1.0000
  H   H17       1.0  0.6989161971514263  0.527538916362417  0.3132814112952787  1.0000
  H   H18       1.0  0.1989290567445678  0.47246759068050187  0.686718059902127  1.0000
  H   H19       1.0  0.6802481208959535  0.43055186898961745  0.1301393859902618  1.0000
  H   H20       1.0  0.1802617147747654  0.5694531543858973  0.8698584282911599  1.0000
  H   H21       1.0  0.763199358872015  0.252822999488707  0.17620887391387902  1.0000
  H   H22       1.0  0.2632095960422447  0.7471867201849419  0.8237887532947568  1.0000
  H   H23       1.0  0.36638075203879344  0.1223903297192521  0.976385498478834  1.0000
  H   H24       1.0  0.8663971445167676  0.8776101329951159  0.023615914610083198  1.0000
  H   H25       1.0  0.623106541102814  0.0946534194285391  0.997315819335178  1.0000
  H   H26       1.0  0.1231274005363687  0.9053342891547587  0.0026841188098246016  1.0000
  H   H27       1.0  0.5323297529130286  0.2990987206769447  0.983004685558143  1.0000
  H   H28       1.0  0.0323330481244142  0.7008906534376038  0.016994841609459892  1.0000
  H   H29       1.0  0.2816418665598733  0.030195781588517406  0.1300483029443669  1.0000
  H   H30       1.0  0.781647988349107  0.9698025599793993  0.8699566002553  1.0000
  H   H31       1.0  0.40065230449459943  0.12707382149329052  0.2460356587106318  1.0000
  H   H32       1.0  0.9006574822769694  0.872929570712529  0.7539675915767037  1.0000
  H   H33       1.0  0.5383802539519138  0.9922136340388973  0.1449367959011383  1.0000
  H   H34       1.0  0.03838630608809979  0.007791278140871301  0.8550655825850415  1.0000
  C   C1        1.0  0.3744370834019364  0.6902564604827717  0.3206756757876761  1.0000
  C   C2        1.0  0.8744496441839189  0.30974279346861533  0.6793255635434152  1.0000
  C   C3        1.0  0.20668963163998202  0.7971415893173913  0.31569618799152727  1.0000
  C   C4        1.0  0.7066992569982136  0.20285855525275315  0.6843038812383497  1.0000
  C   C5        1.0  0.2114086032079214  0.9772155965619193  0.3691593630553386  1.0000
  C   C6        1.0  0.7114130124353225  0.0227845988180775  0.6308414453689652  1.0000
  C   C7        1.0  0.04715627242831031  0.0863102292875197  0.3606005819165006  1.0000
  C   C8        1.0  0.5471549827278963  0.9136896022384207  0.6393988813906974  1.0000
  C   C9        1.0  0.8776003394508721  0.012686239712699901  0.304696624936625  1.0000
  C   C10       1.0  0.37759651655974125  0.9873168895507404  0.6952999779497944  1.0000
  C   C11       1.0  0.8712353918167681  0.8428046762069314  0.2556225852164076  1.0000
  C   C12       1.0  0.3712349564217022  0.15719837866128475  0.74437180223444  1.0000
  C   C13       1.0  0.036280386560363795  0.7299657338189434  0.25702553797851385  1.0000
  C   C14       1.0  0.5362863078385729  0.2700352676087689  0.7429718846289575  1.0000
  C   C15       1.0  0.05458464623205119  0.26479013610729396  0.4059920471154258  1.0000
  C   C16       1.0  0.5545781365317737  0.7352071979450302  0.5940085420677264  1.0000
  C   C17       1.0  0.21621346880359485  0.33753273113935484  0.4622109859623081  1.0000
  C   C18       1.0  0.7162076288459718  0.662463658037538  0.5377922474207538  1.0000
  C   C19       1.0  0.37474806035533  0.23045348138593622  0.47508746093956244  1.0000
  C   C20       1.0  0.8747481346878276  0.7695406424403829  0.5249182398109369  1.0000
  C   C21       1.0  0.3729244519428718  0.055693983859462996  0.4294405060408835  1.0000
  C   C22       1.0  0.8729311708991361  0.9443001146436102  0.5705637184206511  1.0000
  C   C23       1.0  0.5789745099281235  0.43862934376854673  0.280734783007027  1.0000
  C   C24       1.0  0.07898108977511953  0.561370796079423  0.7192624753980896  1.0000
  C   C25       1.0  0.6365502342494411  0.3387708483084779  0.17480885842731206  1.0000
  C   C26       1.0  0.13655930578261183  0.6612324475887661  0.8251887678197392  1.0000
  C   C27       1.0  0.49921267257592206  0.18633327194724097  0.012985271232771801  1.0000
  C   C28       1.0  0.999225170920461  0.8136620710833496  0.9870145607057454  1.0000
  C   C29       1.0  0.41948516376024975  0.08877717642621971  0.16366797951440054  1.0000
  C   C30       1.0  0.9194950269649029  0.9112212466006185  0.8363345720500563  1.0000
  N   N1        1.0  0.0649387622613062  0.2645521058222258  0.0570958785577176  1.0000
  N   N2        1.0  0.5649503426323506  0.7354504723544507  0.942901727935606  1.0000
  N   N3        1.0  0.3959947001225856  0.5302151021325513  0.27215862055959417  1.0000
  N   N4        1.0  0.8960077948322933  0.4697856432155376  0.727839849124223  1.0000
  N   N5        1.0  0.4651121986987904  0.24038668004848773  0.12314307972543763  1.0000
  N   N6        1.0  0.965122837575926  0.7596147615639597  0.8768561469175681  1.0000
  N   N7        1.0  0.9787582229016254  0.32722410878303515  0.9971930720223413  1.0000
  N   N8        1.0  0.4787670856648774  0.6727774872872914  0.0028098478517791085  1.0000
  N   N9        1.0  0.8910942264480539  0.3797875992834605  0.9362328166981587  1.0000
  N   N10       1.0  0.39111104161616345  0.6202208409820501  0.06376818329908224  1.0000
  O   O1        1.0  0.0156401490014559  0.5723380587470644  0.20453364261366863  1.0000
  O   O2        1.0  0.51565393763142  0.4276640182611402  0.795462474494066  1.0000
