data_image0
_chemical_formula_structural       Ca4H40C40N8O20
_chemical_formula_sum              "Ca4 H40 C40 N8 O20"
_cell_length_a       6.4562619320869
_cell_length_b       10.785643919137678
_cell_length_c       16.54930175235059
_cell_angle_alpha    89.99953096352087
_cell_angle_beta     89.99951214519707
_cell_angle_gamma    99.84397562107965

_space_group_name_H-M_alt    "P 1"
_space_group_IT_number       1

loop_
  _space_group_symop_operation_xyz
  'x, y, z'

loop_
  _atom_site_type_symbol
  _atom_site_label
  _atom_site_symmetry_multiplicity
  _atom_site_fract_x
  _atom_site_fract_y
  _atom_site_fract_z
  _atom_site_occupancy
  Ca  Ca1       1.0  0.7836489890964272  0.5830226883093986  0.9573251556448736  1.0000
  Ca  Ca2       1.0  0.716370659666076  0.9169846238464386  0.4573298677497775  1.0000
  Ca  Ca3       1.0  0.21634751182988765  0.41698046059850197  0.0426716309238842  1.0000
  Ca  Ca4       1.0  0.28366411629858124  0.08302802010500442  0.5426717527712981  1.0000
  H   H1        1.0  0.19922509405279965  0.7536745432291245  0.7603566301735469  1.0000
  H   H2        1.0  0.3007733020558662  0.7463175775313645  0.2603631819085521  1.0000
  H   H3        1.0  0.8007734561346992  0.24632484911404623  0.2396316968304291  1.0000
  H   H4        1.0  0.6992378577697236  0.25367150060100846  0.7396402514796206  1.0000
  H   H5        1.0  0.825542370639546  0.8726007798995924  0.6686057891222958  1.0000
  H   H6        1.0  0.6744508311936385  0.6274221426906196  0.16861520453684875  1.0000
  H   H7        1.0  0.17446287837762503  0.1273948668443765  0.3313903931969122  1.0000
  H   H8        1.0  0.32554601068187583  0.37259887416574605  0.8313906458102309  1.0000
  H   H9        1.0  0.4282440030197989  0.7621827623501289  0.0439815946067199  1.0000
  H   H10       1.0  0.07177196235192453  0.737810808839889  0.5439834035341563  1.0000
  H   H11       1.0  0.5717449847896886  0.2378156667288566  0.9560170047523187  1.0000
  H   H12       1.0  0.9282203357598602  0.2621772839819414  0.4560127788265688  1.0000
  H   H13       1.0  0.9538090456340526  0.7710288594072096  0.7906992168141258  1.0000
  H   H14       1.0  0.5461933158657998  0.7289865867116703  0.29071213971584337  1.0000
  H   H15       1.0  0.04618246443261853  0.22895641038839196  0.2092981740656228  1.0000
  H   H16       1.0  0.4538249622579897  0.2710335408557257  0.7092985446390329  1.0000
  H   H17       1.0  0.27262429239999625  0.8852207990070157  0.11227685203760268  1.0000
  H   H18       1.0  0.2273766879511498  0.6147688771111461  0.6122781989318113  1.0000
  H   H19       1.0  0.727376858222044  0.11478236094021105  0.8877265813295594  1.0000
  H   H20       1.0  0.7726096991931825  0.38522578423003745  0.3877228174619631  1.0000
  H   H21       1.0  0.3794460021504448  0.0489961177700096  0.1076460808094808  1.0000
  H   H22       1.0  0.12055272525641676  0.45099347725049915  0.6076453836816498  1.0000
  H   H23       1.0  0.6205623466347278  0.9509995363165944  0.8923567483107034  1.0000
  H   H24       1.0  0.8794346864707876  0.5489993057806473  0.3923550284603436  1.0000
  H   H25       1.0  0.42597964448970776  0.9594630655649609  0.194411588375111  1.0000
  H   H26       1.0  0.07401399889776886  0.5405234637227778  0.6944120245601153  1.0000
  H   H27       1.0  0.5740217427257618  0.040535393078286595  0.8055882194735914  1.0000
  H   H28       1.0  0.9259690257146856  0.4594702492193719  0.3055889918417449  1.0000
  H   H29       1.0  0.9186556328267769  0.9733304207463077  0.0718484675830808  1.0000
  H   H30       1.0  0.5813482863082341  0.5266733099982304  0.5718489534540936  1.0000
  H   H31       1.0  0.08134599085488499  0.026663336519163704  0.9281573828287648  1.0000
  H   H32       1.0  0.4186344756198607  0.47331946193363456  0.4281526672058077  1.0000
  H   H33       1.0  0.8309366073918338  0.010428910990647501  0.17061727947248778  1.0000
  H   H34       1.0  0.6690537995325413  0.48957031879362495  0.6706198421247151  1.0000
  H   H35       1.0  0.1690539041590355  0.9895638794154208  0.8293855496847726  1.0000
  H   H36       1.0  0.3309346628684721  0.5104262282417481  0.329382987025916  1.0000
  H   H37       1.0  0.7872349868851597  0.10504971643562301  0.0859700235850767  1.0000
  H   H38       1.0  0.712755047379865  0.39494703771919876  0.5859723421447355  1.0000
  H   H39       1.0  0.21276119901588694  0.8949412067412368  0.9140334098228919  1.0000
  H   H40       1.0  0.2872308143798464  0.6050457415921998  0.4140310912753335  1.0000
  C   C1        1.0  0.45262569875950487  0.7006081405846204  0.8288323541621593  1.0000
  C   C2        1.0  0.04737972144359765  0.7993923597477846  0.3288430850154782  1.0000
  C   C3        1.0  0.5473648390731469  0.2993902922463931  0.1711589941331013  1.0000
  C   C4        1.0  0.9526395290653011  0.20061460487181654  0.6711621610769711  1.0000
  C   C5        1.0  0.39819905878623985  0.8837474587887044  0.6374220675293287  1.0000
  C   C6        1.0  0.10180186342487475  0.6162606424996255  0.1374269482043857  1.0000
  C   C7        1.0  0.6018261288844328  0.11625857968576274  0.3625735104741706  1.0000
  C   C8        1.0  0.8981887004191904  0.38374343259953764  0.862573463902308  1.0000
  C   C9        1.0  0.3674170914579591  0.7568836366624512  0.7640833894672099  1.0000
  C   C10       1.0  0.1325825199424316  0.7431131322399409  0.2640899092701119  1.0000
  C   C11       1.0  0.6325744709257677  0.2431129178400795  0.235909771596674  1.0000
  C   C12       1.0  0.867430242064337  0.2568872342591534  0.7359141283404327  1.0000
  C   C13       1.0  0.7140355190341836  0.8237893029508925  0.7122411768815267  1.0000
  C   C14       1.0  0.7859616572258049  0.6762235620359152  0.2122457342149247  1.0000
  C   C15       1.0  0.28596145497560593  0.1762044432890946  0.2877562139666097  1.0000
  C   C16       1.0  0.2140462707452286  0.32379277939787704  0.7877558863406122  1.0000
  C   C17       1.0  0.497274742361931  0.8188375469251241  0.7041372784488047  1.0000
  C   C18       1.0  0.0027249491827206745  0.6811714179897734  0.2041445571758587  1.0000
  C   C19       1.0  0.5027302701492926  0.18116280117355635  0.29585588258276363  1.0000
  C   C20       1.0  0.9972762275859279  0.31883738430400405  0.7958576676660201  1.0000
  C   C21       1.0  0.5873945234902039  0.8192568407544274  0.0474272466255883  1.0000
  C   C22       1.0  0.9126193379313533  0.6807472849089536  0.5474324643739763  1.0000
  C   C23       1.0  0.4125965396077831  0.18074347403719324  0.9525707484698956  1.0000
  C   C24       1.0  0.08736859917252102  0.3192473801473596  0.4525661349968289  1.0000
  C   C25       1.0  0.3105466359783833  0.6371984782719694  0.8950857039765195  1.0000
  C   C26       1.0  0.18946090223762738  0.8627981988693282  0.3950895852232321  1.0000
  C   C27       1.0  0.6894460032018942  0.3628074825674973  0.1049104783360093  1.0000
  C   C28       1.0  0.8105632346001883  0.13720407550867722  0.604915660873651  1.0000
  C   C29       1.0  0.7866766891717629  0.766688249646435  0.7799165719742617  1.0000
  C   C30       1.0  0.7133290298586987  0.7333217261186749  0.279929524268681  1.0000
  C   C31       1.0  0.2133218348055195  0.23330550031329278  0.22007779759580606  1.0000
  C   C32       1.0  0.2866827597947649  0.26669180334666015  0.7200775345838863  1.0000
  C   C33       1.0  0.40850717061595543  0.9566383725566967  0.1283151805319918  1.0000
  C   C34       1.0  0.09149338760889954  0.5433510587537996  0.6283155439599213  1.0000
  C   C35       1.0  0.5914939538913017  0.04335914506243201  0.8716870443400565  1.0000
  C   C36       1.0  0.9084927368669752  0.4566426615863293  0.3716848681817027  1.0000
  C   C37       1.0  0.7949278001057747  0.008572788202812404  0.10553423544762808  1.0000
  C   C38       1.0  0.7050650817627399  0.4914246157237941  0.6055354608244128  1.0000
  C   C39       1.0  0.20506709853599156  0.9914190722784184  0.8944698022150703  1.0000
  C   C40       1.0  0.2949213053736344  0.5085700456127853  0.39446615982446787  1.0000
  N   N1        1.0  0.6613222532754931  0.7046585894233317  0.8366468301146526  1.0000
  N   N2        1.0  0.8386808957909511  0.7953411140581966  0.33665601667043876  1.0000
  N   N3        1.0  0.3386617959755042  0.29533324524105353  0.1633493522497176  1.0000
  N   N4        1.0  0.16134069266694687  0.2046686772704831  0.6633498336657127  1.0000
  N   N5        1.0  0.5961836811359406  0.9254415815365605  0.09057801434953917  1.0000
  N   N6        1.0  0.9038194562195938  0.5745552799708876  0.5905783889223031  1.0000
  N   N7        1.0  0.4038104556391103  0.07455309828343812  0.9094236062865022  1.0000
  N   N8        1.0  0.09616666827218984  0.42543844037847134  0.4094208147091151  1.0000
  O   O1        1.0  0.39384917915102596  0.5718636267659322  0.9464595093067629  1.0000
  O   O2        1.0  0.10616790868519402  0.9281435767702607  0.4464590874207133  1.0000
  O   O3        1.0  0.6061418839708209  0.4281366880395225  0.053536673023415894  1.0000
  O   O4        1.0  0.893861928681204  0.07186247274352552  0.5535431373811904  1.0000
  O   O5        1.0  0.48619204646657016  0.8954699730613529  0.5685948180302773  1.0000
  O   O6        1.0  0.01381150154136899  0.6045476442209293  0.0685952176068199  1.0000
  O   O7        1.0  0.5138461181686081  0.10454926163107099  0.4314061982125352  1.0000
  O   O8        1.0  0.9861780638743693  0.39546395153942643  0.9314039859712722  1.0000
  O   O9        1.0  0.23132066464024362  0.9259005300497523  0.6544090500139532  1.0000
  O   O10       1.0  0.26866171058784266  0.5741035072775207  0.1544111875338743  1.0000
  O   O11       1.0  0.768686685843832  0.07410264477184111  0.3455829024960195  1.0000
  O   O12       1.0  0.7313192648906651  0.4258939623031567  0.8455886203511441  1.0000
  O   O13       1.0  0.12272840326608055  0.6558120110589627  0.8942200668123661  1.0000
  O   O14       1.0  0.37728252026483494  0.8441856276941523  0.39422403151515784  1.0000
  O   O15       1.0  0.8772652604970685  0.34419207147046643  0.1057755112483818  1.0000
  O   O16       1.0  0.6227480789921385  0.15581760249470736  0.6057787975481119  1.0000
  O   O17       1.0  0.7415177154653845  0.7850986692596038  0.0138631294460438  1.0000
  O   O18       1.0  0.7584978434934511  0.714914434063445  0.5138722993880762  1.0000
  O   O19       1.0  0.25846922328172883  0.2149035164994189  0.9861288231002588  1.0000
  O   O20       1.0  0.24149114430808546  0.28508399501092907  0.48612690422606164  1.0000
