data_image0
_chemical_formula_structural       Ag4H48C52S8Cl4O16
_chemical_formula_sum              "Ag4 H48 C52 S8 Cl4 O16"
_cell_length_a       9.311229216243415
_cell_length_b       11.011719466
_cell_length_c       14.5623
_cell_angle_alpha    90.0
_cell_angle_beta     96.68033533173242
_cell_angle_gamma    90.0

_space_group_name_H-M_alt    "P 1"
_space_group_IT_number       1

loop_
  _space_group_symop_operation_xyz
  'x, y, z'

loop_
  _atom_site_type_symbol
  _atom_site_label
  _atom_site_symmetry_multiplicity
  _atom_site_fract_x
  _atom_site_fract_y
  _atom_site_fract_z
  _atom_site_occupancy
  Ag  Ag1       1.0  0.8469171652846583  0.4065323325591521  0.32762741143844215  1.0000
  Ag  Ag2       1.0  0.6530830715770648  0.9065323568060464  0.1723726748502941  1.0000
  Ag  Ag3       1.0  0.1530837134988161  0.5934686240580263  0.6723729286091713  1.0000
  Ag  Ag4       1.0  0.3469167258929176  0.093468599811132  0.8276275847669868  1.0000
  H   H1        1.0  0.9982058983889885  0.22027350110845842  0.4580245342962003  1.0000
  H   H2        1.0  0.5017965010997116  0.7202744334787425  0.04197502614849211  1.0000
  H   H3        1.0  0.0017949803944858997  0.7797265473853301  0.5419758057514132  1.0000
  H   H4        1.0  0.4982043776837628  0.2797274312618256  0.9580246271944121  1.0000
  H   H5        1.0  0.1504442272681317  0.0908904375098061  0.5707221575868433  1.0000
  H   H6        1.0  0.3495572934370941  0.5908886455099207  0.929277749514938  1.0000
  H   H7        1.0  0.8495555702018508  0.9091096109839825  0.4292774153257284  1.0000
  H   H8        1.0  0.6504435853463804  0.4091114029838678  0.07072190382796611  1.0000
  H   H9        1.0  0.3595291664479063  0.9773287480878139  0.5212914611934991  1.0000
  H   H10       1.0  0.1404712729438344  0.4773269075941399  0.9787083654779566  1.0000
  H   H11       1.0  0.640469549708591  0.0226731166527543  0.4787080312887397  1.0000
  H   H12       1.0  0.8595306871531321  0.5226731408996486  0.02129274170470549  1.0000
  H   H13       1.0  0.4122583375061382  0.9886557711186087  0.3573685140719435  1.0000
  H   H14       1.0  0.0877431831990876  0.4886548387483245  0.142632766439263  1.0000
  H   H15       1.0  0.5877425412773363  0.0113433692517901  0.642632512680386  1.0000
  H   H16       1.0  0.9122576955843869  0.5113433934986915  0.8573682603130665  1.0000
  H   H17       1.0  0.2611285574849305  0.1177064130631038  0.24525711351401472  1.0000
  H   H18       1.0  0.23887404453378744  0.6177064373099981  0.25474150060868084  1.0000
  H   H19       1.0  0.7388712399850519  0.8822936354306847  0.754742459398557  1.0000
  H   H20       1.0  0.7611279155631793  0.3822936111837905  0.745258233164556  1.0000
  H   H21       1.0  0.9789455424934631  0.0811635278904035  0.1717742636152835  1.0000
  H   H22       1.0  0.521053613054761  0.5811626440139079  0.3282257422431201  1.0000
  H   H23       1.0  0.0210542549765194  0.9188374287267749  0.8282259960020043  1.0000
  H   H24       1.0  0.4789451031017293  0.4188374044798806  0.6717744369438281  1.0000
  H   H25       1.0  0.8467182036023786  0.1935347160432315  0.13644912846657323  1.0000
  H   H26       1.0  0.6532820332593445  0.6935338321667359  0.36355095782216307  1.0000
  H   H27       1.0  0.1532815938676109  0.8064671486973367  0.8635511311507076  1.0000
  H   H28       1.0  0.3467177642106378  0.3064662163270526  0.6364493017951247  1.0000
  H   H29       1.0  0.7005354328009119  0.20571265068949882  0.4176958150078391  1.0000
  H   H30       1.0  0.7994669666877954  0.7057126749363931  0.08230443214156222  1.0000
  H   H31       1.0  0.2994654459825625  0.7942864896808999  0.582304525039774  1.0000
  H   H32       1.0  0.200531749468702  0.2942882816807852  0.9176950603406767  1.0000
  H   H33       1.0  0.5073739160845037  0.3589711863079188  0.4296254186619494  1.0000
  H   H34       1.0  0.9926284834041965  0.8589721186782029  0.0703762018968774  1.0000
  H   H35       1.0  0.49262480007198656  0.6410279540624799  0.5703754472297078  1.0000
  H   H36       1.0  0.0073723953792779  0.1410270216922029  0.9296234514460338  1.0000
  H   H37       1.0  0.346462574226841  0.4204938215413847  0.2887270041391545  1.0000
  H   H38       1.0  0.1535378651648927  0.920493845788279  0.21127556935113742  1.0000
  H   H39       1.0  0.6535361419296493  0.5795062269524038  0.7112738617525027  1.0000
  H   H40       1.0  0.8464640949320739  0.0795043864587299  0.7887241644220994  1.0000
  H   H41       1.0  0.3831720859210463  0.3344945366046446  0.1355515297031005  1.0000
  H   H42       1.0  0.11682727215720229  0.8344927446047592  0.3644495899474408  1.0000
  H   H43       1.0  0.616827711548936  0.6655064200125338  0.8644487299141802  1.0000
  H   H44       1.0  0.8831736066262721  0.1655054876422497  0.6355500633954636  1.0000
  H   H45       1.0  0.5730237020425619  0.1784544190457709  0.12318139136237252  1.0000
  H   H46       1.0  0.9269754535056692  0.6784535351692753  0.37681930120074014  1.0000
  H   H47       1.0  0.4269760954274275  0.8215465375714074  0.8768195549596245  1.0000
  H   H48       1.0  0.0730243439643132  0.3215456052011234  0.6231802717118315  1.0000
  C   C1        1.0  0.08841576019028  0.1690063033067801  0.4362497443829839  1.0000
  C   C2        1.0  0.41158792314192993  0.669008143800454  0.0637489501700514  1.0000
  C   C3        1.0  0.9115840372797095  0.8309928370636186  0.5637505152342969  1.0000
  C   C4        1.0  0.5884140369550295  0.3309955371868867  0.9362500968984834  1.0000
  C   C5        1.0  0.1752127940850414  0.097400774085429  0.4995616038002454  1.0000
  C   C6        1.0  0.3247876453066922  0.5973998902089335  0.0004375361665011917  1.0000
  C   C7        1.0  0.8247848407579568  0.9025983662849697  0.5004371215469519  1.0000
  C   C8        1.0  0.6752132334767822  0.4026019745316347  0.9995621171764032  1.0000
  C   C9        1.0  0.2919222030717634  0.0330102851895546  0.4716543774259635  1.0000
  C   C10       1.0  0.2080760736929932  0.5330121256832214  0.0283446016801179  1.0000
  C   C11       1.0  0.7080754317712348  0.9669870389340715  0.5283457213306519  1.0000
  C   C12       1.0  0.7919237237769892  0.4669888309339569  0.9716542845277445  1.0000
  C   C13       1.0  0.3223709096550778  0.0396114341040743  0.3800652223683585  1.0000
  C   C14       1.0  0.1776295297366559  0.5396114583509686  0.1199346043030971  1.0000
  C   C15       1.0  0.6776278065014125  0.9603877062663245  0.6199356435232986  1.0000
  C   C16       1.0  0.8223713490468185  0.46038859014282  0.8800650490398144  1.0000
  C   C17       1.0  0.2370098600759007  0.1113949555096667  0.3164632591127656  1.0000
  C   C18       1.0  0.2629905793158329  0.611394979756561  0.1835365675586829  1.0000
  C   C19       1.0  0.7629888560805895  0.8886050929841219  0.6835362333694734  1.0000
  C   C20       1.0  0.7370113807811265  0.3886050687372276  0.8164638529192632  1.0000
  C   C21       1.0  0.11985819387150091  0.1752687221972167  0.344809355616114  1.0000
  C   C22       1.0  0.380144408147217  0.6752696545674937  0.1551906319160068  1.0000
  C   C23       1.0  0.8801426849119736  0.8247322344199618  0.6551909844314994  1.0000
  C   C24       1.0  0.6198564706362575  0.3247322101730674  0.8448090214269045  1.0000
  C   C25       1.0  0.9070933423530221  0.1494880073073617  0.19648269325655582  1.0000
  C   C26       1.0  0.592907975822186  0.6494880315542559  0.30351747346252017  1.0000
  C   C27       1.0  0.0929064551169603  0.8505120411864268  0.803517566360732  1.0000
  C   C28       1.0  0.4070929029612884  0.3505129250629224  0.6964828665851004  1.0000
  C   C29       1.0  0.6481544446866678  0.1828197681766142  0.2695792589404888  1.0000
  C   C30       1.0  0.8518468734885475  0.6828179761767288  0.23042159448329616  1.0000
  C   C31       1.0  0.3518464340968066  0.8171811884405642  0.7304224545165497  1.0000
  C   C32       1.0  0.148152923981435  0.3171802560702801  0.7695772917245665  1.0000
  C   C33       1.0  0.6315973725177741  0.2346236669011788  0.3559451358905933  1.0000
  C   C34       1.0  0.868402864343942  0.734623691148073  0.1440556371028521  1.0000
  C   C35       1.0  0.36840026232522405  0.7653754734692199  0.6440570229801497  1.0000
  C   C36       1.0  0.1315969331260405  0.2653754492223257  0.8559425624003012  1.0000
  C   C37       1.0  0.522407417545061  0.3206511036629749  0.36249206046380084  1.0000
  C   C38       1.0  0.9775939006301471  0.8206511279098692  0.1375094796646934  1.0000
  C   C39       1.0  0.47759129861142924  0.6793480367074238  0.6375094921325727  1.0000
  C   C40       1.0  0.022406978153327404  0.1793480124605296  0.8624894869735018  1.0000
  C   C41       1.0  0.4334758708197413  0.3558381606159244  0.2832031885690682  1.0000
  C   C42       1.0  0.0665245685719924  0.8558381848628187  0.21679801151180567  1.0000
  C   C43       1.0  0.566522845336749  0.6441618878778641  0.716797677322589  1.0000
  C   C44       1.0  0.93347522889799  0.14416095550758  0.7832015614007661  1.0000
  C   C45       1.0  0.4536510179283582  0.3069012074303785  0.19704806161757202  1.0000
  C   C46       1.0  0.0463483401498905  0.8068994154304931  0.3029523713282601  1.0000
  C   C47       1.0  0.5463476982281321  0.6930997491867998  0.8029528042740921  1.0000
  C   C48       1.0  0.9536503760066068  0.1930979086931259  0.6970464344492697  1.0000
  C   C49       1.0  0.5601960801029335  0.2196232847619441  0.18979555625618624  1.0000
  C   C50       1.0  0.9398030754452976  0.7196214927620659  0.31020513630692653  1.0000
  C   C51       1.0  0.4398047986805409  0.7803785799786169  0.8102054704961436  1.0000
  C   C52       1.0  0.0601945593977078  0.2803758313615603  0.6897935890402636  1.0000
  S   S1        1.0  0.0150410706549948  0.2652337819736488  0.26008817952285324  1.0000
  S   S2        1.0  0.4849593687367459  0.7652328980971532  0.23991096044388638  1.0000
  S   S3        1.0  0.9849587268149946  0.7347671746435295  0.7399113933897183  1.0000
  S   S4        1.0  0.5150404287332364  0.2347671503966353  0.7600892991733944  1.0000
  S   S5        1.0  0.7833478264826184  0.0697593143715523  0.26364873671072087  1.0000
  S   S6        1.0  0.7166524103791048  0.5697593386184465  0.23634997616859724  1.0000
  S   S7        1.0  0.21665197098736402  0.9302407341222434  0.7363508362018579  1.0000
  S   S8        1.0  0.2833452244639005  0.4302398017519593  0.7636494358833091  1.0000
  Cl  Cl1       1.0  0.7856867075629027  0.4704215373443148  0.5487138304922824  1.0000
  Cl  Cl2       1.0  0.7143124479853284  0.9704233778379816  0.9512868620708306  1.0000
  Cl  Cl3       1.0  0.2143130899070798  0.5295785111494808  0.4512864291249984  1.0000
  Cl  Cl4       1.0  0.2856873494846539  0.0295784869025866  0.04871408425115931  1.0000
  O   O1        1.0  0.874333868840182  0.3897302336161772  0.49609990963289624  1.0000
  O   O2        1.0  0.6256685306485252  0.8897302578630716  0.0038996508118031912  1.0000
  O   O3        1.0  0.1256659286298074  0.6102698148776113  0.5039003499843915  1.0000
  O   O4        1.0  0.3743345107619334  0.1102697906307171  0.9960994766870643  1.0000
  O   O5        1.0  0.8748626311371055  0.510288154120687  0.6327447213434213  1.0000
  O   O6        1.0  0.6251376057246105  0.0102890379971825  0.8672560516500242  1.0000
  O   O7        1.0  0.1251371663328769  0.4897109862497118  0.36725622497856864  1.0000
  O   O8        1.0  0.3748632730588639  0.9897101023732162  0.13274428839758914  1.0000
  O   O9        1.0  0.6622428781563912  0.4020925173104146  0.5741108387620173  1.0000
  O   O10       1.0  0.8377584400188169  0.9020970821742509  0.9258886412523424  1.0000
  O   O11       1.0  0.3377580006270833  0.597907531183381  0.4258901879903051  1.0000
  O   O12       1.0  0.1622435200781425  0.0979084150598695  0.07410971911148322  1.0000
  O   O13       1.0  0.7377693815380795  0.5743281073884177  0.49182976673177603  1.0000
  O   O14       1.0  0.7622297740101516  0.0743289912649132  0.008170925831336693  1.0000
  O   O15       1.0  0.262231497245395  0.42567103298198106  0.5081712600205535  1.0000
  O   O16       1.0  0.2377689421463387  0.9256701491054855  0.9918292533556115  1.0000
