data_image0
_chemical_formula_structural       Cu2H48C66N8Cl4
_chemical_formula_sum              "Cu2 H48 C66 N8 Cl4"
_cell_length_a       11.678549060598241
_cell_length_b       11.678307964368045
_cell_length_c       11.804219497648836
_cell_angle_alpha    91.76124168600543
_cell_angle_beta     91.75300222578883
_cell_angle_gamma    104.74920930148281

_space_group_name_H-M_alt    "P 1"
_space_group_IT_number       1

loop_
  _space_group_symop_operation_xyz
  'x, y, z'

loop_
  _atom_site_type_symbol
  _atom_site_label
  _atom_site_symmetry_multiplicity
  _atom_site_fract_x
  _atom_site_fract_y
  _atom_site_fract_z
  _atom_site_occupancy
  Cu  Cu1       1.0  0.7269901960829512  0.1284177822603993  0.5299436042610424  1.0000
  Cu  Cu2       1.0  0.1283706373189801  0.726931491892856  0.02992533618937901  1.0000
  H   H1        1.0  0.5572503433935623  0.13007213555320624  0.7139039539326504  1.0000
  H   H2        1.0  0.1300435329976466  0.5572045738642117  0.2139057814497534  1.0000
  H   H3        1.0  0.51011815767405  0.03143026920420772  0.8964052215375986  1.0000
  H   H4        1.0  0.031416623335268  0.5100967632222506  0.39642801928213345  1.0000
  H   H5        1.0  0.8128841191639681  0.8853372221545611  0.8530487672274774  1.0000
  H   H6        1.0  0.8853299838677414  0.81286990926602  0.3531250505946559  1.0000
  H   H7        1.0  0.8423752467865099  0.9862954200196089  0.6700791972136955  1.0000
  H   H8        1.0  0.986255556814612  0.8423582946300173  0.1701247395248373  1.0000
  H   H9        1.0  0.6406443234192025  0.6053391977745122  0.0882573822587602  1.0000
  H   H10       1.0  0.6053545183576077  0.6406292004998734  0.5883150393686662  1.0000
  H   H11       1.0  0.7090490310508244  0.738369301141269  0.9348089208805562  1.0000
  H   H12       1.0  0.738419065215993  0.7090613259616847  0.4348984566213332  1.0000
  H   H13       1.0  0.5270996126497778  0.9861209871810391  0.07509616765906911  1.0000
  H   H14       1.0  0.9861326903524841  0.5271283458431101  0.5751503334583532  1.0000
  H   H15       1.0  0.46437591453574356  0.8557683460578149  0.23138429823485046  1.0000
  H   H16       1.0  0.8557700802477014  0.4643778350256015  0.7314302963055894  1.0000
  H   H17       1.0  0.20288532154353336  0.9529764402303872  0.9216333757594911  1.0000
  H   H18       1.0  0.9529713538407093  0.2028710682091486  0.4216436498137028  1.0000
  H   H19       1.0  0.30181267742030116  0.16429708697516082  0.9609372273946449  1.0000
  H   H20       1.0  0.16428515013517853  0.30178309054024777  0.4609253510694487  1.0000
  H   H21       1.0  0.35936197818191573  0.07734833993389152  0.309265795216298  1.0000
  H   H22       1.0  0.07733214599890909  0.3593814838208189  0.809264037541368  1.0000
  H   H23       1.0  0.2641435445361893  0.8684079496874875  0.252270748243383  1.0000
  H   H24       1.0  0.8684049083582722  0.26417495753827325  0.7522870875175158  1.0000
  H   H25       1.0  0.5552054209572999  0.46421138121286276  0.3672572395178122  1.0000
  H   H26       1.0  0.46417371670013796  0.5551763920872902  0.867293945623132  1.0000
  H   H27       1.0  0.48475603026231784  0.24912188526381843  0.3219516597915231  1.0000
  H   H28       1.0  0.24910338582875366  0.48473937280705576  0.8219801522622917  1.0000
  H   H29       1.0  0.29318685608996725  0.3254108353716703  0.025087916341469504  1.0000
  H   H30       1.0  0.325427164404843  0.2931976389313676  0.5250594124055327  1.0000
  H   H31       1.0  0.3660120958324597  0.537080965557152  0.0702927332280936  1.0000
  H   H32       1.0  0.5370784378656808  0.3660114681338911  0.5702872963504859  1.0000
  H   H33       1.0  0.37488909177349666  0.7886645020100288  0.9532515117586655  1.0000
  H   H34       1.0  0.7886622931857658  0.374940690217443  0.4532844662897091  1.0000
  H   H35       1.0  0.4745825542793441  0.7845141371076069  0.7701536624832386  1.0000
  H   H36       1.0  0.7845311790663914  0.47459183982542197  0.27018991953492844  1.0000
  H   H37       1.0  0.12826091438697773  0.7021307792932917  0.6020377869335931  1.0000
  H   H38       1.0  0.7021338757614544  0.12823550682747964  0.10210203617829451  1.0000
  H   H39       1.0  0.04226673450712335  0.7088923295747307  0.7932020568993963  1.0000
  H   H40       1.0  0.7088634597387298  0.04228209706261771  0.2932608162380603  1.0000
  H   H41       1.0  0.2984416943311032  0.5207459136965725  0.3364322682083625  1.0000
  H   H42       1.0  0.5206770448407383  0.2984257165332878  0.8364977734154878  1.0000
  H   H43       1.0  0.21672050541148022  0.5665666403570457  0.5173941823197056  1.0000
  H   H44       1.0  0.566512719007271  0.2167073191964874  0.017434903356914302  1.0000
  H   H45       1.0  0.5158262885309384  0.8696683344083666  0.5767932961170885  1.0000
  H   H46       1.0  0.8696398781816156  0.5158047145623498  0.0767808831306951  1.0000
  H   H47       1.0  0.5987470518469139  0.8241061793933259  0.39879696474717014  1.0000
  H   H48       1.0  0.8240862198324661  0.5987025787930165  0.8988018791538224  1.0000
  C   C1        1.0  0.6119763280016245  0.07623940757801512  0.7495909465580298  1.0000
  C   C2        1.0  0.07621995918045602  0.6119424825329106  0.2495884470486374  1.0000
  C   C3        1.0  0.5869486323847184  0.020483073602193303  0.8513861135575098  1.0000
  C   C4        1.0  0.020485060755895308  0.586934789876601  0.3514209579118202  1.0000
  C   C5        1.0  0.6549518029310945  0.9452018078379825  0.8910625370275014  1.0000
  C   C6        1.0  0.9452033962932446  0.654945514219371  0.3911136484660958  1.0000
  C   C7        1.0  0.7517317634279337  0.9368409819272686  0.8256027859639374  1.0000
  C   C8        1.0  0.9368464242223453  0.7517202785222921  0.3256384743793319  1.0000
  C   C9        1.0  0.7712699345483855  0.9950121718447278  0.724709207174996  1.0000
  C   C10       1.0  0.9949947813340855  0.7712527262181866  0.22472178497070427  1.0000
  C   C11       1.0  0.5451878985373212  0.7193013172331463  0.1701851781495805  1.0000
  C   C12       1.0  0.7193069457126384  0.5451760792804096  0.6702353429680629  1.0000
  C   C13       1.0  0.6162315522034804  0.6892650036320944  0.08575283091824562  1.0000
  C   C14       1.0  0.6892807485547862  0.6162327021082704  0.5858185289835164  1.0000
  C   C15       1.0  0.6542137352490867  0.7646332231817042  0.9984998961056846  1.0000
  C   C16       1.0  0.7646582976752114  0.6542410281536419  0.4985901353521953  1.0000
  C   C17       1.0  0.6225481851232074  0.8728338392809435  0.9904348560842423  1.0000
  C   C18       1.0  0.8728493094925438  0.6225682114256728  0.4905044473861296  1.0000
  C   C19       1.0  0.554030393374525  0.9033474673786657  0.07700986130831922  1.0000
  C   C20       1.0  0.9033715191514701  0.5540628042466977  0.5770782640902965  1.0000
  C   C21       1.0  0.5172352677363321  0.8294347773565253  0.16603220456817522  1.0000
  C   C22       1.0  0.8294576808103002  0.5172536049387945  0.6660917727337079  1.0000
  C   C23       1.0  0.24128148823977819  0.9839045827749473  0.005722793228955012  1.0000
  C   C24       1.0  0.9839071268623981  0.24126422538863326  0.5057338834449823  1.0000
  C   C25       1.0  0.29478015413143777  0.10268376626118683  0.02940137935791401  1.0000
  C   C26       1.0  0.1026791704535839  0.2947603585040213  0.5293999895641903  1.0000
  C   C27       1.0  0.33721868612848027  0.1426178951574641  0.1403818388139655  1.0000
  C   C28       1.0  0.14260887925233592  0.3372282201076118  0.6403669893924899  1.0000
  C   C29       1.0  0.3273250347035059  0.0548787188395465  0.2214804426420116  1.0000
  C   C30       1.0  0.054876194375978626  0.3273305201258126  0.7214873102514474  1.0000
  C   C31       1.0  0.274181281314668  0.9370650652062553  0.18999255420198582  1.0000
  C   C32       1.0  0.9370724199254642  0.27420224554390427  0.6900106444164535  1.0000
  C   C33       1.0  0.46825238120584334  0.514182903632438  0.22014604427952383  1.0000
  C   C34       1.0  0.5141715243020925  0.4682364727697533  0.7201691167566295  1.0000
  C   C35       1.0  0.4994063473881738  0.4321380057985636  0.2912644442024401  1.0000
  C   C36       1.0  0.43211131738698316  0.49939092917594524  0.7912900465030432  1.0000
  C   C37       1.0  0.4581813496015386  0.3112354606282537  0.2657748243571945  1.0000
  C   C38       1.0  0.31121102974093867  0.45816722898195655  0.7657807980220142  1.0000
  C   C39       1.0  0.3848619719040798  0.2698092653193315  0.1683773951748648  1.0000
  C   C40       1.0  0.26979698871844693  0.38486191325874597  0.6683649556867124  1.0000
  C   C41       1.0  0.3546529385045076  0.3537796201318528  0.0978577128271425  1.0000
  C   C42       1.0  0.35378331288767134  0.35465677072448204  0.5978377451454122  1.0000
  C   C43       1.0  0.3958352693376881  0.4742496349691906  0.1227668759701572  1.0000
  C   C44       1.0  0.47424910482784804  0.39583626522726695  0.6227715404035763  1.0000
  C   C45       1.0  0.3236071389974953  0.7702960897687774  0.8730675811306697  1.0000
  C   C46       1.0  0.7702905842604577  0.3236565920009227  0.3730954825046596  1.0000
  C   C47       1.0  0.37865246517299056  0.7687304574315093  0.7706861051854118  1.0000
  C   C48       1.0  0.7687367204168608  0.37867153606141823  0.2707064560570771  1.0000
  C   C49       1.0  0.30929336768294047  0.7396300238455709  0.6697337728826511  1.0000
  C   C50       1.0  0.739646155953828  0.30929085755268204  0.16977207452368503  1.0000
  C   C51       1.0  0.18620703786589132  0.7199197413560016  0.6779957003245657  1.0000
  C   C52       1.0  0.7199120749279189  0.1862005238726212  0.1780452705193412  1.0000
  C   C53       1.0  0.1372143863375541  0.7234271162042347  0.7829767893293322  1.0000
  C   C54       1.0  0.7234174199074701  0.1372366343878468  0.2830285209215617  1.0000
  C   C55       1.0  0.4539284168029809  0.6686729063924659  0.3546037853282158  1.0000
  C   C56       1.0  0.6686370009729075  0.45389003803868655  0.8546294870487189  1.0000
  C   C57       1.0  0.3455232551704768  0.5974992811774342  0.3890253401551433  1.0000
  C   C58       1.0  0.5974561002251377  0.3454980646596796  0.8890714438965618  1.0000
  C   C59       1.0  0.2994493343705145  0.6238973831492131  0.4902969532104677  1.0000
  C   C60       1.0  0.6238449989951675  0.29943403944702857  0.9903557052485324  1.0000
  C   C61       1.0  0.3600046770340554  0.7207900916987666  0.5607680540793822  1.0000
  C   C62       1.0  0.7207742098389787  0.35997245144722717  0.0607984092716833  1.0000
  C   C63       1.0  0.4678188087613648  0.7922005862068674  0.5253809462180357  1.0000
  C   C64       1.0  0.7921655612736698  0.4677811012294698  0.025397046163334408  1.0000
  C   C65       1.0  0.5140930161351065  0.7673917328797942  0.42298999486149574  1.0000
  C   C66       1.0  0.7673637438687633  0.5140590164941444  0.923008242740771  1.0000
  N   N1        1.0  0.7009987112392507  0.06200548770899421  0.6851186784262495  1.0000
  N   N2        1.0  0.061962053041668234  0.7009499434056254  0.18510201401247173  1.0000
  N   N3        1.0  0.23075761427426758  0.9008579637934631  0.08416470533521192  1.0000
  N   N4        1.0  0.9008592590662656  0.2307642438133115  0.5841808097377879  1.0000
  N   N5        1.0  0.20502517844328594  0.7470672319389778  0.879435504466123  1.0000
  N   N6        1.0  0.7470996872465322  0.2050799484401581  0.3794621708062778  1.0000
  N   N7        1.0  0.5008826353008401  0.6371122918245221  0.2525028442169273  1.0000
  N   N8        1.0  0.6371028185699145  0.5008476702834416  0.7525359000976124  1.0000
  Cl  Cl1       1.0  0.5265374909955652  0.12344081796130271  0.5013035878260368  1.0000
  Cl  Cl2       1.0  0.12350470664178909  0.5264700016185557  0.0012906125737047061  1.0000
  Cl  Cl3       1.0  0.8003601984137987  0.9614173646617062  0.45455292696037475  1.0000
  Cl  Cl4       1.0  0.9614437068581198  0.8003450520081972  0.9546079419503712  1.0000
