data_image0
_chemical_formula_structural       Zn2H28C30N2O10
_chemical_formula_sum              "Zn2 H28 C30 N2 O10"
_cell_length_a       8.043989652727792
_cell_length_b       9.819397632470293
_cell_length_c       11.265658214713111
_cell_angle_alpha    66.09824371718615
_cell_angle_beta     67.19367913218724
_cell_angle_gamma    64.61702785589581

_space_group_name_H-M_alt    "P 1"
_space_group_IT_number       1

loop_
  _space_group_symop_operation_xyz
  'x, y, z'

loop_
  _atom_site_type_symbol
  _atom_site_label
  _atom_site_symmetry_multiplicity
  _atom_site_fract_x
  _atom_site_fract_y
  _atom_site_fract_z
  _atom_site_occupancy
  Zn  Zn1       1.0  0.8458821472964573  0.4304901310615747  0.9177038232313067  1.0000
  Zn  Zn2       1.0  0.1541230326595979  0.5695072448366927  0.08229633024649992  1.0000
  H   H1        1.0  0.1404779015988494  0.0695895176708703  0.011912983334610805  1.0000
  H   H2        1.0  0.8595272601255599  0.9304078004644437  0.98808985805691  1.0000
  H   H3        1.0  0.6077597292716204  0.8673670221865419  0.7168979778382865  1.0000
  H   H4        1.0  0.3922355496192011  0.13263512760185145  0.28310412345618374  1.0000
  H   H5        1.0  0.5979022685422494  0.2668275709441516  0.7922499611025345  1.0000
  H   H6        1.0  0.40209709089615575  0.7331745929577097  0.20774836966634788  1.0000
  H   H7        1.0  0.8969619591294062  0.10583458664841315  0.6625344070167786  1.0000
  H   H8        1.0  0.10303696784502843  0.8941653544064322  0.33745946548443595  1.0000
  H   H9        1.0  0.7955333855997679  0.127597169112633  0.5390078983709402  1.0000
  H   H10       1.0  0.20445420921883778  0.8724004536963434  0.4609942585112352  1.0000
  H   H11       1.0  0.8978761112975201  0.9372341432218221  0.6392869125004453  1.0000
  H   H12       1.0  0.10212097036485798  0.0627668348096861  0.3607142102967416  1.0000
  H   H13       1.0  0.37262820196464463  0.3312664051191589  0.4845009157931132  1.0000
  H   H14       1.0  0.6273729480908868  0.6687345485171858  0.5154982284209668  1.0000
  H   H15       1.0  0.3690487028691648  0.6715225178768023  0.6389642972617653  1.0000
  H   H16       1.0  0.6309519195054702  0.32846904846375935  0.36103905229203553  1.0000
  H   H17       1.0  0.06847926079306882  0.6478954137559327  0.7986887593816548  1.0000
  H   H18       1.0  0.9315209534373348  0.35210430095160916  0.2013146079325879  1.0000
  H   H19       1.0  0.03996253950887756  0.19698915364254788  0.7501108116194077  1.0000
  H   H20       1.0  0.9600399626226092  0.8030083476269566  0.249885583743435  1.0000
  H   H21       1.0  0.1143994053124189  0.23948955093585061  0.5712780485939676  1.0000
  H   H22       1.0  0.885602719060898  0.7605161949722117  0.4287138846731155  1.0000
  H   H23       1.0  0.8922068261089534  0.35885738362868835  0.6526351743389898  1.0000
  H   H24       1.0  0.10779483541433157  0.6411460431607806  0.3473567805166342  1.0000
  H   H25       1.0  0.5326838526402609  0.6043189526017301  0.8121247207261889  1.0000
  H   H26       1.0  0.46732304094763294  0.3956701063452001  0.18788222189047601  1.0000
  H   H27       1.0  0.5418980553918756  0.4311120000222814  0.8843236988052117  1.0000
  H   H28       1.0  0.458111629469144  0.5688841557651328  0.1156756504053008  1.0000
  C   C1        1.0  0.35471469100207276  0.18501617587741487  0.9064837400328829  1.0000
  C   C2        1.0  0.6452868955652844  0.8149835820432402  0.0935165784970097  1.0000
  C   C3        1.0  0.27474739087437416  0.0693351057125611  0.9359869203137524  1.0000
  C   C4        1.0  0.7252563802814433  0.9306621114466863  0.06402165777583954  1.0000
  C   C5        1.0  0.36607820031505156  0.9552160651108252  0.8676444440587333  1.0000
  C   C6        1.0  0.6339157487793087  0.0447861762446635  0.13235443422139775  1.0000
  C   C7        1.0  0.5379766896900261  0.9574221921622551  0.7695141454557871  1.0000
  C   C8        1.0  0.4620172168638418  0.042579914413018095  0.23049100462303335  1.0000
  C   C9        1.0  0.6247518580105333  0.0668454291994252  0.7426761810019898  1.0000
  C   C10       1.0  0.3752434593729318  0.9331602739318751  0.2573229324456465  1.0000
  C   C11       1.0  0.5317296752011558  0.18067821809380993  0.8124784423806873  1.0000
  C   C12       1.0  0.4682732472398712  0.8193214675140722  0.18752420319230378  1.0000
  C   C13       1.0  0.240335094984232  0.31000354491613535  0.9770930086860904  1.0000
  C   C14       1.0  0.759666016578663  0.6899938553773026  0.022909123374816494  1.0000
  C   C15       1.0  0.2929463670807235  0.8235615123286449  0.9009185364753379  1.0000
  C   C16       1.0  0.7070583804113537  0.1764336407226139  0.09907715873479372  1.0000
  C   C17       1.0  0.8139041223004282  0.0591814017921308  0.6407747179520841  1.0000
  C   C18       1.0  0.18609164171991208  0.9408197063151034  0.35922138988828334  1.0000
  C   C19       1.0  0.13847079594760464  0.39642934564690785  0.6468432374010434  1.0000
  C   C20       1.0  0.8615303662623575  0.6035716464980678  0.35315411487055565  1.0000
  C   C21       1.0  0.3112447302970692  0.40420604085421996  0.5520702022407209  1.0000
  C   C22       1.0  0.6887514722644635  0.5957973093543458  0.4479294678960742  1.0000
  C   C23       1.0  0.4052406094810052  0.4993516107409944  0.5464268380382011  1.0000
  C   C24       1.0  0.5947514517608068  0.5006515328109418  0.4535855623365848  1.0000
  C   C25       1.0  0.3107821057468455  0.5928134527365716  0.6344315676172629  1.0000
  C   C26       1.0  0.6892203092742901  0.40718034115548807  0.36557498336234323  1.0000
  C   C27       1.0  0.13904927402833775  0.5812418476325191  0.7255893428985233  1.0000
  C   C28       1.0  0.8609482441458594  0.418757934683306  0.27441295421447637  1.0000
  C   C29       1.0  0.04142120374417856  0.2919329865102113  0.6548316850761825  1.0000
  C   C30       1.0  0.9585813449865268  0.7080715251735297  0.345163214449194  1.0000
  N   N1        1.0  0.05524312064223838  0.48222288952408837  0.7358921307966856  1.0000
  N   N2        1.0  0.9447562165057942  0.517772340980798  0.2641041119247023  1.0000
  O   O1        1.0  0.32165243256415726  0.3898349815796961  0.9900269746525158  1.0000
  O   O2        1.0  0.6783464336381472  0.6101647669319873  0.009975857561101916  1.0000
  O   O3        1.0  0.0629632554490698  0.33242961913349933  0.023387501561849402  1.0000
  O   O4        1.0  0.9370365587327922  0.6675714068156253  0.9766093156091316  1.0000
  O   O5        1.0  0.18759264579067292  0.784086671781928  0.020378707878528236  1.0000
  O   O6        1.0  0.8124184114073071  0.21590952721860648  0.9796175925476409  1.0000
  O   O7        1.0  0.34391747460163896  0.7548882995848415  0.8126576314199315  1.0000
  O   O8        1.0  0.6560886675177643  0.24511383007650517  0.18733710305335893  1.0000
  O   O9        1.0  0.6270150885781334  0.4949222900073522  0.8241407958423538  1.0000
  O   O10       1.0  0.37297747602484316  0.5050798696263783  0.17586292316460117  1.0000
