data_image0
_chemical_formula_structural       Mn2H34C44N8O8
_chemical_formula_sum              "Mn2 H34 C44 N8 O8"
_cell_length_a       8.387162297606835
_cell_length_b       10.288242814704844
_cell_length_c       12.029885129161134
_cell_angle_alpha    67.66528066631336
_cell_angle_beta     86.35472378907392
_cell_angle_gamma    88.4996736804918

_space_group_name_H-M_alt    "P 1"
_space_group_IT_number       1

loop_
  _space_group_symop_operation_xyz
  'x, y, z'

loop_
  _atom_site_type_symbol
  _atom_site_label
  _atom_site_symmetry_multiplicity
  _atom_site_fract_x
  _atom_site_fract_y
  _atom_site_fract_z
  _atom_site_occupancy
  Mn  Mn1       1.0  0.0007198427342629997  0.36796175676699516  0.3778274795168243  1.0000
  Mn  Mn2       1.0  0.9992809185604798  0.6320414464461308  0.6221738855053613  1.0000
  H   H1        1.0  0.9346627641542682  0.8974455290440276  0.41275592646090303  1.0000
  H   H2        1.0  0.0653367546734529  0.10255771925035621  0.5872429967462407  1.0000
  H   H3        1.0  0.9616999258606711  0.7577489918586766  0.119298815254133  1.0000
  H   H4        1.0  0.0383007724887037  0.24225106911050182  0.8807027200891822  1.0000
  H   H5        1.0  0.007909751033686503  0.20036567812445583  0.05321463822192377  1.0000
  H   H6        1.0  0.9920897521409272  0.7996365195173142  0.9467846196261999  1.0000
  H   H7        1.0  0.3171042422119541  0.2792651049948276  0.22611387379829034  1.0000
  H   H8        1.0  0.6828987828756965  0.7207296611182771  0.7738900503709587  1.0000
  H   H9        1.0  0.5827073582598176  0.45342375419274833  0.13464601778102284  1.0000
  H   H10       1.0  0.41728972492376215  0.5465753136563833  0.865355195572668  1.0000
  H   H11       1.0  0.24223782084067838  0.6493097885221035  0.29473830587158983  1.0000
  H   H12       1.0  0.7577639298078509  0.35068504210005363  0.7052615092789836  1.0000
  H   H13       1.0  0.6633103991465958  0.6846214705885816  0.1753765763070446  1.0000
  H   H14       1.0  0.33668907272181064  0.3153786257479538  0.8246233508230529  1.0000
  H   H15       1.0  0.5003212306759223  0.7788053630230467  0.20874836832869184  1.0000
  H   H16       1.0  0.49967578922934996  0.221191622948652  0.7912518471033392  1.0000
  H   H17       1.0  0.7174808064646783  0.928991874337541  0.005744848743802273  1.0000
  H   H18       1.0  0.28252099047728757  0.07100822897549361  0.9942516259982239  1.0000
  H   H19       1.0  0.7057175192047681  0.0520963387939588  0.7859010095278192  1.0000
  H   H20       1.0  0.2942842460980444  0.9479027235803557  0.214094966253377  1.0000
  H   H21       1.0  0.2965050996902861  0.8017350549535609  0.7952426135828998  1.0000
  H   H22       1.0  0.7034943245529135  0.1982640101581623  0.2047559809845438  1.0000
  H   H23       1.0  0.31069661972644275  0.67917912290158  0.012326599967963037  1.0000
  H   H24       1.0  0.6893063720573451  0.3208199041053846  0.9876709840264578  1.0000
  H   H25       1.0  0.5432279406397666  0.9191795042939649  0.6045463336624122  1.0000
  H   H26       1.0  0.4567714672844403  0.08082063089816671  0.3954502590604178  1.0000
  H   H27       1.0  0.366875328688451  0.0129871018345469  0.6147430784944772  1.0000
  H   H28       1.0  0.6331253053837856  0.987014058356749  0.3852539541987879  1.0000
  H   H29       1.0  0.3845938412980132  0.280145696276378  0.5548315149577403  1.0000
  H   H30       1.0  0.6154032089146495  0.7198565721000989  0.4451645264639268  1.0000
  H   H31       1.0  0.6328758884989156  0.46698180298492536  0.43792575794171257  1.0000
  H   H32       1.0  0.36712242016681534  0.533020410596393  0.56207355889682  1.0000
  H   H33       1.0  0.8123277158488094  0.05183371949883761  0.5500180178796086  1.0000
  H   H34       1.0  0.1876729818346803  0.9481684622033769  0.44998118097811346  1.0000
  C   C1        1.0  0.9927481899442013  0.1740613933411055  0.2831194683693282  1.0000
  C   C2        1.0  0.007246597474384903  0.825946131035849  0.71687751863368  1.0000
  C   C3        1.0  0.977285553495065  0.05951601459297254  0.23599211950040191  1.0000
  C   C4        1.0  0.0227127878086506  0.9404840588275152  0.7640112010273509  1.0000
  C   C5        1.0  0.9494696412860648  0.9213788402881918  0.3163572786325943  1.0000
  C   C6        1.0  0.050528667379666097  0.07862337329312649  0.6836420382059315  1.0000
  C   C7        1.0  0.9407400908770284  0.8142099844039947  0.27222684240221173  1.0000
  C   C8        1.0  0.0592618179672826  0.18579005091173434  0.7277754675525185  1.0000
  C   C9        1.0  0.9643127428635196  0.8456442733751292  0.1484919110639921  1.0000
  C   C10       1.0  0.035686682378503996  0.15435161063704333  0.8515101882318489  1.0000
  C   C11       1.0  0.9887676423000187  0.9840611258014891  0.06568193185969295  1.0000
  C   C12       1.0  0.011233087355570598  0.015941036472924004  0.9343189342016627  1.0000
  C   C13       1.0  0.9914601677274602  0.09054512226419581  0.11214580103155916  1.0000
  C   C14       1.0  0.008540530288975398  0.9094559990715042  0.8878545660689594  1.0000
  C   C15       1.0  0.9082312533539678  0.6654970099195482  0.35635466730379745  1.0000
  C   C16       1.0  0.0917717707348586  0.3345009372931004  0.6436457521370541  1.0000
  C   C17       1.0  0.3405103253334048  0.3818265806257558  0.22705869773702853  1.0000
  C   C18       1.0  0.6594926524619851  0.6181660938960148  0.7729450621123701  1.0000
  C   C19       1.0  0.47235581252083136  0.46619235105691814  0.1812596324500716  1.0000
  C   C20       1.0  0.5276436280413532  0.5338056439743825  0.8187409639619856  1.0000
  C   C21       1.0  0.29548235500111986  0.5706412936441724  0.26426252369848396  1.0000
  C   C22       1.0  0.7045183596672472  0.42935769724459777  0.7357410134894519  1.0000
  C   C23       1.0  0.5374334432056286  0.7130927913492047  0.15782450972852033  1.0000
  C   C24       1.0  0.46256599669067794  0.2869073244151323  0.8421737501979433  1.0000
  C   C25       1.0  0.5186881934580612  0.792745198644333  0.024532947940713253  1.0000
  C   C26       1.0  0.4813111675068242  0.20725178458995697  0.9754646487050703  1.0000
  C   C27       1.0  0.6255794137317705  0.90065496518546  0.9591579648588462  1.0000
  C   C28       1.0  0.37442001017848275  0.09934516029277772  0.04083946146579358  1.0000
  C   C29       1.0  0.6170879603464813  0.9718173957922295  0.8351736753520806  1.0000
  C   C30       1.0  0.382911447910665  0.0281816790333878  0.164824085613553  1.0000
  C   C31       1.0  0.49889456153489686  0.9372965982993763  0.7743917317071902  1.0000
  C   C32       1.0  0.5011083989426764  0.06270032740236081  0.22560652156919755  1.0000
  C   C33       1.0  0.3885140799072033  0.8325672263923143  0.8403552749472563  1.0000
  C   C34       1.0  0.611485328349943  0.16743184843330997  0.15964248601837028  1.0000
  C   C35       1.0  0.3977082998084073  0.7613792994208667  0.9639732735983911  1.0000
  C   C36       1.0  0.6022911241018462  0.238620826057371  0.03602415272625589  1.0000
  C   C37       1.0  0.49203032772075517  0.9971458193994921  0.6390162886213486  1.0000
  C   C38       1.0  0.5079703220045885  0.002856391444424804  0.36098040943092957  1.0000
  C   C39       1.0  0.5109042376398563  0.2628265492848456  0.5396742504248876  1.0000
  C   C40       1.0  0.4891011907868901  0.7371734770678274  0.46032454815137647  1.0000
  C   C41       1.0  0.6335769299929623  0.35341327583400783  0.4799408073719105  1.0000
  C   C42       1.0  0.3664225585273684  0.6465846900556046  0.5200622898455974  1.0000
  C   C43       1.0  0.7331576049446298  0.14210247622921912  0.5350145313747986  1.0000
  C   C44       1.0  0.2668430454465991  0.8578976138816619  0.46498450316308026  1.0000
  N   N1        1.0  0.23116238676826134  0.44795276461480427  0.2789354724647167  1.0000
  N   N2        1.0  0.7688393805321992  0.5520399355604156  0.7210675127732669  1.0000
  N   N3        1.0  0.4422916254779564  0.58543455715499  0.20603437709444705  1.0000
  N   N4        1.0  0.5577125764678144  0.414565504565033  0.7939628132685923  1.0000
  N   N5        1.0  0.5763887723835383  0.12909316992681147  0.574529024016911  1.0000
  N   N6        1.0  0.4236106671798225  0.8709080062040399  0.4254680676667491  1.0000
  N   N7        1.0  0.7713994412484765  0.277410310025502  0.47760119955236024  1.0000
  N   N8        1.0  0.22860006259202234  0.722589766883232  0.5224003947813639  1.0000
  O   O1        1.0  0.0620967078008121  0.14463995607032845  0.3818242930916042  1.0000
  O   O2        1.0  0.9379005016064496  0.8553643359001698  0.6181777478626171  1.0000
  O   O3        1.0  0.9364411529058786  0.2955319967951838  0.22552686288030083  1.0000
  O   O4        1.0  0.0635559452649304  0.7044702424395908  0.7744716793468169  1.0000
  O   O5        1.0  0.8830205813816648  0.6391675317666312  0.4683538163009968  1.0000
  O   O6        1.0  0.11698371648040509  0.36083247166999405  0.5316483756729367  1.0000
  O   O7        1.0  0.9040139212911383  0.5730894324967865  0.3094873031936911  1.0000
  O   O8        1.0  0.09598911845079532  0.42690956536848296  0.6905127816061735  1.0000
