data_image0
_chemical_formula_structural       Ag4H20C24S4N8O8
_chemical_formula_sum              "Ag4 H20 C24 S4 N8 O8"
_cell_length_a       5.024435671108761
_cell_length_b       7.308938282293662
_cell_length_c       19.899722958419765
_cell_angle_alpha    89.99927649350424
_cell_angle_beta     90.00000230900442
_cell_angle_gamma    90.00075161045673

_space_group_name_H-M_alt    "P 1"
_space_group_IT_number       1

loop_
  _space_group_symop_operation_xyz
  'x, y, z'

loop_
  _atom_site_type_symbol
  _atom_site_label
  _atom_site_symmetry_multiplicity
  _atom_site_fract_x
  _atom_site_fract_y
  _atom_site_fract_z
  _atom_site_occupancy
  Ag  Ag1       1.0  0.9240493007875015  0.13050628757850555  0.2951329686690586  1.0000
  Ag  Ag2       1.0  0.575973468183875  0.8695142882061048  0.795132734344648  1.0000
  Ag  Ag3       1.0  0.4240013952176155  0.3695109750875717  0.7048627532128507  1.0000
  Ag  Ag4       1.0  0.07601254700912109  0.6304904836267583  0.20487479964887  1.0000
  H   H1        1.0  0.9914125720141981  0.17966722335940233  0.9758247469885505  1.0000
  H   H2        1.0  0.5085504960760261  0.8203059156161602  0.4758309119202195  1.0000
  H   H3        1.0  0.49142938054006186  0.3202986578622459  0.024169971155330903  1.0000
  H   H4        1.0  0.008564651077463698  0.6796914053067197  0.5241731032670954  1.0000
  H   H5        1.0  0.3440774277717153  0.9373859118189928  0.9717295103279683  1.0000
  H   H6        1.0  0.155880798003885  0.0625869535656278  0.4717290407450321  1.0000
  H   H7        1.0  0.8440882053561223  0.5625857124813367  0.028268983103359308  1.0000
  H   H8        1.0  0.6559007171966087  0.4374032561079915  0.5282676815209228  1.0000
  H   H9        1.0  0.37034294295609266  0.7174301766966167  0.0724164809687835  1.0000
  H   H10       1.0  0.1296351685719657  0.2825622847664633  0.5724078361293294  1.0000
  H   H11       1.0  0.8703559532765868  0.7825635761408876  0.9275865355507164  1.0000
  H   H12       1.0  0.6296588600821735  0.2174345284758559  0.4275868755819303  1.0000
  H   H13       1.0  0.3702322937299698  0.17431214606025244  0.1200912322744259  1.0000
  H   H14       1.0  0.1297517907686085  0.8256909428465349  0.6200876786303269  1.0000
  H   H15       1.0  0.8702142778058359  0.3256772660492473  0.8799100164390694  1.0000
  H   H16       1.0  0.629796552946935  0.6743197882961453  0.3799173436978833  1.0000
  H   H17       1.0  0.3079925875124019  0.1866677868276767  0.2077225746301181  1.0000
  H   H18       1.0  0.19199946181706198  0.8133322027005433  0.7077205853047062  1.0000
  H   H19       1.0  0.8079703523232596  0.3133306396431054  0.7922731452532119  1.0000
  H   H20       1.0  0.6920663482961159  0.6866749870738573  0.2922849406460557  1.0000
  C   C1        1.0  0.8679017532605826  0.9733470429587358  0.1178155359470736  1.0000
  C   C2        1.0  0.6320772217973313  0.026644231214533007  0.6178140742130225  1.0000
  C   C3        1.0  0.367903060968132  0.5266425832235059  0.8821849679408872  1.0000
  C   C4        1.0  0.13211685979779017  0.47336902231117517  0.382188175297685  1.0000
  C   C5        1.0  0.0111622177944142  0.0804259412157649  0.016466882371872802  1.0000
  C   C6        1.0  0.4888099204104748  0.9195561852107659  0.5164679373580014  1.0000
  C   C7        1.0  0.5111658948985536  0.4195506455613511  0.9835288323401699  1.0000
  C   C8        1.0  0.9888270278143805  0.5804427439803774  0.4835295535183448  1.0000
  C   C9        1.0  0.2092125980379436  0.9466375006184011  0.014304601525033399  1.0000
  C   C10       1.0  0.29076153032189467  0.05334196597363669  0.5143025197709363  1.0000
  C   C11       1.0  0.7092132895055129  0.5533424809387173  0.9856938895153534  1.0000
  C   C12       1.0  0.7907776430134632  0.44664946384752824  0.48569370234498177  1.0000
  C   C13       1.0  0.6220574137003324  0.3649392087469323  0.1733900396102044  1.0000
  C   C14       1.0  0.8779295249512558  0.6350637817319581  0.6733898616441182  1.0000
  C   C15       1.0  0.12203490771040039  0.13505479932558023  0.8266066820519243  1.0000
  C   C16       1.0  0.3780188454606801  0.8649724538924417  0.3266136574333558  1.0000
  C   C17       1.0  0.2224348299653229  0.8262730203954264  0.0684186914268423  1.0000
  C   C18       1.0  0.27754527165250653  0.1737182142492203  0.5684120470531013  1.0000
  C   C19       1.0  0.7224318380675355  0.6737207625535294  0.9315843224910126  1.0000
  C   C20       1.0  0.777573024147415  0.32628267340896855  0.43158266725049543  1.0000
  C   C21       1.0  0.4662770148890445  0.18514502169715294  0.1692637525820118  1.0000
  C   C22       1.0  0.0337130425267347  0.8148563280609978  0.6692612510904469  1.0000
  C   C23       1.0  0.9662488394490795  0.3148479956156791  0.8307354877342945  1.0000
  C   C24       1.0  0.5337799018217879  0.6851672163018777  0.3307422619612765  1.0000
  S   S1        1.0  0.6524129409857763  0.9799901383572378  0.1866873321741807  1.0000
  S   S2        1.0  0.8475759885061862  0.0200123818833546  0.6866838940517681  1.0000
  S   S3        1.0  0.1523962069765616  0.5200071156620253  0.8133156805041823  1.0000
  S   S4        1.0  0.3476157498368693  0.4800151347565134  0.3133193642561665  1.0000
  N   N1        1.0  0.8405470443105756  0.09511080536091043  0.0679389299533355  1.0000
  N   N2        1.0  0.6594259577221064  0.9048740236637159  0.567940547810359  1.0000
  N   N3        1.0  0.34055355885574556  0.40487012928354454  0.9320572930617814  1.0000
  N   N4        1.0  0.1594504417992297  0.5951342395118645  0.4320609574082325  1.0000
  N   N5        1.0  0.0515461020956494  0.8382908602087938  0.120263605731445  1.0000
  N   N6        1.0  0.4484379823191277  0.1617026453406396  0.6202570184948399  1.0000
  N   N7        1.0  0.5515408890441053  0.6616986404548726  0.8797399077099683  1.0000
  N   N8        1.0  0.9484699417924105  0.33830799730120026  0.3797427239881018  1.0000
  O   O1        1.0  0.840241117423119  0.3645250439034201  0.2067990502858166  1.0000
  O   O2        1.0  0.6597398518466804  0.6354781331194702  0.7067983640965565  1.0000
  O   O3        1.0  0.3402146373736699  0.135473674283169  0.793196167644453  1.0000
  O   O4        1.0  0.15985105607686734  0.8645616017222295  0.2931966083031696  1.0000
  O   O5        1.0  0.5197825540994074  0.5020042933055038  0.1453461234979017  1.0000
  O   O6        1.0  0.9802004028095084  0.49799968899719  0.6453475698026382  1.0000
  O   O7        1.0  0.019768943585859195  0.9979917610001438  0.8546528666939892  1.0000
  O   O8        1.0  0.4802848107164621  0.0020276592950097  0.3546617210733984  1.0000
