data_image0
_chemical_formula_structural       Cd4H36C44I4N24O4
_chemical_formula_sum              "Cd4 H36 C44 I4 N24 O4"
_cell_length_a       9.689378499
_cell_length_b       12.201787867203027
_cell_length_c       13.073
_cell_angle_alpha    94.62891933364524
_cell_angle_beta     90.0
_cell_angle_gamma    90.0

_space_group_name_H-M_alt    "P 1"
_space_group_IT_number       1

loop_
  _space_group_symop_operation_xyz
  'x, y, z'

loop_
  _atom_site_type_symbol
  _atom_site_label
  _atom_site_symmetry_multiplicity
  _atom_site_fract_x
  _atom_site_fract_y
  _atom_site_fract_z
  _atom_site_occupancy
  Cd  Cd1       1.0  0.8015261247975332  0.268010439086936  0.34035969490268764  1.0000
  Cd  Cd2       1.0  0.3015239832257066  0.7319855356668513  0.1596445150188117  1.0000
  Cd  Cd3       1.0  0.1984688698246728  0.7319847134329224  0.6596444530849722  1.0000
  Cd  Cd4       1.0  0.6984813319758842  0.2680161947244599  0.8403532440213368  1.0000
  H   H1        1.0  0.5537186931601141  0.0641794695660423  0.3817546164841232  1.0000
  H   H2        1.0  0.0537227439359214  0.935814038485944  0.11824634789439871  1.0000
  H   H3        1.0  0.44626391676682425  0.9358132162520151  0.618262349603178  1.0000
  H   H4        1.0  0.9462660583386509  0.0641959142446851  0.8817428512598439  1.0000
  H   H5        1.0  0.3267350945498464  0.0558609288755108  0.47684898335592857  1.0000
  H   H6        1.0  0.8267403322954863  0.9441350458782766  0.023150636953395996  1.0000
  H   H7        1.0  0.6732681565358689  0.9441301124746815  0.5231885121184732  1.0000
  H   H8        1.0  0.17325672644259527  0.0558724401505586  0.9768307270456802  1.0000
  H   H9        1.0  0.4123236593980053  0.35633316359972167  0.6354321481829075  1.0000
  H   H10       1.0  0.9123237368539492  0.6436595222183357  0.8645710490678551  1.0000
  H   H11       1.0  0.5876713352242007  0.6436751446630495  0.3645714608755455  1.0000
  H   H12       1.0  0.0876722898261946  0.3563339858336506  0.1354329750521117  1.0000
  H   H13       1.0  0.1039746770243255  0.5569820878035827  0.2469582555418768  1.0000
  H   H14       1.0  0.6039788827120347  0.44301306471626845  0.2530443625750535  1.0000
  H   H15       1.0  0.8960306381772581  0.4430122424823395  0.7530335915461279  1.0000
  H   H16       1.0  0.396022304257805  0.5569878434411066  0.746958689078795  1.0000
  H   H17       1.0  0.17701857762879308  0.8828662844316854  0.3478196570088272  1.0000
  H   H18       1.0  0.6770217512585575  0.117128045854237  0.1521874887864385  1.0000
  H   H19       1.0  0.8229733208195924  0.117131334789967  0.65215790404266  1.0000
  H   H20       1.0  0.322990788348605  0.8828753290049322  0.8478195733457595  1.0000
  H   H21       1.0  0.9986037805209733  0.8767488639772409  0.48694350930147573  1.0000
  H   H22       1.0  0.4986037030650223  0.12324382184081631  0.0130642775614689  1.0000
  H   H23       1.0  0.0013767652900967  0.123261088753388  0.5130288612747832  1.0000
  H   H24       1.0  0.5013881953833632  0.8767463972754471  0.9869532676596576  1.0000
  H   H25       1.0  0.8721900997955814  0.6997186094714749  0.5050661066483642  1.0000
  H   H26       1.0  0.37219311851345077  0.3002724318787244  0.9949384966054352  1.0000
  H   H27       1.0  0.1278028307107419  0.30028887655736014  0.49491602228607684  1.0000
  H   H28       1.0  0.6277936196452457  0.6997079204303561  0.005076010603460201  1.0000
  H   H29       1.0  0.7000304509417248  0.5430361780821045  0.6032014542861645  1.0000
  H   H30       1.0  0.20003140554371154  0.4569573299698817  0.8968010399630799  1.0000
  H   H31       1.0  0.2999758963178039  0.4569614411395406  0.3967982898908531  1.0000
  H   H32       1.0  0.7999656531943699  0.5430444004214294  0.1032043684307027  1.0000
  H   H33       1.0  0.5968597470515604  0.4615577288196918  0.6761301957919628  1.0000
  H   H34       1.0  0.0968607016535543  0.5384374237001595  0.8238708924542448  1.0000
  H   H35       1.0  0.4031466002079611  0.5384407126358894  0.323874964866441  1.0000
  H   H36       1.0  0.9031435814900988  0.4615651289250806  0.1761253986490203  1.0000
  C   C1        1.0  0.5215752486623941  0.1301818317594439  0.4382277381909319  1.0000
  C   C2        1.0  0.0215782673802636  0.8698141429943433  0.061772647053757596  1.0000
  C   C3        1.0  0.47842077801774957  0.8698108540586134  0.5617884629610046  1.0000
  C   C4        1.0  0.9784218875316312  0.1301999209059446  0.9382138020282582  1.0000
  C   C5        1.0  0.3970739712972389  0.125255828272536  0.49202559025491144  1.0000
  C   C6        1.0  0.897078176984941  0.8747401464812441  0.007973265119055408  1.0000
  C   C7        1.0  0.6029272156725938  0.8747385020133792  0.5079983841183449  1.0000
  C   C8        1.0  0.1029209458690161  0.125267339547591  0.9920080988800279  1.0000
  C   C9        1.0  0.4442947502199742  0.2910379225878827  0.5785005478247953  1.0000
  C   C10       1.0  0.944295859733863  0.7089564076980395  0.9215020083582887  1.0000
  C   C11       1.0  0.5557023085181072  0.7089646300373574  0.42150951211500143  1.0000
  C   C12       1.0  0.055703263120094  0.2910486116290016  0.078495233481874  1.0000
  C   C13       1.0  0.5667948672421871  0.2996006667562412  0.5221501929901962  1.0000
  C   C14       1.0  0.0667937577282984  0.7003920190618231  0.9778530042605666  1.0000
  C   C15       1.0  0.4332083838435281  0.700395307997546  0.4778586065434851  1.0000
  C   C16       1.0  0.933218781878864  0.2996187559027419  0.022138551633617  1.0000
  C   C17       1.0  0.6532359119476254  0.39958266842547374  0.5295290025122483  1.0000
  C   C18       1.0  0.1532348024337438  0.6004157730301145  0.9704723334693455  1.0000
  C   C19       1.0  0.3467673391380828  0.6004149507961785  0.4704753312769512  1.0000
  C   C20       1.0  0.8467746409996053  0.3995966464023155  0.029520876163253704  1.0000
  C   C21       1.0  0.9033314160349235  0.5084365742215056  0.3806205209642073  1.0000
  C   C22       1.0  0.403334434752793  0.4915602227662106  0.11938298595578088  1.0000
  C   C23       1.0  0.09666873887697139  0.4915585782983456  0.6193805672820004  1.0000
  C   C24       1.0  0.5966636560432264  0.5084415076251005  0.8806163029550973  1.0000
  C   C25       1.0  0.9771576165568447  0.6145951971882866  0.3766685092961096  1.0000
  C   C26       1.0  0.4771616673326519  0.3854048887351595  0.12333448042389249  1.0000
  C   C27       1.0  0.0228425383550501  0.3854024220333656  0.6233212907211864  1.0000
  C   C28       1.0  0.5228364234633672  0.6145935527204216  0.8766706802345112  1.0000
  C   C29       1.0  0.0777346039354043  0.6259798482114292  0.301690353427098  1.0000
  C   C30       1.0  0.5777408737389891  0.374013659840557  0.1983121408221464  1.0000
  C   C31       1.0  0.9222614227447394  0.3740128376066281  0.6982990749871334  1.0000
  C   C32       1.0  0.4222603132308507  0.6259856038489531  0.8016892570932866  1.0000
  C   C33       1.0  0.11848437958311557  0.8081465980907083  0.3586896067053686  1.0000
  C   C34       1.0  0.6184906493866933  0.19184773219521395  0.1413152442838097  1.0000
  C   C35       1.0  0.8815095829811526  0.1918510211309439  0.641294838764388  1.0000
  C   C36       1.0  0.38151569787283524  0.8081515314942962  0.8586899783084404  1.0000
  C   C37       1.0  0.0195255041403897  0.804107785016484  0.4354335020940709  1.0000
  C   C38       1.0  0.5195317739439673  0.1958873675033672  0.06457217576431158  1.0000
  C   C39       1.0  0.980466394308003  0.1958947676087561  0.5645482552373053  1.0000
  C   C40       1.0  0.4804735412576235  0.80410860725042  0.9354358588340048  1.0000
  C   C41       1.0  0.9492167119851089  0.7062816807170834  0.44538299759329897  1.0000
  C   C42       1.0  0.44921869864504055  0.2937126495688389  0.0546233832666019  1.0000
  C   C43       1.0  0.05077621852121439  0.2937216941420928  0.5546026463487337  1.0000
  C   C44       1.0  0.5507742318612898  0.7062792140152894  0.9453881663393062  1.0000
  I   I1        1.0  0.9309761199782827  0.0735118246947977  0.2915495873467009  1.0000
  I   I2        1.0  0.4309275357992206  0.9265022392054973  0.20846133966693256  1.0000
  I   I3        1.0  0.06904570815032679  0.9264956613340376  0.7084271870402006  1.0000
  I   I4        1.0  0.5690695229388608  0.0734994911858138  0.7915761960120945  1.0000
  N   N1        1.0  0.6048292984534385  0.2169628676496345  0.45305785117726316  1.0000
  N   N2        1.0  0.1048312851133701  0.7830306404023517  0.046944643071974185  1.0000
  N   N3        1.0  0.3951667282267053  0.7830289959344867  0.5469544633640098  1.0000
  N   N4        1.0  0.8951750621461585  0.2169842457318722  0.9530426328792458  1.0000
  N   N5        1.0  0.3592996186865136  0.20490974043973864  0.5628101021646685  1.0000
  N   N6        1.0  0.8593017602583402  0.7950862343140488  0.937190283080021  1.0000
  N   N7        1.0  0.640701568283319  0.7950903454837075  0.4372074213272299  1.0000
  N   N8        1.0  0.1406994267114996  0.20491714054512764  0.0627999504741865  1.0000
  N   N9        1.0  0.6306142339914373  0.4804584202156903  0.6047618550074317  1.0000
  N   N10       1.0  0.1306151885934312  0.5195367323041609  0.8952399981741409  1.0000
  N   N11       1.0  0.3693921132680913  0.5195391990059548  0.3952432437171254  1.0000
  N   N12       1.0  0.8693880624922841  0.4804715759586031  0.1047582563367726  1.0000
  N   N13       1.0  0.7430435296487872  0.40872262081412464  0.4550640895906993  1.0000
  N   N14       1.0  0.2430413880769606  0.5912708872378687  0.04493916959390281  1.0000
  N   N15       1.0  0.25696178555280363  0.5912733539396626  0.5449416502015295  1.0000
  N   N16       1.0  0.7569680553563884  0.4087365987909664  0.9550551983063471  1.0000
  N   N17       1.0  0.8139686153052991  0.505259462308068  0.45784774266579126  1.0000
  N   N18       1.0  0.3139685378493553  0.4947324012760532  0.04215768745721251  1.0000
  N   N19       1.0  0.1860387640121672  0.4947365124457122  0.5421549373849857  1.0000
  N   N20       1.0  0.6860336811784221  0.5052676846473929  0.95783994771525  1.0000
  N   N21       1.0  0.1471745582182749  0.7201766119347681  0.2934494294623775  1.0000
  N   N22       1.0  0.6471808280218596  0.2798177183511541  0.20655389165607116  1.0000
  N   N23       1.0  0.8528225005198066  0.2798168961172181  0.7065362362088834  1.0000
  N   N24       1.0  0.3528255192376689  0.7201815453383631  0.7934513309361719  1.0000
  O   O1        1.0  0.9290719730815622  0.4299691456182515  0.3103667472969179  1.0000
  O   O2        1.0  0.42907705591530737  0.5700292958373296  0.18963305881394626  1.0000
  O   O3        1.0  0.0709292138882702  0.5700251846676636  0.689632749144721  1.0000
  O   O4        1.0  0.5709220669386497  0.4299699678521876  0.8103668092307643  1.0000
