data_image0
_chemical_formula_structural       Cd2H16C16S4N4Cl4
_chemical_formula_sum              "Cd2 H16 C16 S4 N4 Cl4"
_cell_length_a       6.989680263056441
_cell_length_b       9.300151178327383
_cell_length_c       10.303450859011587
_cell_angle_alpha    111.68688738815818
_cell_angle_beta     106.21688301027987
_cell_angle_gamma    94.18076264244182

_space_group_name_H-M_alt    "P 1"
_space_group_IT_number       1

loop_
  _space_group_symop_operation_xyz
  'x, y, z'

loop_
  _atom_site_type_symbol
  _atom_site_label
  _atom_site_symmetry_multiplicity
  _atom_site_fract_x
  _atom_site_fract_y
  _atom_site_fract_z
  _atom_site_occupancy
  Cd  Cd1       1.0  0.750950346719641  0.9165133061469959  0.5232734272733595  1.0000
  Cd  Cd2       1.0  0.2490496678113417  0.08348708896562579  0.47672702149987617  1.0000
  H   H1        1.0  0.9088548192381297  0.6736435347209877  0.211548791162592  1.0000
  H   H2        1.0  0.0911410219129678  0.32635207953164513  0.7884464173414258  1.0000
  H   H3        1.0  0.6411292417044407  0.6432809077693592  0.14675371073887794  1.0000
  H   H4        1.0  0.35886649141761506  0.3567135685696599  0.8532469255556167  1.0000
  H   H5        1.0  0.7646944496221196  0.48263678191888454  0.07960416042232767  1.0000
  H   H6        1.0  0.23529840257301526  0.5173587934009518  0.9203905029776963  1.0000
  H   H7        1.0  0.7419044001315385  0.3248058279744015  0.5122720948398154  1.0000
  H   H8        1.0  0.2580953949173974  0.6751934010360542  0.4877298696754266  1.0000
  H   H9        1.0  0.7681205993411027  0.49068198633079174  0.7757183254851228  1.0000
  H   H10       1.0  0.23188350498001137  0.5093231685004013  0.22428442952097782  1.0000
  H   H11       1.0  0.5471669487707658  0.061677921387897114  0.8648640656341727  1.0000
  H   H12       1.0  0.4528353580005771  0.9383260267333213  0.13513699852559574  1.0000
  H   H13       1.0  0.810393999349053  0.1342685224235822  0.9181284257087441  1.0000
  H   H14       1.0  0.1896083352855413  0.8657354327447706  0.08187361646314871  1.0000
  H   H15       1.0  0.7141563515133316  0.07514714138670799  0.038171979523546895  1.0000
  H   H16       1.0  0.285845652186218  0.9248556194909199  0.9618276663418897  1.0000
  C   C1        1.0  0.7691815245259551  0.5867639036293113  0.17691213772631195  1.0000
  C   C2        1.0  0.2308138219345537  0.4132293643247138  0.823084146237491  1.0000
  C   C3        1.0  0.7604402141042853  0.5431618502910069  0.3004130018435305  1.0000
  C   C4        1.0  0.23955628891690142  0.456836152543076  0.699586999273393  1.0000
  C   C5        1.0  0.7492455712642823  0.40983189841176687  0.46337564381073554  1.0000
  C   C6        1.0  0.2507574879491585  0.5901685497279274  0.536627306090722  1.0000
  C   C7        1.0  0.748409133349128  0.5689655033307092  0.5229232738327313  1.0000
  C   C8        1.0  0.251592403523091  0.43103491829545243  0.4770784255046081  1.0000
  C   C9        1.0  0.7437828606977704  0.6611274150575356  0.6706334430748839  1.0000
  C   C10       1.0  0.2562161819090676  0.3388753139344374  0.3293666356986833  1.0000
  C   C11       1.0  0.7583127342015673  0.6088400531065473  0.7813443235784164  1.0000
  C   C12       1.0  0.24169054449391333  0.39116156113531286  0.2186571105810273  1.0000
  C   C13       1.0  0.7266793893656144  0.8851317139673683  0.8476522520238066  1.0000
  C   C14       1.0  0.2733229452689799  0.11487224120098458  0.1523497901480795  1.0000
  C   C15       1.0  0.6987130730374886  0.0485218437769106  0.9225149590317302  1.0000
  C   C16       1.0  0.3012886554535116  0.9514797369042753  0.07748424655148502  1.0000
  S   S1        1.0  0.7593382001616221  0.3538612939483626  0.28906446226414323  1.0000
  S   S2        1.0  0.240661870095856  0.646139115258535  0.7109379425333201  1.0000
  S   S3        1.0  0.7515405702780599  0.7586494859763634  0.9365535942061102  1.0000
  S   S4        1.0  0.24846447810394787  0.2413533279283372  0.06344855278754845  1.0000
  N   N1        1.0  0.7550946900755309  0.6425340127707956  0.4293579600984999  1.0000
  N   N2        1.0  0.2449035269056736  0.35746517563184455  0.5706407978284035  1.0000
  N   N3        1.0  0.726922730036371  0.8176398053953023  0.7103324731444616  1.0000
  N   N4        1.0  0.2730772566313604  0.182360582670178  0.2896669976166564  1.0000
  Cl  Cl1       1.0  0.8486152685663984  0.005514306826725605  0.3304821194293198  1.0000
  Cl  Cl2       1.0  0.15138294841481334  0.9944848815759142  0.6695166384975835  1.0000
  Cl  Cl3       1.0  0.6491369418827732  0.18262936919700928  0.6528927607698308  1.0000
  Cl  Cl4       1.0  0.35086611733067496  0.8173710789426777  0.3471101891316266  1.0000
