data_image0
_chemical_formula_structural       Ag4H24C40N8
_chemical_formula_sum              "Ag4 H24 C40 N8"
_cell_length_a       5.427120307331826
_cell_length_b       7.624710360028517
_cell_length_c       19.257751572808836
_cell_angle_alpha    98.07511385772133
_cell_angle_beta     89.99953892754581
_cell_angle_gamma    90.00126075664059

_space_group_name_H-M_alt    "P 1"
_space_group_IT_number       1

loop_
  _space_group_symop_operation_xyz
  'x, y, z'

loop_
  _atom_site_type_symbol
  _atom_site_label
  _atom_site_symmetry_multiplicity
  _atom_site_fract_x
  _atom_site_fract_y
  _atom_site_fract_z
  _atom_site_occupancy
  Ag  Ag1       1.0  0.818151650038004  0.8079731961546699  0.7218873823478517  1.0000
  Ag  Ag2       1.0  0.31813608347362526  0.6920236355174509  0.778119621505752  1.0000
  Ag  Ag3       1.0  0.18185200711224067  0.1920222864998493  0.2781222937308314  1.0000
  Ag  Ag4       1.0  0.6818583604863803  0.3079572405006346  0.221888282916936  1.0000
  H   H1        1.0  0.8438234909068071  0.24343988902921856  0.8139810721209101  1.0000
  H   H2        1.0  0.34381835616714074  0.2565630041422153  0.68601360427661  1.0000
  H   H3        1.0  0.15614699970701906  0.7565619223475438  0.18602061245187676  1.0000
  H   H4        1.0  0.6561889865321716  0.7434343933782872  0.3139753950432648  1.0000
  H   H5        1.0  0.24624900888719736  0.012677839865155199  0.9197640235745723  1.0000
  H   H6        1.0  0.7462691006431186  0.487346142257948  0.58023294194345  1.0000
  H   H7        1.0  0.7537399075986712  0.9873228490298371  0.08024331718328878  1.0000
  H   H8        1.0  0.2537253440537127  0.5126755005727048  0.41976869918902787  1.0000
  H   H9        1.0  0.19797225470144034  0.1697634880560059  0.06118881584343679  1.0000
  H   H10       1.0  0.6980130566546946  0.33024255161435434  0.43881682768402896  1.0000
  H   H11       1.0  0.8020203471177109  0.8302409909071288  0.9388135218995686  1.0000
  H   H12       1.0  0.30202560989669536  0.6697459782393055  0.5611831516563157  1.0000
  H   H13       1.0  0.8973616992467441  0.13671697616023687  0.962705241631248  1.0000
  H   H14       1.0  0.3973793029298349  0.36328695963683094  0.5372961328017638  1.0000
  H   H15       1.0  0.1026309026551075  0.8632914213329883  0.037295734796252596  1.0000
  H   H16       1.0  0.602653835835781  0.6366988109766537  0.46270059214605647  1.0000
  H   H17       1.0  0.18344703755710157  0.36150262211263134  0.8434458830845769  1.0000
  H   H18       1.0  0.6834519658482845  0.1385019653029147  0.6565528294335579  1.0000
  H   H19       1.0  0.8165345086868567  0.6385004588125086  0.1565543072247593  1.0000
  H   H20       1.0  0.31657564554982537  0.8615129633366293  0.343445878113485  1.0000
  H   H21       1.0  0.8442466146380737  0.5806728370887556  0.8415208063968861  1.0000
  H   H22       1.0  0.3442658686878345  0.9193133314884391  0.658472627878062  1.0000
  H   H23       1.0  0.1557275611554871  0.4193262701839799  0.1584791845051043  1.0000
  H   H24       1.0  0.6557764832245779  0.0806830354530774  0.3415246288290277  1.0000
  C   C1        1.0  0.6999905919904917  0.16206421789374298  0.8319519761286855  1.0000
  C   C2        1.0  0.19999041259620037  0.3379431935131478  0.6680447682470287  1.0000
  C   C3        1.0  0.29997621336855923  0.8379336198582765  0.1680495090345104  1.0000
  C   C4        1.0  0.8000095597082151  0.6620583243943798  0.3319485924287093  1.0000
  C   C5        1.0  0.5375505302382209  0.1985171357906168  0.8891780172815443  1.0000
  C   C6        1.0  0.03756389682435209  0.3014890879261998  0.610816910113904  1.0000
  C   C7        1.0  0.46242364553581433  0.8014833877927714  0.1108246413032816  1.0000
  C   C8        1.0  0.9624471310669305  0.6985124300643265  0.38917645055511224  1.0000
  C   C9        1.0  0.3934570231874729  0.044529161333308295  0.8856641672005735  1.0000
  C   C10       1.0  0.8934805773744969  0.4554744405480946  0.6143294083402324  1.0000
  C   C11       1.0  0.6065189950580389  0.955460692582406  0.1143358786484683  1.0000
  C   C12       1.0  0.10652860788775337  0.5445298916942533  0.3856687674531328  1.0000
  C   C13       1.0  0.04554850674958289  0.26273646873470113  0.060305793644147294  1.0000
  C   C14       1.0  0.5456140060619176  0.23726857042718313  0.4396990612013241  1.0000
  C   C15       1.0  0.9544182986213341  0.7372627119053449  0.9396962782321052  1.0000
  C   C16       1.0  0.4544301883774721  0.7627252208860895  0.5603001435332116  1.0000
  C   C17       1.0  0.8803380244393254  0.2452027703258679  0.0057106181147049  1.0000
  C   C18       1.0  0.38038399591254546  0.2547964787468544  0.49428705496431746  1.0000
  C   C19       1.0  0.11961404017667118  0.7547977163802174  0.9942909999986753  1.0000
  C   C20       1.0  0.619645457747822  0.7451904511703873  0.505705054274344  1.0000
  C   C21       1.0  0.6857801306531995  0.3696420004825001  0.0019374673380952  1.0000
  C   C22       1.0  0.18581287091512882  0.1303596438521524  0.4980612284562865  1.0000
  C   C23       1.0  0.31418851733506864  0.6303557638607131  0.9980619368541994  1.0000
  C   C24       1.0  0.8142276383090985  0.8696355637441188  0.5019406439633228  1.0000
  C   C25       1.0  0.5221092965509441  0.35428433930827913  0.9443151222890905  1.0000
  C   C26       1.0  0.022137931754429  0.1457153053590758  0.5556872951572414  1.0000
  C   C27       1.0  0.4778611940864366  0.6457174170015064  0.05568500155636259  1.0000
  C   C28       1.0  0.97788599423518  0.8542864146405337  0.44431178817082884  1.0000
  C   C29       1.0  0.3370150431102985  0.48380195667179754  0.9419227055792376  1.0000
  C   C30       1.0  0.8370560709115652  0.016194377162186396  0.5580763288982453  1.0000
  C   C31       1.0  0.6629720311478237  0.5162143145514477  0.05807658870550369  1.0000
  C   C32       1.0  0.16298259567542317  0.9837981813555318  0.44192541058126267  1.0000
  C   C33       1.0  0.1657462919162995  0.472885689790516  0.8852530378697949  1.0000
  C   C34       1.0  0.6657637777762062  0.027105258144217693  0.6147413897616048  1.0000
  C   C35       1.0  0.8342389398341937  0.5271289999072977  0.11473890655123138  1.0000
  C   C36       1.0  0.3342822591978275  0.9728831983421315  0.3852565086044777  1.0000
  C   C37       1.0  0.9783117397279426  0.5946312034101666  0.8842134827009503  1.0000
  C   C38       1.0  0.47832267905216946  0.905362257753957  0.6157795341958376  1.0000
  C   C39       1.0  0.0216624361797244  0.4053717489700262  0.11578306591574969  1.0000
  C   C40       1.0  0.521714144972428  0.09463158857096943  0.3842212312705087  1.0000
  N   N1        1.0  0.6549914184433804  0.9986101316785395  0.7975080193221017  1.0000
  N   N2        1.0  0.1549906689407621  0.5013999061553064  0.702493217420894  1.0000
  N   N3        1.0  0.34498828508866797  0.0013891041253088982  0.20249561327364057  1.0000
  N   N4        1.0  0.8450093032143184  0.498599219666744  0.29750729370785217  1.0000
  N   N5        1.0  0.46616217474971217  0.9258707760698144  0.8309217979586165  1.0000
  N   N6        1.0  0.9661720642405384  0.5741385989714443  0.6690777540269011  1.0000
  N   N7        1.0  0.5338175287350565  0.07412582902497888  0.16908222193835334  1.0000
  N   N8        1.0  0.0338223801963267  0.42586994538089573  0.33092738433903424  1.0000
