data_image0
_chemical_formula_structural       Zn16H24C96S24O76F8
_chemical_formula_sum              "Zn16 H24 C96 S24 O76 F8"
_cell_length_a       19.609977724352785
_cell_length_b       19.647781037486656
_cell_length_c       33.257698955655954
_cell_angle_alpha    79.31360898854209
_cell_angle_beta     79.44204370469681
_cell_angle_gamma    64.07312165987389

_space_group_name_H-M_alt    "P 1"
_space_group_IT_number       1

loop_
  _space_group_symop_operation_xyz
  'x, y, z'

loop_
  _atom_site_type_symbol
  _atom_site_label
  _atom_site_symmetry_multiplicity
  _atom_site_fract_x
  _atom_site_fract_y
  _atom_site_fract_z
  _atom_site_occupancy
  Zn  Zn1       1.0  0.055963426979808197  0.39792589471377243  0.479893399164716  1.0000
  Zn  Zn2       1.0  0.9860851736553897  0.4801235880062579  0.5611735831924917  1.0000
  Zn  Zn3       1.0  0.0566708492040391  0.5621458601403687  0.48181498444649407  1.0000
  Zn  Zn4       1.0  0.9027066189590299  0.5569039038051501  0.4787088970287456  1.0000
  Zn  Zn5       1.0  0.692401941748244  0.3492420591478124  0.27284756365532553  1.0000
  Zn  Zn6       1.0  0.6855062912898546  0.19244238872170888  0.26719530888018983  1.0000
  Zn  Zn7       1.0  0.771307649529227  0.2652508004008993  0.1906961053710532  1.0000
  Zn  Zn8       1.0  0.8486039169615935  0.19375359786528185  0.2704649499288152  1.0000
  Zn  Zn9       1.0  0.2701263686607335  0.764608841348803  0.6890604364159003  1.0000
  Zn  Zn10      1.0  0.3521949208491648  0.6956245106156803  0.7703536928131527  1.0000
  Zn  Zn11      1.0  0.1914314514445294  0.8464058241502033  0.7718339260306522  1.0000
  Zn  Zn12      1.0  0.189680143482164  0.6913836868398207  0.768210988256868  1.0000
  Zn  Zn13      1.0  0.5582470717773589  0.06356390762490352  0.9825661890776232  1.0000
  Zn  Zn14      1.0  0.4007398914565243  0.058070490630271414  0.9768859941140632  1.0000
  Zn  Zn15      1.0  0.5559639632079579  0.9010478953838829  0.9800513367625427  1.0000
  Zn  Zn16      1.0  0.48394519314490486  0.979344187821113  0.059324201802375846  1.0000
  H   H1        1.0  0.7500135638663322  0.44955298243132114  0.3490260983864033  1.0000
  H   H2        1.0  0.001557662944272  0.2998801176941442  0.4004609771056309  1.0000
  H   H3        1.0  0.2005762717547555  0.7013021774051327  0.6006986548905289  1.0000
  H   H4        1.0  0.0498245513001265  0.5493184437248361  0.649573902093799  1.0000
  H   H5        1.0  0.4616493244835382  0.24046001233678996  0.34227302376421415  1.0000
  H   H6        1.0  0.4811178117354374  0.6990891214780603  0.5999622290126679  1.0000
  H   H7        1.0  0.2016913788800565  0.9762915973974913  0.6024405988279966  1.0000
  H   H8        1.0  0.9429290158768708  0.9774988467249344  0.3508453158541158  1.0000
  H   H9        1.0  0.6501257406934684  0.147991265042819  0.0492518513495455  1.0000
  H   H10       1.0  0.6007389018235472  0.10032375617957015  0.20073227914326708  1.0000
  H   H11       1.0  0.5479954195512562  0.7680488214001787  0.14918279042139201  1.0000
  H   H12       1.0  0.16455166182610984  0.1374810713841299  0.0397454174179543  1.0000
  H   H13       1.0  0.2994367247639786  0.0005155228501934047  0.9011909161674864  1.0000
  H   H14       1.0  0.4494143774924311  0.7501090932601999  0.8494218141142369  1.0000
  H   H15       1.0  0.2999530883129324  0.28206009016761163  0.8999010011529194  1.0000
  H   H16       1.0  0.7869528141768781  0.00966964878337973  0.9115400993351911  1.0000
  H   H17       1.0  0.843813680402846  0.57251741021976  0.39996690405648383  1.0000
  H   H18       1.0  0.9655416912130406  0.23520322193720486  0.29155046896573106  1.0000
  H   H19       1.0  0.07033531881841529  0.6863605608138031  0.5139522270337977  1.0000
  H   H20       1.0  0.0630493533540388  0.6799632525479711  0.7366325074521355  1.0000
  H   H21       1.0  0.7939748862330376  0.1781504331150288  0.12181365873595947  1.0000
  H   H22       1.0  0.5717672303111099  0.9560675027605899  0.1282908203055585  1.0000
  H   H23       1.0  0.17750148320981646  0.9060635211213113  0.8499773962390264  1.0000
  H   H24       1.0  0.5136476886850332  0.7850589772422156  0.9585901795695689  1.0000
  C   C1        1.0  0.0622395022850242  0.3135295435495919  0.5628758902627808  1.0000
  C   C2        1.0  0.0650052150603528  0.5737017447124374  0.5687378425273832  1.0000
  C   C3        1.0  0.18144772692884462  0.4398091854321323  0.4395187371449509  1.0000
  C   C4        1.0  0.936520368318682  0.6866257651039401  0.4378579590972294  1.0000
  C   C5        1.0  0.934190740281025  0.4329600979879018  0.4287542648555771  1.0000
  C   C6        1.0  0.8190331507663585  0.5602597483965397  0.5607638482080404  1.0000
  C   C7        1.0  0.563224266926447  0.3126154758691159  0.3122378443422349  1.0000
  C   C8        1.0  0.6856601084461005  0.17694490737366658  0.18083956360125336  1.0000
  C   C9        1.0  0.690569855733017  0.4309290354892569  0.1889281988908493  1.0000
  C   C10       1.0  0.9377848794636774  0.18568837642713748  0.1890302022275563  1.0000
  C   C11       1.0  0.8217718302755584  0.3210971632717731  0.316266429606145  1.0000
  C   C12       1.0  0.808424277171511  0.06868118108022975  0.3108719213026916  1.0000
  C   C13       1.0  0.4366089595385034  0.6886829015225756  0.6871717869325948  1.0000
  C   C14       1.0  0.31607190609509667  0.8175248519393822  0.8210790903788237  1.0000
  C   C15       1.0  0.1896104652727431  0.9310340073706839  0.6893510636101537  1.0000
  C   C16       1.0  0.06362140884824188  0.8100490291839295  0.8125244591133266  1.0000
  C   C17       1.0  0.1767482642728666  0.685632147368388  0.6813975030614543  1.0000
  C   C18       1.0  0.3129075766767002  0.5685458657248575  0.8104926492076103  1.0000
  C   C19       1.0  0.4364972616847779  0.18697464030621097  0.9378545445550089  1.0000
  C   C20       1.0  0.4283168642442022  0.9286564457468033  0.9339506471711728  1.0000
  C   C21       1.0  0.6814008526470019  0.9411920703705053  0.939049284665124  1.0000
  C   C22       1.0  0.5624218635390504  0.8132114995136918  0.062200434126211214  1.0000
  C   C23       1.0  0.5736799702564427  0.06318298541685143  0.06907928437158259  1.0000
  C   C24       1.0  0.3179721615149447  0.0614285854512673  0.06037019240716999  1.0000
  C   C25       1.0  0.9008560936323349  0.4056473908041127  0.40124892166628  1.0000
  C   C26       1.0  0.852279262775532  0.3453299690085959  0.3466372734097688  1.0000
  C   C27       1.0  0.8285942666555853  0.44710718702845054  0.3869460151050034  1.0000
  C   C28       1.0  0.9233195154686625  0.30261902983280475  0.3621725464164456  1.0000
  C   C29       1.0  0.8057616563064585  0.4168090984005418  0.3599798541342735  1.0000
  C   C30       1.0  0.9464912072342668  0.33322839060812026  0.38881116099381785  1.0000
  C   C31       1.0  0.0980207022679664  0.6012592065877983  0.5962530715286575  1.0000
  C   C32       1.0  0.1493063517235882  0.6524681079481244  0.6540003871933493  1.0000
  C   C33       1.0  0.14223176215236316  0.6435330286035922  0.5827695305491715  1.0000
  C   C34       1.0  0.10741127557515992  0.6079168405152231  0.6675091830846966  1.0000
  C   C35       1.0  0.16670493339728412  0.6685420215527458  0.6115248575723982  1.0000
  C   C36       1.0  0.0823591337385636  0.5834442243737713  0.6387423759432593  1.0000
  C   C37       1.0  0.30180703839413786  0.45472638903462603  0.40176473121754697  1.0000
  C   C38       1.0  0.4442448489889869  0.29755734135858347  0.3500406276179149  1.0000
  C   C39       1.0  0.25597045895123216  0.41542755906137796  0.4147900477463295  1.0000
  C   C40       1.0  0.48864750997547896  0.3380579616559631  0.3372819075178128  1.0000
  C   C41       1.0  0.37597520342604435  0.34058436180689716  0.3735260305155634  1.0000
  C   C42       1.0  0.37039339496913465  0.41286080734494124  0.37811960273613465  1.0000
  C   C43       1.0  0.7279306570180495  0.5769368767713845  0.6279661241050789  1.0000
  C   C44       1.0  0.5262218596664567  0.6713581710269737  0.6199790042469926  1.0000
  C   C45       1.0  0.7444398603641958  0.5845203287124505  0.5853549821554864  1.0000
  C   C46       1.0  0.5115484466145334  0.6630029161089868  0.6625110976608113  1.0000
  C   C47       1.0  0.6055114576363536  0.6394457096177604  0.6074938524353256  1.0000
  C   C48       1.0  0.6490160131997627  0.6078309674726085  0.6410994424484356  1.0000
  C   C49       1.0  0.0786553313302676  0.22246273198349803  0.6303534771693222  1.0000
  C   C50       1.0  0.1739218589506137  0.021162011482182712  0.6224552413410791  1.0000
  C   C51       1.0  0.08714055959097779  0.2391045516104953  0.5877618740117471  1.0000
  C   C52       1.0  0.1649191849739324  0.006220772695229504  0.6649835443493401  1.0000
  C   C53       1.0  0.1425618562974975  0.1003144824548414  0.6100087286742379  1.0000
  C   C54       1.0  0.1101616862877393  0.14355585604010915  0.643579611767862  1.0000
  C   C55       1.0  0.8439394538356524  0.8019853965921798  0.395168176419574  1.0000
  C   C56       1.0  0.900396839456917  0.9548540639825878  0.3536233415207874  1.0000
  C   C57       1.0  0.9113852248819542  0.7610903313785398  0.4130706466553918  1.0000
  C   C58       1.0  0.8330062568343806  0.9940209343571312  0.3358288192594899  1.0000
  C   C59       1.0  0.9042459282199999  0.8844137879449079  0.3750351636930275  1.0000
  C   C60       1.0  0.8391471339116662  0.8722309243410539  0.3732011916967437  1.0000
  C   C61       1.0  0.6556918711206662  0.15177047391351556  0.15056814026524987  1.0000
  C   C62       1.0  0.5981020902313361  0.09360121411551606  0.09940497721980529  1.0000
  C   C63       1.0  0.6682058014686305  0.1660087740887519  0.10728538087302297  1.0000
  C   C64       1.0  0.58324132493658  0.0816722806140079  0.14267948203231376  1.0000
  C   C65       1.0  0.639843039131648  0.13673869515162806  0.0825985241849239  1.0000
  C   C66       1.0  0.6122995615242958  0.11025543407021125  0.16738247924762104  1.0000
  C   C67       1.0  0.6745446010733788  0.5218037638396994  0.1213164497030021  1.0000
  C   C68       1.0  0.5770541813548817  0.7232191503812262  0.12917851367345884  1.0000
  C   C69       1.0  0.6654224880495433  0.5052031588006687  0.1639131598789021  1.0000
  C   C70       1.0  0.5874749121392852  0.7381563444685856  0.08668345178649157  1.0000
  C   C71       1.0  0.6092199734394299  0.6440186755580515  0.14163534316552526  1.0000
  C   C72       1.0  0.6429423210644529  0.600742135347794  0.10812785878778183  1.0000
  C   C73       1.0  0.0845474575904603  0.12514787214598042  0.17721215190874054  1.0000
  C   C74       1.0  0.17250544488743463  0.12297181286741225  0.0722404400871568  1.0000
  C   C75       1.0  0.0121937995844021  0.16175379686131922  0.164271369718918  1.0000
  C   C76       1.0  0.24392303212636077  0.08646943639302408  0.0859320772772847  1.0000
  C   C77       1.0  0.11454639409464559  0.1373358572928184  0.1057807821479528  1.0000
  C   C78       1.0  0.1436277553802157  0.11100682804057982  0.1442397477101807  1.0000
  C   C79       1.0  0.3433179241698809  0.8505714898044375  0.8487257265841918  1.0000
  C   C80       1.0  0.4039043999444303  0.8984458617050921  0.903534782133498  1.0000
  C   C81       1.0  0.30176205670552037  0.9224720741177209  0.8631565593101342  1.0000
  C   C82       1.0  0.4466447352361556  0.827741214794301  0.8879233023922737  1.0000
  C   C83       1.0  0.3321988910430207  0.944993471301061  0.8901999705771928  1.0000
  C   C84       1.0  0.4159499035715584  0.8049024536309661  0.8611570171796286  1.0000
  C   C85       1.0  0.4051933418530425  0.45162562020922087  0.8525142101857454  1.0000
  C   C86       1.0  0.3443188932843029  0.3025774952988699  0.895980054708154  1.0000
  C   C87       1.0  0.3374032784095533  0.49391693200921355  0.8351039439107879  1.0000
  C   C88       1.0  0.4124784013790759  0.26160140327831277  0.9128767162486682  1.0000
  C   C89       1.0  0.3421101751832651  0.3719134157898267  0.8737578668139462  1.0000
  C   C90       1.0  0.4088764846110564  0.3818489917321415  0.8745851696145833  1.0000
  C   C91       1.0  0.9413482880633239  0.7976956424641414  0.8489839054734105  1.0000
  C   C92       1.0  0.8023875327960752  0.9538061931402598  0.902606684570493  1.0000
  C   C93       1.0  0.9889910891036352  0.8352195217911458  0.8370522711438042  1.0000
  C   C94       1.0  0.7558889260056105  0.9152950753762572  0.9139449475647082  1.0000
  C   C95       1.0  0.8698764612813505  0.9106607110514778  0.878647840046568  1.0000
  C   C96       1.0  0.8729898966969215  0.8400823905893523  0.8726004583773059  1.0000
  S   S1        1.0  0.29729668310937296  0.32565528753833933  0.397854761729306  1.0000
  S   S2        1.0  0.44840531054747146  0.42821727191962117  0.3535864367269141  1.0000
  S   S3        1.0  0.6619407877649124  0.6298098896786966  0.5607304401284807  1.0000
  S   S4        1.0  0.5931505940189865  0.6165313954040176  0.6877671207452207  1.0000
  S   S5        1.0  0.1343948250495544  0.15687107763965008  0.5632692735827973  1.0000
  S   S6        1.0  0.11887972422000809  0.08748328075958516  0.6902626180370603  1.0000
  S   S7        1.0  0.9701354290025389  0.8093956630492517  0.40300097687644143  1.0000
  S   S8        1.0  0.7737577534451389  0.9464007513399366  0.3449488560209488  1.0000
  S   S9        1.0  0.6173944164053538  0.587477643405329  0.1883717255136972  1.0000
  S   S10       1.0  0.6358642849064537  0.6568495745527444  0.06149614235510367  1.0000
  S   S11       1.0  0.016174623801838102  0.17943221629696643  0.11076167592469228  1.0000
  S   S12       1.0  0.2416971626808859  0.06957442872436559  0.1393357050822743  1.0000
  S   S13       1.0  0.27697203540464693  0.44744999659788953  0.8456551167987029  1.0000
  S   S14       1.0  0.4743815059141454  0.30635252813160463  0.9021024848746889  1.0000
  S   S15       1.0  0.9497400161462365  0.9240287491415771  0.8549901719340411  1.0000
  S   S16       1.0  0.7930450853292115  0.826986610758482  0.8957016545664942  1.0000
  S   S17       1.0  0.7574444172088163  0.5366764210604843  0.4032912059449886  1.0000
  S   S18       1.0  0.9870110617464152  0.20599533447936827  0.352798693599773  1.0000
  S   S19       1.0  0.1765100352742692  0.6640284369933553  0.5297495161697297  1.0000
  S   S20       1.0  0.0871437593425952  0.5736295859541513  0.7206021598854448  1.0000
  S   S21       1.0  0.7139851553619252  0.2261834524365512  0.07982880430363075  1.0000
  S   S22       1.0  0.5228704246129395  0.03606441799717439  0.1700068437477071  1.0000
  S   S23       1.0  0.2117944863883352  0.9933170848115939  0.8469021600905364  1.0000
  S   S24       1.0  0.5435031404781867  0.7641378145827106  0.8973329342451352  1.0000
  O   O1        1.0  0.0010023379037277995  0.4979080839954762  0.5005688403230835  1.0000
  O   O2        1.0  0.08013678737279409  0.3126847080786845  0.5238106518360652  1.0000
  O   O3        1.0  0.046969684694900586  0.5191179938401904  0.5843117482376741  1.0000
  O   O4        1.0  0.1554248237482838  0.5041636919915219  0.453239115452206  1.0000
  O   O5        1.0  0.0252020418795382  0.37220025237419213  0.5819417319815939  1.0000
  O   O6        1.0  0.14926567334469348  0.3936951177607286  0.44502274454004004  1.0000
  O   O7        1.0  0.054989590979097606  0.6075924756302129  0.5319095877399461  1.0000
  O   O8        1.0  0.0040134954368156  0.659201644805421  0.4485841762793044  1.0000
  O   O9        1.0  0.9080566703246475  0.5049223848855037  0.43050194671758385  1.0000
  O   O10       1.0  0.8898089252910137  0.6553033495579683  0.44681457094930005  1.0000
  O   O11       1.0  0.9881527007355829  0.38246598176513646  0.44788855235479724  1.0000
  O   O12       1.0  0.8777911055943264  0.5320108532266233  0.5801444509132878  1.0000
  O   O13       1.0  0.8180789375706112  0.5703303391881963  0.5215489451768605  1.0000
  O   O14       1.0  0.7480928918716288  0.2506044549924908  0.2506684100590845  1.0000
  O   O15       1.0  0.5934325480659197  0.360428492989904  0.30299531357329806  1.0000
  O   O16       1.0  0.6516201499012267  0.1799083374263973  0.21714872132467633  1.0000
  O   O17       1.0  0.7216265000185088  0.3719726382314549  0.16978415014582274  1.0000
  O   O18       1.0  0.5912945598257124  0.24528572549832028  0.3018805601198124  1.0000
  O   O19       1.0  0.6788203699118824  0.4323812195308464  0.22809245522293506  1.0000
  O   O20       1.0  0.7443906667050157  0.19176373650736173  0.1689092190211099  1.0000
  O   O21       1.0  0.8795350023887777  0.2227985988445411  0.1690313333286042  1.0000
  O   O22       1.0  0.8688550162823958  0.2706388721144536  0.2930741845984315  1.0000
  O   O23       1.0  0.9365344780454805  0.16796156084058103  0.228024148945579  1.0000
  O   O24       1.0  0.7503474663795514  0.3540862388554302  0.3146773495733726  1.0000
  O   O25       1.0  0.7450048891623806  0.09271675856746255  0.2958639864480901  1.0000
  O   O26       1.0  0.8524980955110878  0.10265000197291135  0.3063291152084773  1.0000
  O   O27       1.0  0.2519973434275897  0.7492438263177235  0.7494840408552433  1.0000
  O   O28       1.0  0.3781483164359328  0.7253965718230051  0.6676465639587191  1.0000
  O   O29       1.0  0.3668487971986353  0.7645782045138605  0.8015732503554673  1.0000
  O   O30       1.0  0.1776262898730323  0.9307754059790202  0.7285940921744113  1.0000
  O   O31       1.0  0.43679594379545245  0.6718675934867095  0.7262786076088829  1.0000
  O   O32       1.0  0.2203140165779942  0.8730587302612778  0.6693942459403884  1.0000
  O   O33       1.0  0.24394524837612858  0.8427259257836044  0.8195960021151832  1.0000
  O   O34       1.0  0.0933933968517806  0.8584442281949622  0.8038398756772835  1.0000
  O   O35       1.0  0.14310143041417686  0.69526896387638  0.7182103754168736  1.0000
  O   O36       1.0  0.0930174890108262  0.7429267374370455  0.8018681654908519  1.0000
  O   O37       1.0  0.23097111575226842  0.7043613382355859  0.6657037644458654  1.0000
  O   O38       1.0  0.3566196792726757  0.6029375384179333  0.805578851152461  1.0000
  O   O39       1.0  0.24870000542589568  0.5925020874962216  0.7962644128570204  1.0000
  O   O40       1.0  0.49925881533341243  0.0016911531617366574  0.9993659007688862  1.0000
  O   O41       1.0  0.5040797352826303  0.15827317702568428  0.9484748215467889  1.0000
  O   O42       1.0  0.3955404546468131  0.9999804471849321  0.9353831717711145  1.0000
  O   O43       1.0  0.6472912908352625  0.8968909952856808  0.9443786625722623  1.0000
  O   O44       1.0  0.38837813671999294  0.15727514956827818  0.9468103420405356  1.0000
  O   O45       1.0  0.6575059921064295  0.004812865795685262  0.9533705810942408  1.0000
  O   O46       1.0  0.47864862232069777  0.8813961331971429  0.9573239802029576  1.0000
  O   O47       1.0  0.5815176214631208  0.8139748937226942  0.023187707245121196  1.0000
  O   O48       1.0  0.5585571239047198  0.004652446619665882  0.08110845865980558  1.0000
  O   O49       1.0  0.5237984965218274  0.871411110948714  0.08163358408689449  1.0000
  O   O50       1.0  0.5716182172939311  0.09650536392214808  0.03258924316190811  1.0000
  O   O51       1.0  0.31687231291061824  0.07232762625280037  0.021340752830958806  1.0000
  O   O52       1.0  0.377043860985914  0.030468955760603905  0.07985129778714388  1.0000
  O   O53       1.0  0.7971822477498806  0.5929039963875625  0.38519862368134733  1.0000
  O   O54       1.0  0.6932072221746636  0.5607322707514938  0.3809591922724849  1.0000
  O   O55       1.0  0.7486332348070306  0.5276788242257243  0.44763163255854005  1.0000
  O   O56       1.0  0.013671046388772397  0.21621210373216831  0.3048279087563017  1.0000
  O   O57       1.0  0.0533709298634406  0.1833775077289489  0.3731263890666412  1.0000
  O   O58       1.0  0.942387511949228  0.16197831978654895  0.3612066655096626  1.0000
  O   O59       1.0  0.0993018038146758  0.7188975679340004  0.5106955492741463  1.0000
  O   O60       1.0  0.2172502553332265  0.7097775002160773  0.5287797411393527  1.0000
  O   O61       1.0  0.2121613263376645  0.5932174662896231  0.5121084742054833  1.0000
  O   O62       1.0  0.031173321149800898  0.6505955581387468  0.7393514305931674  1.0000
  O   O63       1.0  0.042329915132086185  0.5319705697912981  0.721574909385687  1.0000
  O   O64       1.0  0.1578770029559422  0.5391481566020462  0.7386001981374974  1.0000
  O   O65       1.0  0.7990632361536498  0.17948290158562938  0.0910553847095628  1.0000
  O   O66       1.0  0.717525079404048  0.22454236655026716  0.03657397042540821  1.0000
  O   O67       1.0  0.6780953424732631  0.29700176957747004  0.09745069015134787  1.0000
  O   O68       1.0  0.5698346045603913  0.9509700883503526  0.159131589247508  1.0000
  O   O69       1.0  0.5238741943086395  0.03288411773306179  0.2132989525223721  1.0000
  O   O70       1.0  0.45210404799782106  0.07149238148038252  0.1520260675911871  1.0000
  O   O71       1.0  0.1561423364665799  0.9527595339476278  0.864727035090894  1.0000
  O   O72       1.0  0.18728182316159794  0.05709015378987203  0.8694815430511651  1.0000
  O   O73       1.0  0.2204594145853207  0.002819502426206102  0.8025744171702485  1.0000
  O   O74       1.0  0.5332035814376752  0.7370241969142131  0.9453244366264569  1.0000
  O   O75       1.0  0.5662565867340277  0.6982023752356666  0.8768582827837577  1.0000
  O   O76       1.0  0.5872561880707039  0.8089828051812165  0.8892518248178689  1.0000
  F   F1        1.0  0.28372667466096857  0.5252015946847027  0.4100251265191233  1.0000
  F   F2        1.0  0.78055339205698  0.5436296751047038  0.6545018364438917  1.0000
  F   F3        1.0  0.0443917457235727  0.27488737439949773  0.6567761277368405  1.0000
  F   F4        1.0  0.7886019784373275  0.7781016008408772  0.39787511408113113  1.0000
  F   F5        1.0  0.709984750482107  0.46949676930352546  0.09495811579262886  1.0000
  F   F6        1.0  0.0980557839844138  0.10508968976873234  0.2167560768202534  1.0000
  F   F7        1.0  0.46225519040035573  0.47346575605399016  0.8488877244107087  1.0000
  F   F8        1.0  0.9573479632852298  0.7286376190752365  0.8392344303625592  1.0000
