data_image0
_chemical_formula_structural       Cd2H30C34S4N22
_chemical_formula_sum              "Cd2 H30 C34 S4 N22"
_cell_length_a       8.778403810050051
_cell_length_b       9.854483728977868
_cell_length_c       12.712870416289558
_cell_angle_alpha    104.14595861597407
_cell_angle_beta     94.71919256487838
_cell_angle_gamma    100.67020953677772

_space_group_name_H-M_alt    "P 1"
_space_group_IT_number       1

loop_
  _space_group_symop_operation_xyz
  'x, y, z'

loop_
  _atom_site_type_symbol
  _atom_site_label
  _atom_site_symmetry_multiplicity
  _atom_site_fract_x
  _atom_site_fract_y
  _atom_site_fract_z
  _atom_site_occupancy
  Cd  Cd1       1.0  0.2392187185182664  0.27826338350221397  0.37079025950267663  1.0000
  Cd  Cd2       1.0  0.7607874705899177  0.7217393192451241  0.629210295772161  1.0000
  H   H1        1.0  0.9805065537896738  0.2537841700665808  0.5674903993519891  1.0000
  H   H2        1.0  0.01949537263690359  0.7462196618561163  0.43250382408329097  1.0000
  H   H3        1.0  0.468496488153022  0.2914691202185579  0.6233624610108564  1.0000
  H   H4        1.0  0.531504811722769  0.7085271668883594  0.376634977676133  1.0000
  H   H5        1.0  0.5020374802595456  0.3579392415681112  0.8277581662450472  1.0000
  H   H6        1.0  0.49796062650468537  0.6420581007388504  0.17224007077985692  1.0000
  H   H7        1.0  0.3404459696679397  0.2770204325948882  0.8837193403945065  1.0000
  H   H8        1.0  0.6595510181916069  0.722976932767544  0.11627647341147447  1.0000
  H   H9        1.0  0.2420182960997863  0.4309886687435736  0.023523886053176585  1.0000
  H   H10       1.0  0.7579780316190822  0.569010827527876  0.9764730886338029  1.0000
  H   H11       1.0  0.260296640515314  0.8726181983016943  0.025753720475563548  1.0000
  H   H12       1.0  0.7396999165855503  0.1273823518965287  0.9742450462613803  1.0000
  H   H13       1.0  0.4589559292067591  0.6038610481314919  0.7791212382497292  1.0000
  H   H14       1.0  0.5410424151619111  0.3961373565888878  0.2208780063320432  1.0000
  H   H15       1.0  0.10273135837273632  0.9795650382601835  0.5865773859219416  1.0000
  H   H16       1.0  0.8972674612048123  0.0204354912870244  0.41342387377358136  1.0000
  H   H17       1.0  0.08999653881289758  0.6933992745420737  0.7836825456548695  1.0000
  H   H18       1.0  0.9100029491277725  0.3065991325827611  0.2163167686665659  1.0000
  H   H19       1.0  0.5040221971920644  0.8583791473225161  0.7985484899447356  1.0000
  H   H20       1.0  0.49597866370260846  0.1416203161335474  0.2014526861663057  1.0000
  H   H21       1.0  0.4286943801464247  0.9755130872589959  0.9030748793950565  1.0000
  H   H22       1.0  0.5713041936042486  0.024486371388157097  0.0969261572366875  1.0000
  H   H23       1.0  0.057216789091207025  0.9370725596650759  0.17858108285857097  1.0000
  H   H24       1.0  0.9427852318203377  0.06292692316873168  0.821418594005948  1.0000
  H   H25       1.0  0.4616193735174291  0.018061146009088695  0.4059060701419099  1.0000
  H   H26       1.0  0.5383809710561636  0.9819361501869467  0.594097013320841  1.0000
  H   H27       1.0  0.029455458849312815  0.6653575688643301  0.11024204634212248  1.0000
  H   H28       1.0  0.9705428772969213  0.3346408273694124  0.889757982732739  1.0000
  H   H29       1.0  0.16068034102689674  0.5842163929009275  0.174943110885593  1.0000
  H   H30       1.0  0.8393177821822134  0.41578096637931583  0.825053557153133  1.0000
  C   C1        1.0  0.09851189252302818  0.2662820560267888  0.607101195358652  1.0000
  C   C2        1.0  0.9014890341511616  0.7337174753224004  0.39289370480767616  1.0000
  C   C3        1.0  0.3457947270035291  0.28673032876874055  0.6319260844955038  1.0000
  C   C4        1.0  0.6542059209540197  0.7132680977338312  0.3680717305794019  1.0000
  C   C5        1.0  0.3793114197229172  0.35634679636449107  0.8386712004414818  1.0000
  C   C6        1.0  0.6206880764401956  0.643651619246988  0.16132732938685723  1.0000
  C   C7        1.0  0.35354009486948  0.5019441060423233  0.8959179669266532  1.0000
  C   C8        1.0  0.6464610365193905  0.4980564537737209  0.10408107876890683  1.0000
  C   C9        1.0  0.2762026949463347  0.5209183494572897  0.9885232527473703  1.0000
  C   C10       1.0  0.7237990801383349  0.4790800624764557  0.011476201053369588  1.0000
  C   C11       1.0  0.24342857645966393  0.6541592833520655  0.03694422754250581  1.0000
  C   C12       1.0  0.7565669891112491  0.3458369747592939  0.96305443143239  1.0000
  C   C13       1.0  0.2886345176770532  0.7687005881637532  0.9915250124601512  1.0000
  C   C14       1.0  0.7113626666747379  0.2312977971788897  0.008475731368150684  1.0000
  C   C15       1.0  0.3668596702475924  0.7505452439971378  0.8991020097445812  1.0000
  C   C16       1.0  0.633137530549078  0.24945315831878637  0.10089716509753535  1.0000
  C   C17       1.0  0.3995768513899876  0.6173869247840003  0.8519098685739692  1.0000
  C   C18       1.0  0.6004267883024426  0.3826146852810908  0.1480918931439561  1.0000
  C   C19       1.0  0.13651538488105788  0.9232060645435425  0.6451179548032826  1.0000
  C   C20       1.0  0.8634825451738024  0.07679554198590918  0.3548826737232815  1.0000
  C   C21       1.0  0.12724415346558976  0.7769952709156203  0.7439336175745979  1.0000
  C   C22       1.0  0.8727544367299557  0.22300420470482155  0.2560658500709678  1.0000
  C   C23       1.0  0.40426968576289823  0.8694114473877335  0.8441790060039125  1.0000
  C   C24       1.0  0.5957291502595295  0.13058909913276306  0.1558206847054251  1.0000
  C   C25       1.0  0.1593440787528309  0.9279662234003467  0.22864606314593766  1.0000
  C   C26       1.0  0.8406600081431604  0.07203221880223512  0.7713511766548393  1.0000
  C   C27       1.0  0.36366712609193286  0.96383736769188  0.34283343246822534  1.0000
  C   C28       1.0  0.6363332349265463  0.03615994547743639  0.6571680820083472  1.0000
  C   C29       1.0  0.1538109798751037  0.6699607082443819  0.13455830206503797  1.0000
  C   C30       1.0  0.8461873562711234  0.33003768798936056  0.8654417270098237  1.0000
  C   C31       1.0  0.20275147419349077  0.22285546387902838  0.10627575663229287  1.0000
  C   C32       1.0  0.7972496243056212  0.7771450619904529  0.8937264270356309  1.0000
  C   C33       1.0  0.372688884175112  0.6184855944321657  0.5351162001403225  1.0000
  C   C34       1.0  0.6273173411608256  0.3815224094911471  0.4648901076723178  1.0000
  S   S1        1.0  0.20771234719288856  0.557792109425655  0.45412186504685786  1.0000
  S   S2        1.0  0.7922877220020652  0.442209349153174  0.5458930238346298  1.0000
  S   S3        1.0  0.1865322060440491  0.11703878167308797  0.9849380440180083  1.0000
  S   S4        1.0  0.813456382280563  0.8829670528699225  0.015065987079154285  1.0000
  N   N1        1.0  0.22561321796806058  0.2581912943927732  0.5522267789826429  1.0000
  N   N2        1.0  0.7743899794052425  0.7418082247920452  0.4477698296491752  1.0000
  N   N3        1.0  0.2913356844853965  0.3093302368649589  0.7289764451225835  1.0000
  N   N4        1.0  0.7086640739494712  0.6906692666198565  0.2710207387833563  1.0000
  N   N5        1.0  0.1335365875577708  0.29700831795726407  0.7150062888273254  1.0000
  N   N6        1.0  0.8664644329012462  0.7029965739743957  0.2849888724251741  1.0000
  N   N7        1.0  0.03931630723621281  0.8121030742934678  0.6679848254051635  1.0000
  N   N8        1.0  0.9606825370086581  0.18789748071366563  0.3320140808110921  1.0000
  N   N9        1.0  0.27812085716603013  0.9587147008837391  0.7025923298904501  1.0000
  N   N10       1.0  0.721876835284398  0.041285843232302  0.2974072910792387  1.0000
  N   N11       1.0  0.2698486745887294  0.8640645221916614  0.7650355369859057  1.0000
  N   N12       1.0  0.7301490178616915  0.1359360219243726  0.23496408398378318  1.0000
  N   N13       1.0  0.2529413127671205  0.030532519496418307  0.3089742852147381  1.0000
  N   N14       1.0  0.7470590482513514  0.969464793672891  0.6910272292618345  1.0000
  N   N15       1.0  0.34362869784696665  0.8270955194054322  0.28829564552819414  1.0000
  N   N16       1.0  0.6563714255670731  0.1729007313504667  0.7117048613915031  1.0000
  N   N17       1.0  0.2122655548248531  0.8061668665744718  0.21626576926730215  1.0000
  N   N18       1.0  0.787733416794744  0.19382937329033467  0.7837354524058284  1.0000
  N   N19       1.0  0.2162772394561827  0.3031768979978438  0.19515292309875323  1.0000
  N   N20       1.0  0.7837254031217071  0.6968353883945183  0.804853213517319  1.0000
  N   N21       1.0  0.4914219214360855  0.6653271464777858  0.5956303409754895  1.0000
  N   N22       1.0  0.5085937476373701  0.3346819985010754  0.4043720408596343  1.0000
