data_image0
_chemical_formula_structural       CuH12C10N2O8
_chemical_formula_sum              "Cu1 H12 C10 N2 O8"
_cell_length_a       5.465420233676052
_cell_length_b       7.8841043893290585
_cell_length_c       8.29774864227621
_cell_angle_alpha    80.93061668836548
_cell_angle_beta     77.97897335284291
_cell_angle_gamma    73.16329745512232

_space_group_name_H-M_alt    "P 1"
_space_group_IT_number       1

loop_
  _space_group_symop_operation_xyz
  'x, y, z'

loop_
  _atom_site_type_symbol
  _atom_site_label
  _atom_site_symmetry_multiplicity
  _atom_site_fract_x
  _atom_site_fract_y
  _atom_site_fract_z
  _atom_site_occupancy
  Cu  Cu1       1.0  1.771676459595713e-05  0.9999857564939844  1.2583055678339712e-05  1.0000
  H   H1        1.0  0.7819629732157838  0.8356471879542441  0.5698610815005906  1.0000
  H   H2        1.0  0.21803993633601243  0.16437170937534518  0.4301236895386609  1.0000
  H   H3        1.0  0.8953264878716425  0.7611073540469135  0.7588793147808275  1.0000
  H   H4        1.0  0.10469826545700305  0.23892117553665318  0.24109094507168286  1.0000
  H   H5        1.0  0.6629003996279366  0.6672328452845309  0.7082777573627083  1.0000
  H   H6        1.0  0.33713518876678716  0.3327743262910162  0.2917012595068512  1.0000
  H   H7        1.0  0.5296430600223019  0.4318279580021526  0.8303657312030667  1.0000
  H   H8        1.0  0.47030959221682167  0.5681917332605908  0.16963883411570888  1.0000
  H   H9        1.0  0.2906312657962788  0.5041837984318108  0.7017260334885549  1.0000
  H   H10       1.0  0.7093228203063262  0.49579327510932103  0.29826664042258233  1.0000
  H   H11       1.0  0.19590243255985482  0.5081821618396063  0.920889163350651  1.0000
  H   H12       1.0  0.8040492366127836  0.4918189868839278  0.07909664544661867  1.0000
  C   C1        1.0  0.7236327815293038  0.7891471350027787  0.7000769300713541  1.0000
  C   C2        1.0  0.27638615480321244  0.21085987005675833  0.2999071265202814  1.0000
  C   C3        1.0  0.5050949478798898  0.9251738364151337  0.7878722801442702  1.0000
  C   C4        1.0  0.49492035283005015  0.07481971581687931  0.21212039940932204  1.0000
  C   C5        1.0  0.49600729162691  0.10975586889750841  0.761760655872983  1.0000
  C   C6        1.0  0.5039977779934262  0.8902374301290978  0.2382529526114751  1.0000
  C   C7        1.0  0.3006786493699282  0.24856832303045445  0.8408818474033664  1.0000
  C   C8        1.0  0.6993260597867276  0.7514262791724136  0.15913523830008106  1.0000
  C   C9        1.0  0.3305367765733395  0.4343365546920452  0.8226485071002896  1.0000
  C   C10       1.0  0.6694457159833432  0.5656646907718681  0.17735296557354016  1.0000
  N   N1        1.0  0.7127220349667311  0.1609930231176619  0.6529587304915409  1.0000
  N   N2        1.0  0.2872825723468894  0.8390109473057592  0.3470557545298333  1.0000
  O   O1        1.0  0.9375711469298126  0.0755667393860264  0.6740791110272111  1.0000
  O   O2        1.0  0.062434914632838436  0.9244426121684058  0.32593192480938876  1.0000
  O   O3        1.0  0.6668353309074675  0.2889153807054258  0.5448016008101104  1.0000
  O   O4        1.0  0.33315624933145227  0.711097824117175  0.4552147357104985  1.0000
  O   O5        1.0  0.3269228322655594  0.8654430935487339  0.8838316459278344  1.0000
  O   O6        1.0  0.6730827191723989  0.13454109598201572  0.11615432211124238  1.0000
  O   O7        1.0  0.09897591293911029  0.22192785821378183  0.9391159854963644  1.0000
  O   O8        1.0  0.9010596346397152  0.778044081461303  0.06092380650404286  1.0000
