data_image0
_chemical_formula_structural       La4H24C24N36
_chemical_formula_sum              "La4 H24 C24 N36"
_cell_length_a       9.55728867595002
_cell_length_b       9.557294397462435
_cell_length_c       13.181329474778305
_cell_angle_alpha    92.38804987895382
_cell_angle_beta     92.38826303391268
_cell_angle_gamma    119.92739934813686

_space_group_name_H-M_alt    "P 1"
_space_group_IT_number       1

loop_
  _space_group_symop_operation_xyz
  'x, y, z'

loop_
  _atom_site_type_symbol
  _atom_site_label
  _atom_site_symmetry_multiplicity
  _atom_site_fract_x
  _atom_site_fract_y
  _atom_site_fract_z
  _atom_site_occupancy
  La  La1       1.0  0.5217386411812512  0.2553350879230862  0.4273787501929577  1.0000
  La  La2       1.0  0.7446666425689442  0.47826411444139433  0.0726209215981939  1.0000
  La  La3       1.0  0.4782624043952097  0.7446664228753263  0.5726202993047239  1.0000
  La  La4       1.0  0.2553348481828975  0.5217361909609933  0.9273788649615966  1.0000
  H   H1        1.0  0.9631841364781834  0.9916650751417673  0.40142082851115657  1.0000
  H   H2        1.0  0.0083342803606996  0.0368139745161358  0.0985782501411805  1.0000
  H   H3        1.0  0.0368148148208647  0.0083364360136784  0.5985781614985655  1.0000
  H   H4        1.0  0.9916645036888524  0.9631851155668157  0.9014206663379554  1.0000
  H   H5        1.0  0.910021995820557  0.23671680140565596  0.3351024340749333  1.0000
  H   H6        1.0  0.7632830343296818  0.08997727242922338  0.1648976280952894  1.0000
  H   H7        1.0  0.08997800261720103  0.7632847095712806  0.6648965856787755  1.0000
  H   H8        1.0  0.23671725249549505  0.9100206225381199  0.8351035731007671  1.0000
  H   H9        1.0  0.772147302399837  0.6989841511892649  0.7716980233650619  1.0000
  H   H10       1.0  0.30102205630219464  0.2278543996327115  0.7282987881449969  1.0000
  H   H11       1.0  0.22785285805663594  0.3010197756306924  0.22830031096381023  1.0000
  H   H12       1.0  0.6989821359211561  0.7721471158596316  0.27170110954002524  1.0000
  H   H13       1.0  0.8642684093524837  0.467495566394092  0.7305305304224492  1.0000
  H   H14       1.0  0.532505958371928  0.13573067774207453  0.7694680231536993  1.0000
  H   H15       1.0  0.1357289033060596  0.5325047501812888  0.2694706550722685  1.0000
  H   H16       1.0  0.4674949304165778  0.8642684224427838  0.23053247072422073  1.0000
  H   H17       1.0  0.35391627879918985  0.06494081898159008  0.0095348400215656  1.0000
  H   H18       1.0  0.9350621018394489  0.646082615674693  0.49046554469257597  1.0000
  H   H19       1.0  0.6460835680813799  0.9350582866112587  0.9904663830677908  1.0000
  H   H20       1.0  0.06493921643212991  0.35391526342571916  0.5095334093812057  1.0000
  H   H21       1.0  0.15863940853260755  0.8817457903279332  0.1602788886959559  1.0000
  H   H22       1.0  0.1182557465627027  0.8413602550627957  0.3397216445731672  1.0000
  H   H23       1.0  0.8413591132833674  0.11825694191196588  0.8397216411179118  1.0000
  H   H24       1.0  0.8817430427176163  0.15863884024962965  0.6602780308613917  1.0000
  C   C1        1.0  0.86514051395703  0.015108199285087697  0.41416069791620197  1.0000
  C   C2        1.0  0.9848902370110862  0.13485652641279694  0.0858387385066237  1.0000
  C   C3        1.0  0.13485949494226185  0.9848933221507893  0.5858398397483313  1.0000
  C   C4        1.0  0.015108379788976573  0.8651401425976528  0.9141601044419263  1.0000
  C   C5        1.0  0.8385588431584168  0.13686287055830346  0.380902467062974  1.0000
  C   C6        1.0  0.8631360622137195  0.1614401646282388  0.11909759996113681  1.0000
  C   C7        1.0  0.16144160045471517  0.8631374350225939  0.6190972897528368  1.0000
  C   C8        1.0  0.13686439186094648  0.8385601514116061  0.8809036747655057  1.0000
  C   C9        1.0  0.7355071510143175  0.60847669943697  0.7086154392580611  1.0000
  C   C10       1.0  0.39152251343939787  0.2644904299738471  0.791380369726717  1.0000
  C   C11       1.0  0.26449178459242245  0.39152479603006174  0.29138127388542057  1.0000
  C   C12       1.0  0.6084777733857791  0.7355074649934963  0.20862083146933236  1.0000
  C   C13       1.0  0.7814743289535925  0.49355878030988976  0.6878996463969571  1.0000
  C   C14       1.0  0.5064421158460065  0.21852299121922408  0.8120994524409256  1.0000
  C   C15       1.0  0.21852552315774423  0.5064403305124329  0.31210233564782197  1.0000
  C   C16       1.0  0.49355756378507437  0.781473693301123  0.18790169711785154  1.0000
  C   C17       1.0  0.37200878660343767  0.08346134620527579  0.09166341415770772  1.0000
  C   C18       1.0  0.9165409851548815  0.6279894806174012  0.4083361767608977  1.0000
  C   C19       1.0  0.6279901646956033  0.9165401649501701  0.9083355758520214  1.0000
  C   C20       1.0  0.08345928597798741  0.3720083986615207  0.591662747568904  1.0000
  C   C21       1.0  0.2745505937774269  0.9933411814908979  0.16673837257967256  1.0000
  C   C22       1.0  0.006660043391676033  0.725447299872748  0.3332613486478806  1.0000
  C   C23       1.0  0.7254453938165213  0.0066627617315261995  0.8332621196395494  1.0000
  C   C24       1.0  0.9933375262696841  0.27454936931621887  0.6667374645566966  1.0000
  N   N1        1.0  0.6987728239820115  0.1139619755969861  0.4176426356421601  1.0000
  N   N2        1.0  0.8860374403739185  0.30122631062151584  0.08235577533508122  1.0000
  N   N3        1.0  0.30122822159444945  0.8860395352014336  0.5823564138555213  1.0000
  N   N4        1.0  0.11396406607022394  0.6987740104692787  0.91764628809095  1.0000
  N   N5        1.0  0.6428049265388721  0.9833118155625229  0.4711846213762883  1.0000
  N   N6        1.0  0.016687476729529686  0.3571926089420501  0.0288140225253812  1.0000
  N   N7        1.0  0.3571940352217099  0.0166897060518707  0.5288158865442726  1.0000
  N   N8        1.0  0.9833134120589762  0.6428064912428155  0.9711864713525387  1.0000
  N   N9        1.0  0.7408502345058565  0.9211105803482055  0.4704831506629077  1.0000
  N   N10       1.0  0.07888765137268185  0.25914654002702514  0.0295164141041511  1.0000
  N   N11       1.0  0.25914978485496937  0.0788909515466116  0.5295189049124575  1.0000
  N   N12       1.0  0.921111572621484  0.7408513394304135  0.9704824804816782  1.0000
  N   N13       1.0  0.697786791126262  0.40747406974604417  0.6004055689844492  1.0000
  N   N14       1.0  0.5925247759934393  0.3022091981467341  0.8995941956514104  1.0000
  N   N15       1.0  0.3022103490520252  0.5925238205273686  0.3995947840242664  1.0000
  N   N16       1.0  0.4074738617296986  0.6977874917815967  0.10040768311880302  1.0000
  N   N17       1.0  0.6052349580582755  0.46799177284952975  0.5692681829607409  1.0000
  N   N18       1.0  0.5320094386055558  0.3947626425832667  0.9307307316303267  1.0000
  N   N19       1.0  0.39476608228741833  0.532009732719416  0.4307301075815247  1.0000
  N   N20       1.0  0.4679891991175822  0.6052340473450711  0.0692711471398866  1.0000
  N   N21       1.0  0.6258144484762341  0.5900501431206847  0.6329698440777423  1.0000
  N   N22       1.0  0.4099523230710743  0.3741850679380221  0.8670282664353834  1.0000
  N   N23       1.0  0.374187193832789  0.40995256766577626  0.367027739146387  1.0000
  N   N24       1.0  0.5900496180869084  0.6258140372978002  0.1329730161419249  1.0000
  N   N25       1.0  0.3528386377548074  0.068861804716903  0.2578736285341137  1.0000
  N   N26       1.0  0.9311399046927562  0.6471608401078867  0.24212597300500252  1.0000
  N   N27       1.0  0.6471594388857936  0.9311421329190281  0.7421261642176376  1.0000
  N   N28       1.0  0.06885827216269998  0.3528370395280689  0.7578728918368542  1.0000
  N   N29       1.0  0.4922896298538006  0.19918475678920794  0.23859849423617877  1.0000
  N   N30       1.0  0.8008172748257181  0.5077099915910565  0.2614011327231154  1.0000
  N   N31       1.0  0.5077093266760142  0.8008167595957116  0.7614012547289664  1.0000
  N   N32       1.0  0.19918299630715802  0.4922878876878725  0.7385977916066935  1.0000
  N   N33       1.0  0.5068316006127773  0.21134886696780336  0.1386498629728266  1.0000
  N   N34       1.0  0.7886524707106517  0.49316795496540067  0.36134974557549543  1.0000
  N   N35       1.0  0.49316823580625874  0.7886502281661052  0.8613498422057051  1.0000
  N   N36       1.0  0.21134780042221724  0.5068299243135285  0.6386491787543137  1.0000
