data_image0
_chemical_formula_structural       CdH24C34Br2N12
_chemical_formula_sum              "Cd1 H24 C34 Br2 N12"
_cell_length_a       8.210659650613227
_cell_length_b       8.568838895481685
_cell_length_c       13.105942420124622
_cell_angle_alpha    99.34004275612182
_cell_angle_beta     97.77179606421241
_cell_angle_gamma    113.84966645150433

_space_group_name_H-M_alt    "P 1"
_space_group_IT_number       1

loop_
  _space_group_symop_operation_xyz
  'x, y, z'

loop_
  _atom_site_type_symbol
  _atom_site_label
  _atom_site_symmetry_multiplicity
  _atom_site_fract_x
  _atom_site_fract_y
  _atom_site_fract_z
  _atom_site_occupancy
  Cd  Cd1       1.0  0.4999984557145822  0.5000011127519528  0.4999998534054696  1.0000
  H   H1        1.0  0.4816639177055038  0.30634655949810974  0.10813199278807419  1.0000
  H   H2        1.0  0.5183349758454411  0.6936491131476571  0.8918686955084919  1.0000
  H   H3        1.0  0.23630737164134533  0.0112487588126271  0.013094562939635108  1.0000
  H   H4        1.0  0.7636921023164831  0.9887482390685206  0.9869032647320067  1.0000
  H   H5        1.0  0.4590439639626496  0.013505971557187002  0.7483185924898378  1.0000
  H   H6        1.0  0.5409572307197976  0.9864975885834255  0.2516808506207226  1.0000
  H   H7        1.0  0.7151669194791456  0.30734802226739794  0.8310907411305095  1.0000
  H   H8        1.0  0.2848336851650829  0.6926542236894094  0.16890851093132397  1.0000
  H   H9        1.0  0.0728426747266795  0.10033486139574418  0.1141902451743633  1.0000
  H   H10       1.0  0.9271561128207042  0.8996660589547999  0.8858102389524658  1.0000
  H   H11       1.0  0.2743039753681629  0.366580600627664  0.25815883037611087  1.0000
  H   H12       1.0  0.7256942221410017  0.6334190055390679  0.7418414627020055  1.0000
  H   H13       1.0  0.2918913388225802  0.06758243653469982  0.4741235362411516  1.0000
  H   H14       1.0  0.708108088153054  0.9324171782916013  0.5258760966416531  1.0000
  H   H15       1.0  0.09730344609707942  0.7888109072286866  0.3406738542153462  1.0000
  H   H16       1.0  0.9026959832863852  0.2111887048347114  0.6593265415858625  1.0000
  H   H17       1.0  0.6532446415402832  0.6455502942170384  0.28259494837740107  1.0000
  H   H18       1.0  0.34675354633754546  0.35444932300127613  0.7174022930270707  1.0000
  H   H19       1.0  0.7739768200820053  0.33513183867985674  0.4623211820527118  1.0000
  H   H20       1.0  0.22602314994963985  0.6648717072753954  0.5376804470899685  1.0000
  H   H21       1.0  0.9442761142114408  0.2528714954968692  0.33398342689288535  1.0000
  H   H22       1.0  0.05572267574376601  0.747129422090772  0.6660178201523548  1.0000
  H   H23       1.0  0.9720665820007497  0.3810697555040433  0.17366047102402854  1.0000
  H   H24       1.0  0.02793225975232617  0.6189285396126607  0.8263404966468713  1.0000
  C   C1        1.0  0.6234075668625751  0.3311601848339265  0.978140189910789  1.0000
  C   C2        1.0  0.3765961999798648  0.6688381366323455  0.021860425734111285  1.0000
  C   C3        1.0  0.48507997330263203  0.24604504135392347  0.02920122735739028  1.0000
  C   C4        1.0  0.5149244353758962  0.7539519718252096  0.9707992999618895  1.0000
  C   C5        1.0  0.3460210611141222  0.081421746016332  0.9757015023473982  1.0000
  C   C6        1.0  0.6539814172404875  0.9185791975500095  0.02429776411192102  1.0000
  C   C7        1.0  0.4689560299027633  0.08115578245901389  0.8288175564328596  1.0000
  C   C8        1.0  0.5310476851418146  0.9188451614782027  0.17118333858638118  1.0000
  C   C9        1.0  0.6139580906789418  0.24497737152132262  0.875245087553992  1.0000
  C   C10       1.0  0.38604439008350505  0.7550235692821159  0.12475494182373834  1.0000
  C   C11       1.0  0.7677510028678327  0.5091419874259913  0.022172150908971757  1.0000
  C   C12       1.0  0.2322496559820948  0.49085763329697574  0.9778275846969319  1.0000
  C   C13       1.0  0.9565370603596008  0.7677206498641737  0.12617497974491693  1.0000
  C   C14       1.0  0.043461137149563504  0.23227895630256512  0.8738253133331924  1.0000
  C   C15       1.0  0.06532037836478108  0.9199723686965271  0.2147303291607229  1.0000
  C   C16       1.0  0.9346790486108532  0.0800272461297737  0.7852693037220817  1.0000
  C   C17       1.0  0.1195570236469266  0.08680000516132942  0.19260695949770218  1.0000
  C   C18       1.0  0.8804411714544002  0.913199603768305  0.8073925706620031  1.0000
  C   C19       1.0  0.2312143996372171  0.2352012767318428  0.2725854989336014  1.0000
  C   C20       1.0  0.7687880787173994  0.7647996668344916  0.7274137675257178  1.0000
  C   C21       1.0  0.2372681154602034  0.06867665566848301  0.39368971516775275  1.0000
  C   C22       1.0  0.7627319039614733  0.9313242705787202  0.6063108716821829  1.0000
  C   C23       1.0  0.12648325288203197  0.9123458253020613  0.3181563284629119  1.0000
  C   C24       1.0  0.8735179960061147  0.08765510960471092  0.6818435981917118  1.0000
  C   C25       1.0  0.8171328465597724  0.523421567281595  0.21791106062804025  1.0000
  C   C26       1.0  0.18286417087295356  0.47657541051753344  0.7820888503526289  1.0000
  C   C27       1.0  0.7220126446910556  0.5610858730188042  0.2917205035035053  1.0000
  C   C28       1.0  0.2779867774689109  0.4389137473332879  0.708277603542477  1.0000
  C   C29       1.0  0.7898205027963033  0.386463185815778  0.3913656020245284  1.0000
  C   C30       1.0  0.21017764291499222  0.6135390428218982  0.6086349704279286  1.0000
  C   C31       1.0  0.8836730769988678  0.3414990133143831  0.32027286363157265  1.0000
  C   C32       1.0  0.11632571295634614  0.6585019042732582  0.6797283834136748  1.0000
  C   C33       1.0  0.8984728193141719  0.4111413223048571  0.2313203190473344  1.0000
  C   C34       1.0  0.10152784435142341  0.5888582928923185  0.7686809423953916  1.0000
  Br  Br1       1.0  0.39547918206945815  0.693378361640477  0.3850513273982584  1.0000
  Br  Br2       1.0  0.6045152680189362  0.30662384930719366  0.6149489368848933  1.0000
  N   N1        1.0  0.33572261162905903  0.9989897880608541  0.8771507462510825  1.0000
  N   N2        1.0  0.6642786324434267  0.0010111523717099991  0.12284765456672628  1.0000
  N   N3        1.0  0.845386466304511  0.6158648420136431  0.9616111777568506  1.0000
  N   N4        1.0  0.1546117287968229  0.3841347669159915  0.038388352402854764  1.0000
  N   N5        1.0  0.9614774966474045  0.7756781684145224  0.026062974418067545  1.0000
  N   N6        1.0  0.03851946657962907  0.22432143461844586  0.9739364530185312  1.0000
  N   N7        1.0  0.8356101195870307  0.599462507652639  0.12780445124614903  1.0000
  N   N8        1.0  0.164389946816847  0.40053580164941854  0.8721943303926238  1.0000
  N   N9        1.0  0.28888010696691413  0.22758799473384525  0.3721605930985277  1.0000
  N   N10       1.0  0.7111180881344198  0.7724116141957894  0.6278389370611706  1.0000
  N   N11       1.0  0.7096364131676509  0.4934320254202049  0.37730592965467474  1.0000
  N   N12       1.0  0.290361725320146  0.5065702115061584  0.6226923540425487  1.0000
