data_image0
_chemical_formula_structural       Li4H32C16Cl4O8
_chemical_formula_sum              "Li4 H32 C16 Cl4 O8"
_cell_length_a       7.090228085000752
_cell_length_b       7.626429902000698
_cell_length_c       11.373913047000428
_cell_angle_alpha    90.00001742146442
_cell_angle_beta     90.00002651569335
_cell_angle_gamma    89.99995435199783

_space_group_name_H-M_alt    "P 1"
_space_group_IT_number       1

loop_
  _space_group_symop_operation_xyz
  'x, y, z'

loop_
  _atom_site_type_symbol
  _atom_site_label
  _atom_site_symmetry_multiplicity
  _atom_site_fract_x
  _atom_site_fract_y
  _atom_site_fract_z
  _atom_site_occupancy
  Li  Li1       1.0  0.865481283375843  0.1282759607520063  0.035666843916288805  1.0000
  Li  Li2       1.0  0.6345181974340193  0.8717236258430106  0.5356663136035493  1.0000
  Li  Li3       1.0  0.1345188458926074  0.6282756774510716  0.4643328060237409  1.0000
  Li  Li4       1.0  0.36548209105593804  0.3717231590689352  0.9643331187422461  1.0000
  H   H1        1.0  0.07545463636588319  0.023345158382284105  0.2500054414348725  1.0000
  H   H2        1.0  0.42454614266724633  0.9766548934785036  0.7500032586933046  1.0000
  H   H3        1.0  0.9245469934519049  0.5233468180173659  0.24999594523528404  1.0000
  H   H4        1.0  0.5754540556650839  0.4766541756959769  0.7499970745375251  1.0000
  H   H5        1.0  0.8956592136970585  0.8681215268053464  0.28937292618353183  1.0000
  H   H6        1.0  0.6043376332564989  0.1318794845262588  0.789373113441961  1.0000
  H   H7        1.0  0.10433929910171  0.3681211394428773  0.21062677331150337  1.0000
  H   H8        1.0  0.3956614509186097  0.6318788948008134  0.7106271485535915  1.0000
  H   H9        1.0  0.0019493250196376  0.021252512100915097  0.4685054304683193  1.0000
  H   H10       1.0  0.49804879421893844  0.9787463262865828  0.9685041487289255  1.0000
  H   H11       1.0  0.9980508962046174  0.521252708449957  0.03149507656421951  1.0000
  H   H12       1.0  0.501951402316422  0.47874556504844895  0.5314961849340136  1.0000
  H   H13       1.0  0.9554925832918998  0.23025688520295529  0.40215463500378223  1.0000
  H   H14       1.0  0.54450716754274  0.7697402428962405  0.902153178252192  1.0000
  H   H15       1.0  0.044507458353017205  0.7302591268935146  0.09784679441688131  1.0000
  H   H16       1.0  0.45549320857229253  0.26974085689338523  0.5978471122275124  1.0000
  H   H17       1.0  0.6386733895335654  0.3089281417508332  0.3616417148364449  1.0000
  H   H18       1.0  0.861324921057772  0.6910729019121361  0.8616394547139311  1.0000
  H   H19       1.0  0.36132799490892603  0.808927545057664  0.1383588516337468  1.0000
  H   H20       1.0  0.13867411225734122  0.19107245685362534  0.6383599403068702  1.0000
  H   H21       1.0  0.45396008783548336  0.15529276658800478  0.3971140727206759  1.0000
  H   H22       1.0  0.04603938919498061  0.8447073510891769  0.8971152695180464  1.0000
  H   H23       1.0  0.5460400182193939  0.6552920175683357  0.1028838243915473  1.0000
  H   H24       1.0  0.9539595121149136  0.34470891032867  0.602884157245839  1.0000
  H   H25       1.0  0.5699333933135476  0.9494624494173963  0.2465213199829961  1.0000
  H   H26       1.0  0.9300676532428226  0.05053985397094611  0.7465224643180903  1.0000
  H   H27       1.0  0.4300692807707094  0.4494631518250856  0.253476637909074  1.0000
  H   H28       1.0  0.0699329112124829  0.5505382128184237  0.7534777808717266  1.0000
  H   H29       1.0  0.5292100535149658  0.157676505009853  0.1778632429925011  1.0000
  H   H30       1.0  0.9707923528462813  0.8423270788905056  0.6778645627581668  1.0000
  H   H31       1.0  0.4707928712763233  0.6576745984414458  0.32213553381742344  1.0000
  H   H32       1.0  0.029206550510444605  0.3423254856907646  0.822135742718487  1.0000
  C   C1        1.0  0.9318163870055828  0.0085489359185118  0.2845521622122078  1.0000
  C   C2        1.0  0.5681818667885852  0.9914507620263251  0.7845525165600692  1.0000
  C   C3        1.0  0.06818384513307052  0.5085499015027183  0.21544746299079523  1.0000
  C   C4        1.0  0.4318169084388331  0.49145144612741387  0.7154486989326119  1.0000
  C   C5        1.0  0.9133134650394864  0.09108693411419469  0.4049320227526323  1.0000
  C   C6        1.0  0.5866848774494073  0.9089115064578266  0.9049314862202069  1.0000
  C   C7        1.0  0.08668669618109702  0.5910891434020444  0.0950676195039222  1.0000
  C   C8        1.0  0.41331537908849475  0.4089121503708669  0.5950697122189866  1.0000
  C   C9        1.0  0.5984406119704246  0.16928352468417532  0.36364276489887715  1.0000
  C   C10       1.0  0.9015605208802172  0.830716208643885  0.8636423037331014  1.0000
  C   C11       1.0  0.4015608924553362  0.6692842086031944  0.13635689351416153  1.0000
  C   C12       1.0  0.09843839245186811  0.3307157924132866  0.6363571201398273  1.0000
  C   C13       1.0  0.6156967469866714  0.08765289768224699  0.2428479195616333  1.0000
  C   C14       1.0  0.8843028864718506  0.9123467816037802  0.7428474702458416  1.0000
  C   C15       1.0  0.3843034171848601  0.587654959621972  0.2571526011902847  1.0000
  C   C16       1.0  0.11569595672324341  0.41234509543745196  0.7571528496977893  1.0000
  Cl  Cl1       1.0  0.6904631785384652  0.3690258420829694  0.9740369500945931  1.0000
  Cl  Cl2       1.0  0.8095366252578772  0.6309739406352435  0.47403756801011815  1.0000
  Cl  Cl3       1.0  0.30953570187797663  0.869025233365534  0.5259633608984801  1.0000
  Cl  Cl4       1.0  0.1904635016926335  0.1309747182619034  0.025963840897247802  1.0000
  O   O1        1.0  0.8077540200264933  0.09468887513969551  0.20175566992593735  1.0000
  O   O2        1.0  0.6922455831551491  0.9053120969915297  0.7017551633321945  1.0000
  O   O3        1.0  0.1922475484916859  0.5946897861151897  0.2982439730748965  1.0000
  O   O4        1.0  0.30775044529966067  0.40531159855820686  0.798244275952797  1.0000
  O   O5        1.0  0.7204974026526118  0.08058799977405331  0.44599086213438716  1.0000
  O   O6        1.0  0.7795023804801815  0.9194104591670184  0.9459912630211919  1.0000
  O   O7        1.0  0.2795027675894061  0.5805887370207756  0.05400877795279511  1.0000
  O   O8        1.0  0.22049786703630056  0.4194125383830851  0.5540099375873737  1.0000
