data_image0
_chemical_formula_structural       Ag2H16C16S4N8O16
_chemical_formula_sum              "Ag2 H16 C16 S4 N8 O16"
_cell_length_a       7.192180606294849
_cell_length_b       8.695774024005393
_cell_length_c       12.51070753367882
_cell_angle_alpha    82.56898528262174
_cell_angle_beta     73.30599923352673
_cell_angle_gamma    65.5649097736676

_space_group_name_H-M_alt    "P 1"
_space_group_IT_number       1

loop_
  _space_group_symop_operation_xyz
  'x, y, z'

loop_
  _atom_site_type_symbol
  _atom_site_label
  _atom_site_symmetry_multiplicity
  _atom_site_fract_x
  _atom_site_fract_y
  _atom_site_fract_z
  _atom_site_occupancy
  Ag  Ag1       1.0  0.9680764498778638  0.7499717362211199  0.7499768442613259  1.0000
  Ag  Ag2       1.0  0.03193884550921675  0.25002989194078407  0.2500117802646713  1.0000
  H   H1        1.0  0.16714755434374265  0.014058460491384  0.742215008763317  1.0000
  H   H2        1.0  0.42349312804448436  0.4859771604273959  0.7577710754649163  1.0000
  H   H3        1.0  0.8328046038080856  0.9859595882881321  0.2578591584142913  1.0000
  H   H4        1.0  0.5765484002570533  0.5140113303216011  0.2421833644728366  1.0000
  H   H5        1.0  0.5105289891359066  0.0143325987747005  0.748391218831614  1.0000
  H   H6        1.0  0.7733877344540974  0.48563451668223223  0.7514823597488984  1.0000
  H   H7        1.0  0.48944235704699  0.9856842112773664  0.2516847080186864  1.0000
  H   H8        1.0  0.22666903119773715  0.5143563220220814  0.2484599676375581  1.0000
  H   H9        1.0  0.04103726165887901  0.37215019692929724  0.8277357178595324  1.0000
  H   H10       1.0  0.7409768098297606  0.127831966264857  0.6722545901379533  1.0000
  H   H11       1.0  0.9589002046333733  0.627948581279725  0.1722437053389001  1.0000
  H   H12       1.0  0.2590860300100603  0.8720724261263301  0.32773727050715007  1.0000
  H   H13       1.0  0.9341465337862052  0.7993474593622095  0.99324670703151  1.0000
  H   H14       1.0  0.22664362782444447  0.7006189622833006  0.5067270144520251  1.0000
  H   H15       1.0  0.06578005869461387  0.2007322440240458  0.006724218919963207  1.0000
  H   H16       1.0  0.7734102974893634  0.2992905770385406  0.493271169569269  1.0000
  C   C1        1.0  0.3011685054940264  0.8955331634647263  0.7460308355904887  1.0000
  C   C2        1.0  0.4427907125510658  0.6044877298246903  0.7539191128633504  1.0000
  C   C3        1.0  0.6988149316350629  0.1044704410184778  0.25400620575672417  1.0000
  C   C4        1.0  0.5572337632578909  0.3955162291478089  0.2460562060696674  1.0000
  C   C5        1.0  0.4946920707529974  0.8953589274882532  0.7471970555434099  1.0000
  C   C6        1.0  0.6373825148084934  0.604625204186334  0.7526573470274727  1.0000
  C   C7        1.0  0.505310560787386  0.10464082407777651  0.2528357917402673  1.0000
  C   C8        1.0  0.36265584763692277  0.3953799746316448  0.24731506559053432  1.0000
  C   C9        1.0  0.02120434191331824  0.42955013469089914  0.904962679676082  1.0000
  C   C10       1.0  0.8556905588320878  0.07042996962657358  0.5950286672473268  1.0000
  C   C11       1.0  0.9787429865911436  0.57052216446494  0.09502032294550129  1.0000
  C   C12       1.0  0.14436048785847816  0.9294820351260853  0.40496532800294455  1.0000
  C   C13       1.0  0.9631058748345759  0.6658395181882851  0.9970590991753029  1.0000
  C   C14       1.0  0.12597509739559645  0.8341539930092877  0.5029089413089665  1.0000
  C   C15       1.0  0.03683719692695323  0.3342340338337025  0.0029231694588745163  1.0000
  C   C16       1.0  0.8740643292599304  0.16576421905082128  0.49707754141829247  1.0000
  S   S1        1.0  0.6405952691142431  0.15817511926868377  0.9167255925087899  1.0000
  S   S2        1.0  0.2155938023720054  0.3416733122587204  0.5832454931584365  1.0000
  S   S3        1.0  0.35935805387283204  0.8419187707290517  0.08326515520994353  1.0000
  S   S4        1.0  0.7844277604004334  0.6582378925737374  0.4167799394881514  1.0000
  N   N1        1.0  0.2782935900289375  0.7500163216373038  0.7500237508330301  1.0000
  N   N2        1.0  0.7216896246119405  0.24998063419365474  0.24999069780199787  1.0000
  N   N3        1.0  0.6604044639690946  0.7500022498388502  0.7498994557962674  1.0000
  N   N4        1.0  0.33963402180269503  0.2500033090258568  0.2500988383587739  1.0000
  N   N5        1.0  0.9838453598051092  0.5936815380957939  0.9038001790540094  1.0000
  N   N6        1.0  0.9812534434936001  0.9062739537827725  0.5961474687306989  1.0000
  N   N7        1.0  0.01612260242226437  0.40638567542746534  0.09618072388955312  1.0000
  N   N8        1.0  0.018799818125536816  0.09363672200980488  0.4038420699491923  1.0000
  O   O1        1.0  0.5070063086374291  0.07387679545836791  0.022391864747071128  1.0000
  O   O2        1.0  0.10337843418142287  0.42625450244450747  0.47757502525742984  1.0000
  O   O3        1.0  0.4930086792247442  0.9261805865449729  0.9776079995812738  1.0000
  O   O4        1.0  0.8966874010189091  0.5736893779932758  0.5224388597731391  1.0000
  O   O5        1.0  0.847256872239818  0.021873049001158096  0.8750307368260267  1.0000
  O   O6        1.0  0.24388883366221162  0.47793472235828466  0.6252252017283766  1.0000
  O   O7        1.0  0.15269928930668208  0.9782380797073742  0.12492947160131251  1.0000
  O   O8        1.0  0.7561296964109373  0.521957950172826  0.37482871214888286  1.0000
  O   O9        1.0  0.5163268957141728  0.21847607026273863  0.8341945894012497  1.0000
  O   O10       1.0  0.06924866507335999  0.2810477012529091  0.6655858451986704  1.0000
  O   O11       1.0  0.483568540173252  0.78161318685968  0.1658245607188604  1.0000
  O   O12       1.0  0.9307419082535308  0.7188644276444477  0.3344163497190422  1.0000
  O   O13       1.0  0.6383698606458316  0.28682915605929077  0.9805641815061676  1.0000
  O   O14       1.0  0.40600785143659857  0.2132704783277859  0.5193243346524524  1.0000
  O   O15       1.0  0.3615945315464019  0.7132659739346608  0.019425020295670944  1.0000
  O   O16       1.0  0.5940152972983201  0.7866432748873036  0.4807025769975867  1.0000
