data_image0
_chemical_formula_structural       ZnH16C18N14O2
_chemical_formula_sum              "Zn1 H16 C18 N14 O2"
_cell_length_a       7.3901930746996465
_cell_length_b       7.599831881225681
_cell_length_c       9.396299927976598
_cell_angle_alpha    99.28203269801466
_cell_angle_beta     97.15176082490689
_cell_angle_gamma    110.42707082449722

_space_group_name_H-M_alt    "P 1"
_space_group_IT_number       1

loop_
  _space_group_symop_operation_xyz
  'x, y, z'

loop_
  _atom_site_type_symbol
  _atom_site_label
  _atom_site_symmetry_multiplicity
  _atom_site_fract_x
  _atom_site_fract_y
  _atom_site_fract_z
  _atom_site_occupancy
  Zn  Zn1       1.0  0.4999983826539421  0.4999980494968953  0.5000003396514074  1.0000
  H   H1        1.0  0.7325997340463034  0.8813402981992694  0.4700265625873641  1.0000
  H   H2        1.0  0.2673976056704959  0.11865725877266442  0.5299722415943577  1.0000
  H   H3        1.0  0.8148784841914537  0.7338622496665296  0.3861198128462035  1.0000
  H   H4        1.0  0.18512132794541  0.2661381868903661  0.6138796279084175  1.0000
  H   H5        1.0  0.38128492191488306  0.0479458002083817  0.2807300563475934  1.0000
  H   H6        1.0  0.6187129618893509  0.9520531868953697  0.719270058754425  1.0000
  H   H7        1.0  0.4674564332058751  0.5825962904317735  0.17487643905647585  1.0000
  H   H8        1.0  0.5325439028041004  0.41740555769273147  0.8251264366460375  1.0000
  H   H9        1.0  0.10235743865460022  0.08876235221168119  0.8167225654279091  1.0000
  H   H10       1.0  0.8976410094513982  0.9112380835881027  0.18327673656681037  1.0000
  H   H11       1.0  0.9224248324782921  0.7818697519336126  0.633672954622206  1.0000
  H   H12       1.0  0.0775755237460132  0.21813211475510028  0.36632779705271185  1.0000
  H   H13       1.0  0.15566987594269227  0.48118171560881245  0.9112761710292997  1.0000
  H   H14       1.0  0.8443285721633063  0.5188187201909713  0.08872313096541973  1.0000
  H   H15       1.0  0.33717712905781383  0.7877015296576103  0.09415374791611694  1.0000
  H   H16       1.0  0.6628251656062787  0.2123017957663649  0.905845267397609  1.0000
  C   C1        1.0  0.3845655413303037  0.15894357630410377  0.22072487328390616  1.0000
  C   C2        1.0  0.6154342505922444  0.8410568416885765  0.7792766914983104  1.0000
  C   C3        1.0  0.423056026923888  0.42871454747225357  0.16390228338114096  1.0000
  C   C4        1.0  0.5769456832241248  0.5712873106914742  0.8360996690674795  1.0000
  C   C5        1.0  0.22690884693150082  0.9555371531175609  0.9673526215865987  1.0000
  C   C6        1.0  0.7730914991856394  0.044464704289048  0.03264919210211297  1.0000
  C   C7        1.0  0.11349226335975272  0.9554138773764792  0.8367509076365565  1.0000
  C   C8        1.0  0.8865061847462458  0.04458655842329758  0.1632483943581633  1.0000
  C   C9        1.0  0.012370210342730644  0.782936137622322  0.7348089977892939  1.0000
  C   C10       1.0  0.9876307101833322  0.21706717776243076  0.26519094077832506  1.0000
  C   C11       1.0  0.022471636238932953  0.6097889315920708  0.760995278425433  1.0000
  C   C12       1.0  0.9775295500359678  0.3902115150040543  0.23900323907529497  1.0000
  C   C13       1.0  0.1432441343950472  0.6138994315275497  0.8906016730310211  1.0000
  C   C14       1.0  0.8567581501618805  0.38610388461432166  0.1093984042964991  1.0000
  C   C15       1.0  0.24468187504504618  0.7857608240532129  0.993716077415506  1.0000
  C   C16       1.0  0.7553165932752818  0.21423963031077878  0.0062811005516180945  1.0000
  C   C17       1.0  0.9048196057511789  0.4267430254173874  0.6581991458086945  1.0000
  C   C18       1.0  0.09518157041655685  0.573257411896627  0.34180043370582774  1.0000
  N   N1        1.0  0.44931568003601535  0.3468030981879408  0.2800055604051933  1.0000
  N   N2        1.0  0.5506846660811251  0.6531987592186682  0.7199962532835256  1.0000
  N   N3        1.0  0.3446500125087724  0.302721989949589  0.03686249426536391  1.0000
  N   N4        1.0  0.6553503437155257  0.697279876739124  0.9631382574095537  1.0000
  N   N5        1.0  0.3205334629314223  0.1305290174631111  0.0745128763499423  1.0000
  N   N6        1.0  0.6794655292620035  0.8694728484684902  0.9254877365650742  1.0000
  N   N7        1.0  0.7330726794757113  0.3874404997045459  0.5646724630270582  1.0000
  N   N8        1.0  0.26692712255399453  0.6125599275702528  0.43532803974135686  1.0000
  N   N9        1.0  0.6705925814607098  0.2004335654409886  0.49821317958512157  1.0000
  N   N10       1.0  0.32940802029810373  0.7995654138948893  0.5017882750504938  1.0000
  N   N11       1.0  0.7980891737644386  0.12949696767528  0.5477967327083064  1.0000
  N   N12       1.0  0.20191006396350272  0.8705020109034789  0.4522045831674147  1.0000
  N   N13       1.0  0.9479121694936838  0.26723016073852784  0.6483775265524157  1.0000
  N   N14       1.0  0.05208845247945957  0.7327688371615649  0.35162180405561116  1.0000
  O   O1        1.0  0.6967875172632462  0.7423741459601628  0.42292769388234314  1.0000
  O   O2        1.0  0.3032117305718601  0.2576248419007072  0.5770725599795765  1.0000
