data_image0
_chemical_formula_structural       V4P2H26C30N6O16
_chemical_formula_sum              "V4 P2 H26 C30 N6 O16"
_cell_length_a       7.888835192155436
_cell_length_b       9.913263725100125
_cell_length_c       11.94288691112182
_cell_angle_alpha    111.79124428928723
_cell_angle_beta     95.48055487635868
_cell_angle_gamma    97.02701868524832

_space_group_name_H-M_alt    "P 1"
_space_group_IT_number       1

loop_
  _space_group_symop_operation_xyz
  'x, y, z'

loop_
  _atom_site_type_symbol
  _atom_site_label
  _atom_site_symmetry_multiplicity
  _atom_site_fract_x
  _atom_site_fract_y
  _atom_site_fract_z
  _atom_site_occupancy
  V   V1        1.0  0.5015993308385019  0.23169586730403313  0.6901699210939826  1.0000
  V   V2        1.0  0.49840041842243477  0.768297535484237  0.30983365451586314  1.0000
  V   V3        1.0  0.0732329518164363  0.16306459363278236  0.377571364664668  1.0000
  V   V4        1.0  0.9267729045482866  0.8369344888410168  0.6224310788468943  1.0000
  P   P1        1.0  0.763951534672465  0.05847278677786251  0.511200708332531  1.0000
  P   P2        1.0  0.23605286032972825  0.9415252113620622  0.48879961799233473  1.0000
  H   H1        1.0  0.0912266807902711  0.1916990018686633  0.7105297992545945  1.0000
  H   H2        1.0  0.9087765672325717  0.8082924633786845  0.2894650018952518  1.0000
  H   H3        1.0  0.537034913121424  0.3556933376102265  0.9623213479469828  1.0000
  H   H4        1.0  0.46296258452759537  0.6443088958975667  0.03768157539762033  1.0000
  H   H5        1.0  0.9045095676854658  0.256612212937938  0.8700430752034549  1.0000
  H   H6        1.0  0.09548897073654669  0.7433814078347181  0.12995044369684186  1.0000
  H   H7        1.0  0.7683873175534401  0.2860488860829875  0.016027575659947474  1.0000
  H   H8        1.0  0.2315983585553596  0.713951183440102  0.9839638465900156  1.0000
  H   H9        1.0  0.6142366035218316  0.37714264865110886  0.19867537332038412  1.0000
  H   H10       1.0  0.3857507343877771  0.6228596273811037  0.8013177025435783  1.0000
  H   H11       1.0  0.24718818194367032  0.5098212673436322  0.26402376901905467  1.0000
  H   H12       1.0  0.7528001299585086  0.4901721557627639  0.7359698703341238  1.0000
  H   H13       1.0  0.4664678548621667  0.14500659941886337  0.3591031172269794  1.0000
  H   H14       1.0  0.5335407349193986  0.8549935695792144  0.6409023629084417  1.0000
  H   H15       1.0  0.044244433283182616  0.09290712117694969  0.10536312583329281  1.0000
  H   H16       1.0  0.9557728136495102  0.9071131156259612  0.8946435023699167  1.0000
  H   H17       1.0  0.6538723375758764  0.06785375815991299  0.20206594083020246  1.0000
  H   H18       1.0  0.3461352722744095  0.9321408800254998  0.7979385345242492  1.0000
  H   H19       1.0  0.3739647395286951  0.4353726180024465  0.13635910837817994  1.0000
  H   H20       1.0  0.6260263922837197  0.5646295845374212  0.8636400484417593  1.0000
  H   H21       1.0  0.2108506810059225  0.006421215418931995  0.9319338231169002  1.0000
  H   H22       1.0  0.7891660678004228  0.9936034078151013  0.06807418466395633  1.0000
  H   H23       1.0  0.07212316698030459  0.5899771346979961  0.43067431908843196  1.0000
  H   H24       1.0  0.9278644463572335  0.41001955266428064  0.5693211634151042  1.0000
  H   H25       1.0  0.7775202867163529  0.5322601931884066  0.3906025303055572  1.0000
  H   H26       1.0  0.2224660823920459  0.4677365920629127  0.6093878794551842  1.0000
  C   C1        1.0  0.1483785586517143  0.24436430237482645  0.8063343007683345  1.0000
  C   C2        1.0  0.8516216193109614  0.7556314448433882  0.19366419439046476  1.0000
  C   C3        1.0  0.3965725816805943  0.3370191476392037  0.9480122364823205  1.0000
  C   C4        1.0  0.603424726660208  0.6629820037251263  0.051989489112734925  1.0000
  C   C5        1.0  0.0445386583168315  0.28071796911449803  0.8978142433549081  1.0000
  C   C6        1.0  0.9554587973590715  0.7192767316112169  0.10217955385778049  1.0000
  C   C7        1.0  0.12212194308471419  0.35032623477896857  0.020537600972644992  1.0000
  C   C8        1.0  0.8778720527845395  0.6496705435988942  0.9794591560721673  1.0000
  C   C9        1.0  0.3033286980061689  0.3790756129440567  0.04406512190740839  1.0000
  C   C10       1.0  0.6966620440597495  0.6209243852771066  0.9559333007356943  1.0000
  C   C11       1.0  0.022205500334585803  0.3930639580227647  0.12318688059466612  1.0000
  C   C12       1.0  0.9777815450783152  0.6069294829091092  0.8768050086602274  1.0000
  C   C13       1.0  0.84103741243284  0.3532167368920867  0.10604571652383042  1.0000
  C   C14       1.0  0.15895186827054178  0.6467821769952024  0.893950588932569  1.0000
  C   C15       1.0  0.7533926085024235  0.4009266368642699  0.2045149551373342  1.0000
  C   C16       1.0  0.2465948433520708  0.5990690684339839  0.7954751763110224  1.0000
  C   C17       1.0  0.013993900481203532  0.5210241721989491  0.33765303960191767  1.0000
  C   C18       1.0  0.9859927774453328  0.47896714447777794  0.6623347928316363  1.0000
  C   C19       1.0  0.10760376296459379  0.47585085395863297  0.2424044080148988  1.0000
  C   C20       1.0  0.8923825504934512  0.5241457311337853  0.7575943083571063  1.0000
  C   C21       1.0  0.41489512948428603  0.11453703664695779  0.26334857390851607  1.0000
  C   C22       1.0  0.5851138500437756  0.8854653366698385  0.7366576404037489  1.0000
  C   C23       1.0  0.17941787657397162  0.0828303778032407  0.12023489748728623  1.0000
  C   C24       1.0  0.8205941511277929  0.9171819972017231  0.8797722174133968  1.0000
  C   C25       1.0  0.51882071452156  0.0689802452443402  0.17321738301600934  1.0000
  C   C26       1.0  0.4811902244953785  0.9310188259752009  0.8267895689053121  1.0000
  C   C27       1.0  0.2739176715006337  0.035610094093549094  0.024986614051272196  1.0000
  C   C28       1.0  0.7260994778086031  0.9644024097683823  0.9750191946312867  1.0000
  C   C29       1.0  0.4483491667761824  0.0261040751438628  0.049922471117881194  1.0000
  C   C30       1.0  0.5516614968128337  0.973900584745607  0.9500820741638664  1.0000
  N   N1        1.0  0.32212123697294703  0.2714791899680122  0.830590858082175  1.0000
  N   N2        1.0  0.6778785568082668  0.7285143729473802  0.1694060722386581  1.0000
  N   N3        1.0  0.8408637695969006  0.48517461008053425  0.3166229083642946  1.0000
  N   N4        1.0  0.15912314517599674  0.5148253415376233  0.6833744172895849  1.0000
  N   N5        1.0  0.246801881465899  0.12031132227698285  0.23745698661485196  1.0000
  N   N6        1.0  0.7532085816848308  0.8796922154372382  0.7625480222396066  1.0000
  O   O1        1.0  0.6280062070885535  0.15905460174737124  0.5547129100909204  1.0000
  O   O2        1.0  0.3719996492761695  0.8409444807264278  0.44528953342064165  1.0000
  O   O3        1.0  0.9273009527798379  0.15093296739808437  0.49684621014990443  1.0000
  O   O4        1.0  0.07270364266064182  0.8490661529170894  0.5031536526022437  1.0000
  O   O5        1.0  0.8180953424726455  0.9961416959847255  0.6074613788247943  1.0000
  O   O6        1.0  0.18190797534848002  0.003857402124147301  0.3925383951513268  1.0000
  O   O7        1.0  0.6856248856211733  0.9341680206388144  0.3868910120483092  1.0000
  O   O8        1.0  0.31437714901557007  0.065831035247875  0.6131095038129075  1.0000
  O   O9        1.0  0.6515265036616213  0.2504626326552781  0.8024227244037194  1.0000
  O   O10       1.0  0.3484736242157425  0.749532934419932  0.19758324670522145  1.0000
  O   O11       1.0  0.48366740851295725  0.3941010093562198  0.6882637527044795  1.0000
  O   O12       1.0  0.5163274195787936  0.6058933867503314  0.31174066555078644  1.0000
  O   O13       1.0  0.1706842321588269  0.33501235823410974  0.44885935451908676  1.0000
  O   O14       1.0  0.829321813514106  0.6649878063831595  0.5511442867420159  1.0000
  O   O15       1.0  0.921673412320878  0.1477109606618754  0.2674915762571005  1.0000
  O   O16       1.0  0.07833560059739143  0.8522915327502575  0.7325096540884033  1.0000
