data_image0
_chemical_formula_structural       Cd4H48C48Br8N8F8
_chemical_formula_sum              "Cd4 H48 C48 Br8 N8 F8"
_cell_length_a       6.872039053066663
_cell_length_b       13.23985149419856
_cell_length_c       15.63038231629895
_cell_angle_alpha    90.00056441782128
_cell_angle_beta     89.99957765256731
_cell_angle_gamma    89.99971981856147

_space_group_name_H-M_alt    "P 1"
_space_group_IT_number       1

loop_
  _space_group_symop_operation_xyz
  'x, y, z'

loop_
  _atom_site_type_symbol
  _atom_site_label
  _atom_site_symmetry_multiplicity
  _atom_site_fract_x
  _atom_site_fract_y
  _atom_site_fract_z
  _atom_site_occupancy
  Cd  Cd1       1.0  0.249993355706458  0.9999976503272453  0.059027252604103395  1.0000
  Cd  Cd2       1.0  0.24999702352135236  0.4999994664619864  0.9409799334041082  1.0000
  Cd  Cd3       1.0  0.7499965453662583  1.5339915861999991e-06  0.9409770529976669  1.0000
  Cd  Cd4       1.0  0.7499972430338103  0.5000012284610023  0.0590275710949655  1.0000
  H   H1        1.0  0.9466238429995997  0.0006477576036943001  0.4140836763952932  1.0000
  H   H2        1.0  0.9466229491924238  0.4993484651365848  0.5859286304077855  1.0000
  H   H3        1.0  0.5533777602143247  0.999349789165045  0.41407501765340976  1.0000
  H   H4        1.0  0.5533801254329589  0.5006518472065411  0.5859260712966614  1.0000
  H   H5        1.0  0.0533733339772198  0.9993559584339241  0.585912951858141  1.0000
  H   H6        1.0  0.053380048379679614  0.5006544956655432  0.4140795138662128  1.0000
  H   H7        1.0  0.446629603044741  0.0006478844621611003  0.5859158525419801  1.0000
  H   H8        1.0  0.44662578246564527  0.49935489006931283  0.4140820729883075  1.0000
  H   H9        1.0  0.3492839281040716  0.7529906659225818  0.3931081072884481  1.0000
  H   H10       1.0  0.3492734251758307  0.7470016679258723  0.6068961992523612  1.0000
  H   H11       1.0  0.1507251664046123  0.24700261323511094  0.39310313005636727  1.0000
  H   H12       1.0  0.150726248193024  0.25300015450822144  0.6068919114969018  1.0000
  H   H13       1.0  0.650723435079506  0.24700474187805108  0.6068929993714036  1.0000
  H   H14       1.0  0.6507222965605308  0.2530005375750052  0.3931093859117851  1.0000
  H   H15       1.0  0.8492851071037181  0.7529980816264727  0.6068973368411006  1.0000
  H   H16       1.0  0.8492825701737632  0.7470043167989292  0.3931027974020296  1.0000
  H   H17       1.0  0.3098806525371884  0.7544301344978241  0.23415045270927948  1.0000
  H   H18       1.0  0.30986457584881333  0.7455668308034976  0.7658533412111835  1.0000
  H   H19       1.0  0.19011511204314496  0.2455695934444364  0.2341466160128576  1.0000
  H   H20       1.0  0.1901265998353523  0.2544315640667848  0.7658508575473559  1.0000
  H   H21       1.0  0.6901092485624645  0.24556904980229902  0.7658506539944054  1.0000
  H   H22       1.0  0.6901093183014454  0.2544383958994275  0.2341509644414685  1.0000
  H   H23       1.0  0.8098849752384892  0.7544333673239552  0.7658551304696744  1.0000
  H   H24       1.0  0.8098807633842499  0.7455676201738376  0.23414385133199994  1.0000
  H   H25       1.0  0.9125930541309517  0.004693741756689502  0.2547274412591349  1.0000
  H   H26       1.0  0.9125967907211248  0.49529954588569336  0.745285615101146  1.0000
  H   H27       1.0  0.5873981362507906  0.9953019408800118  0.2547199187258542  1.0000
  H   H28       1.0  0.5874065105704958  0.5046943223520657  0.7452804206489957  1.0000
  H   H29       1.0  0.08739975735796432  0.9953061978015616  0.7452679074264451  1.0000
  H   H30       1.0  0.08739456548423871  0.5046988831657658  0.2547238087320736  1.0000
  H   H31       1.0  0.4125975856129784  0.0046972433603614016  0.7452722310538177  1.0000
  H   H32       1.0  0.4125935767001678  0.4953018407869295  0.25472644404227646  1.0000
  H   H33       1.0  0.9402120012814379  0.8944620039694515  0.1271225642124989  1.0000
  H   H34       1.0  0.9402099975629811  0.605537898588878  0.8728830346686534  1.0000
  H   H35       1.0  0.5597798828861614  0.10553822831601424  0.12711670686738324  1.0000
  H   H36       1.0  0.5597896996471831  0.39446048348595053  0.8728802137754028  1.0000
  H   H37       1.0  0.05978808607366659  0.10553566969689143  0.8728734242315566  1.0000
  H   H38       1.0  0.0597828138272121  0.3944635516239431  0.1271231902766701  1.0000
  H   H39       1.0  0.440215838949051  0.8944669982882092  0.8728754429373495  1.0000
  H   H40       1.0  0.4402089324855112  0.6055387008031305  0.1271208929141991  1.0000
  H   H41       1.0  0.11812023671224378  0.8113570671412733  0.11693697467620717  1.0000
  H   H42       1.0  0.1181172758420601  0.6886441597234312  0.883069997056694  1.0000
  H   H43       1.0  0.3818673156510357  0.18864884258339032  0.1169301277589696  1.0000
  H   H44       1.0  0.3818762913221221  0.3113525851634123  0.8830673669150713  1.0000
  H   H45       1.0  0.8818754850923368  0.18864438301922354  0.883060933129407  1.0000
  H   H46       1.0  0.881872625171532  0.31135955639448554  0.1169387870211835  1.0000
  H   H47       1.0  0.6181225854793909  0.8113586499183827  0.883062661844164  1.0000
  H   H48       1.0  0.6181150649819641  0.6886443332334696  0.11693118065840478  1.0000
  C   C1        1.0  0.024094392336131396  0.9468451034222842  0.3739749071587042  1.0000
  C   C2        1.0  0.024089765234244002  0.5531435212630315  0.6260304485515602  1.0000
  C   C3        1.0  0.47589756230751595  0.05315852605404101  0.3739666329513653  1.0000
  C   C4        1.0  0.4759037652269598  0.44684946148032634  0.6260286390355174  1.0000
  C   C5        1.0  0.9759086053365709  0.05315936789596521  0.626020441529242  1.0000
  C   C6        1.0  0.9759045014104898  0.44684962066772743  0.37397065812002234  1.0000
  C   C7        1.0  0.5241025250350617  0.9468406582070023  0.6260299952785785  1.0000
  C   C8        1.0  0.5241006875337391  0.553162562824575  0.3739724676979533  1.0000
  C   C9        1.0  0.252858405642101  0.8068680990882772  0.3621066854413114  1.0000
  C   C10       1.0  0.25284934507575235  0.6931229681093646  0.6379011310981326  1.0000
  C   C11       1.0  0.2471395695835028  0.19313463623895902  0.3620964717739241  1.0000
  C   C12       1.0  0.24713961998450887  0.3068656217241  0.6378982586983495  1.0000
  C   C13       1.0  0.7471344058108614  0.19313032990894638  0.6378937814749291  1.0000
  C   C14       1.0  0.7471347353045843  0.3068724397544003  0.36210573361582726  1.0000
  C   C15       1.0  0.752866338426152  0.8068622821507391  0.6379039951149321  1.0000
  C   C16       1.0  0.7528677432225096  0.6931328072322673  0.36209836951672253  1.0000
  C   C17       1.0  0.23050770066393508  0.8084136983983826  0.27340640235175323  1.0000
  C   C18       1.0  0.23049425056891693  0.6915781806323696  0.7266002067514208  1.0000
  C   C19       1.0  0.2694961338972846  0.19157289343512934  0.2734031412500784  1.0000
  C   C20       1.0  0.2695048620405345  0.30842277621588476  0.7265959955150618  1.0000
  C   C21       1.0  0.7694836556561881  0.19157868822935606  0.72659278498255  1.0000
  C   C22       1.0  0.7694854642610807  0.30842780136242004  0.2734047386745927  1.0000
  C   C23       1.0  0.7305039534237423  0.8084262908408847  0.7265960460983292  1.0000
  C   C24       1.0  0.7305112322138568  0.6915748974264773  0.2733993531235582  1.0000
  C   C25       1.0  0.10553168842045581  0.8782074652500999  0.23486656935911293  1.0000
  C   C26       1.0  0.1055269800746075  0.6217839746202432  0.765140442951818  1.0000
  C   C27       1.0  0.39445387789248093  0.12179000520460904  0.2348642454901366  1.0000
  C   C28       1.0  0.3944627525083391  0.37820912481621605  0.7651332085651461  1.0000
  C   C29       1.0  0.8944567575913425  0.12178869782130167  0.7651262201993845  1.0000
  C   C30       1.0  0.8944556450941549  0.378215209737732  0.23486898089861796  1.0000
  C   C31       1.0  0.6055447542528042  0.8782099343687267  0.7651349418637494  1.0000
  C   C32       1.0  0.6055460658744138  0.6217885488428295  0.23486341964444074  1.0000
  C   C33       1.0  0.004683136032078002  0.9481943222194149  0.2852797367496223  1.0000
  C   C34       1.0  0.0046755727209487  0.5517966175047351  0.7147333589590232  1.0000
  C   C35       1.0  0.4953321399216791  0.05179316380471732  0.28527906597233965  1.0000
  C   C36       1.0  0.49533101562114007  0.4482057110865158  0.7147257399789169  1.0000
  C   C37       1.0  0.9953213168826383  0.05180335141147201  0.7147111334504643  1.0000
  C   C38       1.0  0.9953186938000729  0.44820332214897035  0.2852786239942375  1.0000
  C   C39       1.0  0.5046723129463757  0.9482052651515859  0.7147169224678078  1.0000
  C   C40       1.0  0.5046719819815307  0.5517987602803843  0.285277925844035  1.0000
  C   C41       1.0  0.14773312543825767  0.875754483449072  0.41038235146881147  1.0000
  C   C42       1.0  0.14773280491564833  0.6242360943838962  0.5896277235704587  1.0000
  C   C43       1.0  0.3522844092063552  0.12423673187987565  0.410376345351814  1.0000
  C   C44       1.0  0.3522788006592776  0.37576174955668773  0.5896244436781612  1.0000
  C   C45       1.0  0.8522756928961358  0.12424772200157015  0.5896174756576542  1.0000
  C   C46       1.0  0.8522716478554314  0.37576233463976655  0.4103797809027795  1.0000
  C   C47       1.0  0.6477273195082207  0.8757624523701895  0.5896209226389644  1.0000
  C   C48       1.0  0.6477241969469036  0.6242397006357766  0.4103805016914918  1.0000
  Br  Br1       1.0  0.5889484977294189  0.8808675771979895  0.07451591598213979  1.0000
  Br  Br2       1.0  0.5889614864189453  0.6191339692196465  0.925492095760468  1.0000
  Br  Br3       1.0  0.9110559138675924  0.11914790076131963  0.07448920496157999  1.0000
  Br  Br4       1.0  0.911073704178129  0.38084690114809666  0.9254905878017112  1.0000
  Br  Br5       1.0  0.4110646860750933  0.11914444708837382  0.9254839111780127  1.0000
  Br  Br6       1.0  0.41106333891294616  0.38084859852076397  0.07450645169949867  1.0000
  Br  Br7       1.0  0.08895290465211052  0.8808663892486239  0.9254818321322772  1.0000
  Br  Br8       1.0  0.08895694180468182  0.6191334007321887  0.07451371765601068  1.0000
  N   N1        1.0  0.08185097541714008  0.8793905121675608  0.14407292800701293  1.0000
  N   N2        1.0  0.0818476595176421  0.620608540552368  0.855932881177665  1.0000
  N   N3        1.0  0.4181463061839565  0.12060816203030811  0.1440666792291054  1.0000
  N   N4        1.0  0.4181536405267182  0.37939015275210153  0.85592877904498  1.0000
  N   N5        1.0  0.9181520222536222  0.12060867210103514  0.8559256195570837  1.0000
  N   N6        1.0  0.9181495173872494  0.3793921543631954  0.1440739835370977  1.0000
  N   N7        1.0  0.5818465053032753  0.8793955539941153  0.8559267501332926  1.0000
  N   N8        1.0  0.5818449916490138  0.6206067656280896  0.14406848895752225  1.0000
  F   F1        1.0  0.16814118571876688  0.8742640159327453  0.49784594392271225  1.0000
  F   F2        1.0  0.16813068273317106  0.6257317973187073  0.5021576675137993  1.0000
  F   F3        1.0  0.3318748759139183  0.1257327543294338  0.49784129559891  1.0000
  F   F4        1.0  0.33186493380578236  0.37426804462812413  0.5021595592971622  1.0000
  F   F5        1.0  0.8318632670651029  0.12574196601204332  0.5021558025653121  1.0000
  F   F6        1.0  0.8318708597170003  0.3742696528643635  0.4978453585193563  1.0000
  F   F7        1.0  0.6681455838408255  0.8742649193186269  0.5021559723715185  1.0000
  F   F8        1.0  0.6681293327530823  0.6257364267572997  0.49784538609910806  1.0000
