data_image0
_chemical_formula_structural       Cd2H28C40N4O10
_chemical_formula_sum              "Cd2 H28 C40 N4 O10"
_cell_length_a       7.740310482491034
_cell_length_b       10.490595599918256
_cell_length_c       10.49059896397865
_cell_angle_alpha    85.35284709716434
_cell_angle_beta     88.34622285905655
_cell_angle_gamma    88.3459681943814

_space_group_name_H-M_alt    "P 1"
_space_group_IT_number       1

loop_
  _space_group_symop_operation_xyz
  'x, y, z'

loop_
  _atom_site_type_symbol
  _atom_site_label
  _atom_site_symmetry_multiplicity
  _atom_site_fract_x
  _atom_site_fract_y
  _atom_site_fract_z
  _atom_site_occupancy
  Cd  Cd1       1.0  0.0  0.0  0.0  1.0000
  Cd  Cd2       1.0  0.5000000044065658  1.7023337760317675e-07  0.9999996973021862  1.0000
  H   H1        1.0  0.619978736323496  0.32747154102589343  0.10076191098584528  1.0000
  H   H2        1.0  0.8800283890084513  0.8992374860906693  0.672528836048542  1.0000
  H   H3        1.0  0.380022314418177  0.6725278034840655  0.8992380692722645  1.0000
  H   H4        1.0  0.1199726274817436  0.10076280873748536  0.3274720275133872  1.0000
  H   H5        1.0  0.6205875758139429  0.5632716828525232  0.12923908593132438  1.0000
  H   H6        1.0  0.879408830598379  0.87075246499608  0.43673033536887107  1.0000
  H   H7        1.0  0.37941089006821466  0.4367276591901612  0.8707609519090763  1.0000
  H   H8        1.0  0.1205935144006958  0.1292468743698265  0.5632705697884076  1.0000
  H   H9        1.0  0.9875814124950677  0.7255469246358429  0.7728873247327499  1.0000
  H   H10       1.0  0.5124207640067269  0.2271083197852661  0.274451637748271  1.0000
  H   H11       1.0  0.0124195679160053  0.27445432688819693  0.22711346844269537  1.0000
  H   H12       1.0  0.4875815033511728  0.7728929521054936  0.7255462655651072  1.0000
  H   H13       1.0  0.13265415451004256  0.6212484166603786  0.5932877286540472  1.0000
  H   H14       1.0  0.3673543353477484  0.40671318730421285  0.378746031661336  1.0000
  H   H15       1.0  0.8673442771206366  0.37875187570050156  0.40671319249018  1.0000
  H   H16       1.0  0.6326492623466818  0.5932871227466023  0.6212528669376949  1.0000
  H   H17       1.0  0.10732666608991787  0.3863967666764339  0.5774333578488393  1.0000
  H   H18       1.0  0.39267665473128943  0.42257031905160136  0.6135991641218508  1.0000
  H   H19       1.0  0.8926703972974577  0.6136054505979656  0.42256554393294  1.0000
  H   H20       1.0  0.607324358103611  0.5774299885319394  0.38639979205946406  1.0000
  H   H21       1.0  0.9424016756679945  0.25541017999159976  0.7438784819987418  1.0000
  H   H22       1.0  0.5575994207020187  0.2561224924817224  0.7445879102744541  1.0000
  H   H23       1.0  0.057598080816276806  0.7445891696624187  0.25612057336020644  1.0000
  H   H24       1.0  0.4423990812592605  0.743875892865084  0.2554121979524381  1.0000
  H   H25       1.0  0.7460683197454256  0.08215904668811902  0.8092816454924828  1.0000
  H   H26       1.0  0.7539341812910081  0.19071900284631477  0.9178410725376621  1.0000
  H   H27       1.0  0.2539301118852534  0.9178412456727613  0.19071927565173746  1.0000
  H   H28       1.0  0.24606679729242126  0.8092822550554145  0.08215876694747237  1.0000
  C   C1        1.0  0.6911055918567682  0.3927734472639131  0.0336610053891491  1.0000
  C   C2        1.0  0.8088961898553463  0.9663377131103488  0.60722624322932  1.0000
  C   C3        1.0  0.3088941682827908  0.6072258896347194  0.9663399573504134  1.0000
  C   C4        1.0  0.19110227785445486  0.03366162255464641  0.3927747483013916  1.0000
  C   C5        1.0  0.6920779900039591  0.5247108340189539  0.04948362435467862  1.0000
  C   C6        1.0  0.807916801982337  0.9505127334446256  0.47528802822125715  1.0000
  C   C7        1.0  0.307920477705835  0.47528850164604103  0.950517367176033  1.0000
  C   C8        1.0  0.19208295632957828  0.0494866098316962  0.5247119808280017  1.0000
  C   C9        1.0  0.7800066548602516  0.6062569749747552  0.9617769588951358  1.0000
  C   C10       1.0  0.7199899738759967  0.03821504907612901  0.39374357506068236  1.0000
  C   C11       1.0  0.2199930692001857  0.3937433186197623  0.0382239334579424  1.0000
  C   C12       1.0  0.2800110786933203  0.9617842890561406  0.6062573588877384  1.0000
  C   C13       1.0  0.872349008993794  0.5526690666032933  0.8577280021899865  1.0000
  C   C14       1.0  0.6276455147549738  0.14226732588238628  0.4473317825499734  1.0000
  C   C15       1.0  0.1276507168942871  0.44733122061352754  0.14227384385340255  1.0000
  C   C16       1.0  0.37235169477654034  0.8577310582307832  0.5526683544680607  1.0000
  C   C17       1.0  0.972814424443733  0.6240824511134732  0.7629860147053262  1.0000
  C   C18       1.0  0.5271850041466164  0.23700812283679804  0.37591748767192695  1.0000
  C   C19       1.0  0.027185263537575104  0.3759187991769224  0.23701480726126078  1.0000
  C   C20       1.0  0.47281741118306536  0.762989309515035  0.6240826045680166  1.0000
  C   C21       1.0  0.054715735833951784  0.56502251823278  0.6642561970145804  1.0000
  C   C22       1.0  0.44528501894731676  0.33574319839182454  0.43497333861867543  1.0000
  C   C23       1.0  0.9452826615452421  0.4349787244462888  0.33574560743345916  1.0000
  C   C24       1.0  0.5547159578084616  0.6642580658876014  0.5650255471761553  1.0000
  C   C25       1.0  0.04170118737283699  0.4318188571758552  0.6557330057269083  1.0000
  C   C26       1.0  0.45830173073111513  0.3442645830162405  0.5681771959186718  1.0000
  C   C27       1.0  0.9582985348599493  0.5681814427963516  0.34426693293585936  1.0000
  C   C28       1.0  0.5417006485194448  0.6557338060314704  0.43182282593478055  1.0000
  C   C29       1.0  0.9483604318789742  0.3588283685970238  0.7468445471420964  1.0000
  C   C30       1.0  0.5516371955605592  0.2531527303780621  0.6411698017224977  1.0000
  C   C31       1.0  0.05163799792405399  0.6411719301415458  0.2531554203118133  1.0000
  C   C32       1.0  0.4483612305871815  0.7468475811158938  0.3588282583507975  1.0000
  C   C33       1.0  0.8613131129545833  0.41727744148071366  0.8485934853290612  1.0000
  C   C34       1.0  0.6386859422632226  0.15140171186474297  0.5827216345893544  1.0000
  C   C35       1.0  0.1386879377870898  0.5827219030292454  0.1514064949290557  1.0000
  C   C36       1.0  0.36131259394953463  0.8485957231638679  0.41727759033371814  1.0000
  C   C37       1.0  0.7716189049344705  0.7486014699321258  0.978301819035117  1.0000
  C   C38       1.0  0.7283681593956502  0.021696468388839197  0.25139976702841677  1.0000
  C   C39       1.0  0.22838078304684464  0.25139978035826965  0.021699002931470097  1.0000
  C   C40       1.0  0.2716328913460302  0.9783028761211269  0.7486002132297002  1.0000
  N   N1        1.0  0.7693466944166828  0.3409845117108431  0.9360343967413625  1.0000
  N   N2        1.0  0.7306530492961302  0.0639664239800837  0.6590152599694006  1.0000
  N   N3        1.0  0.23065170113487443  0.6590167373459221  0.0639664540163665  1.0000
  N   N4        1.0  0.26934415840774756  0.9360319665107751  0.3409839233583226  1.0000
  O   O1        1.0  0.7500014639965967  0.0935466993675931  0.9064532344682801  1.0000
  O   O2        1.0  0.24999955066595453  0.9064536018382581  0.09354667540334559  1.0000
  O   O3        1.0  0.9084223611942762  0.8091691300291045  0.9476769219301526  1.0000
  O   O4        1.0  0.5915795644019537  0.05231900649360447  0.19083375174464118  1.0000
  O   O5        1.0  0.0915786571235628  0.19083115842135354  0.0523248953220872  1.0000
  O   O6        1.0  0.40842407119924207  0.947680340483629  0.8091661709311848  1.0000
  O   O7        1.0  0.6291224888445653  0.79268257599729  0.020647630132437193  1.0000
  O   O8        1.0  0.8708759435462027  0.9793471229320546  0.20731587106916993  1.0000
  O   O9        1.0  0.37087461427722707  0.20731867182583838  0.9793532494164479  1.0000
  O   O10       1.0  0.1291276559758714  0.020653180741064092  0.7926839812201647  1.0000
