data_image0
_chemical_formula_structural       Cd3P2H28C22N2O14
_chemical_formula_sum              "Cd3 P2 H28 C22 N2 O14"
_cell_length_a       7.696416016112455
_cell_length_b       9.287867891298706
_cell_length_c       9.750002360059227
_cell_angle_alpha    105.09395984288102
_cell_angle_beta     93.20938235050727
_cell_angle_gamma    102.64008349318563

_space_group_name_H-M_alt    "P 1"
_space_group_IT_number       1

loop_
  _space_group_symop_operation_xyz
  'x, y, z'

loop_
  _atom_site_type_symbol
  _atom_site_label
  _atom_site_symmetry_multiplicity
  _atom_site_fract_x
  _atom_site_fract_y
  _atom_site_fract_z
  _atom_site_occupancy
  Cd  Cd1       1.0  0.9465173211791723  0.836842003172791  0.8362427773624717  1.0000
  Cd  Cd2       1.0  0.05348513631900431  0.16315759978294153  0.163758780705507  1.0000
  Cd  Cd3       1.0  0.5000016224779883  0.9999919833641826  0.9999932945867372  1.0000
  P   P1        1.0  0.1492637676336771  0.780369941667374  0.08203770448155723  1.0000
  P   P2        1.0  0.8507357484015898  0.21962851798718225  0.9179624340180864  1.0000
  H   H1        1.0  0.9129946991464948  0.5074922840188734  0.1394269468574478  1.0000
  H   H2        1.0  0.08700613732618481  0.4925061831441794  0.8605752963881557  1.0000
  H   H3        1.0  0.11867379522550447  0.8076003031008555  0.3345949426639692  1.0000
  H   H4        1.0  0.8813273733003513  0.1923993133667565  0.6654075940622945  1.0000
  H   H5        1.0  0.19700092848542997  0.6419176981834981  0.2548817902964515  1.0000
  H   H6        1.0  0.8030002190636907  0.3580819042705201  0.7451186908269847  1.0000
  H   H7        1.0  0.7913704743598445  0.7237247031186343  0.10505460682252023  1.0000
  H   H8        1.0  0.20863190194448583  0.2762702610798229  0.8949406874588349  1.0000
  H   H9        1.0  0.7785995136885049  0.7791492661632803  0.2923779211427302  1.0000
  H   H10       1.0  0.22140190298359394  0.2208514435545297  0.7076166866528839  1.0000
  H   H11       1.0  0.5876556347441025  0.47039593134653773  0.0774318657038791  1.0000
  H   H12       1.0  0.4123448486986804  0.5296013724983767  0.9225680284582226  1.0000
  H   H13       1.0  0.4856836831887961  0.6220470477560981  0.1541541572809493  1.0000
  H   H14       1.0  0.5143187323559103  0.3779525271724538  0.8458432895813671  1.0000
  H   H15       1.0  0.5364616472237529  0.5802481706703092  0.3926878244730503  1.0000
  H   H16       1.0  0.463539840153814  0.4197571707979791  0.6073120193077699  1.0000
  H   H17       1.0  0.7218558090248379  0.3312331877714243  0.24658033612735863  1.0000
  H   H18       1.0  0.27814474512341303  0.6687687478239682  0.7534247940199494  1.0000
  H   H19       1.0  0.7054343761975165  0.3955828052064021  0.4326819600419469  1.0000
  H   H20       1.0  0.29456455421215105  0.6044225772992319  0.5673218966582851  1.0000
  H   H21       1.0  0.9015224796321634  0.6529115070118509  0.447622709057022  1.0000
  H   H22       1.0  0.09847738671991384  0.34709269866376513  0.5523778199014231  1.0000
  H   H23       1.0  0.008490860873244794  0.5030673609137964  0.37218226077903444  1.0000
  H   H24       1.0  0.9915083833259573  0.49693457417988895  0.6278217924237383  1.0000
  H   H25       1.0  0.5657328004068063  0.8803536867768713  0.6907361255585727  1.0000
  H   H26       1.0  0.4342666841633616  0.11964475185730096  0.3092609295368264  1.0000
  H   H27       1.0  0.2036958441716266  0.06105031173628113  0.4686185671641994  1.0000
  H   H28       1.0  0.7963010519655427  0.9389481469148535  0.5313794174463666  1.0000
  C   C1        1.0  0.10149771364251599  0.7100173058584505  0.23899930997891525  1.0000
  C   C2        1.0  0.8984992244481163  0.28998118081986496  0.761002785837313  1.0000
  C   C3        1.0  0.7693377975322164  0.6806941373513806  0.19866513624558726  1.0000
  C   C4        1.0  0.23066395390614505  0.3193031389680599  0.8013317236553946  1.0000
  C   C5        1.0  0.5907680877175991  0.5640849449683643  0.17397017669262027  1.0000
  C   C6        1.0  0.4092326963132465  0.4359134871607254  0.8260269275459038  1.0000
  C   C7        1.0  0.5564994043101735  0.49279089194206466  0.2984132792725306  1.0000
  C   C8        1.0  0.4434991835579539  0.5072133342522278  0.701589256145624  1.0000
  C   C9        1.0  0.7177962525655488  0.4316955012574867  0.33423810980319507  1.0000
  C   C10       1.0  0.28220331319845837  0.5683075761339611  0.6657652090788205  1.0000
  C   C11       1.0  0.8940241930679138  0.5520346806625157  0.3565006349147239  1.0000
  C   C12       1.0  0.10597667215677838  0.4479683902238422  0.6435027331104166  1.0000
  C   C13       1.0  0.38314806551800024  0.3670732675534438  0.2529648201183576  1.0000
  C   C14       1.0  0.6168508439149322  0.6329321009386037  0.7470369809790398  1.0000
  C   C15       1.0  0.22811804633150268  0.9268074168133611  0.6810679437575615  1.0000
  C   C16       1.0  0.7718807846206844  0.0731887302184973  0.318929552177913  1.0000
  C   C17       1.0  0.37054964126774353  0.9673032407240926  0.590266240059556  1.0000
  C   C18       1.0  0.629445312279131  0.03269293983661471  0.40973316404937793  1.0000
  C   C19       1.0  0.5371506801349072  0.9323830324803809  0.6069299518885957  1.0000
  C   C20       1.0  0.4628478475161161  0.06761656897023022  0.3930683753457629  1.0000
  C   C21       1.0  0.33428499217158963  0.03544847520028331  0.4827219113127653  1.0000
  C   C22       1.0  0.6657112398592346  0.9645476848417474  0.517275486336466  1.0000
  N   N1        1.0  0.9185766435151025  0.6083924318187216  0.2257853539051382  1.0000
  N   N2        1.0  0.08142581398306703  0.39160717113700383  0.7742162041628404  1.0000
  O   O1        1.0  0.05612973093400356  0.651323405042348  0.9479065698572954  1.0000
  O   O2        1.0  0.9438707629971432  0.3486739058093562  0.05209435210622359  1.0000
  O   O3        1.0  0.058654773692396196  0.9142812869639417  0.08772955263304996  1.0000
  O   O4        1.0  0.9413434533705569  0.08571718620249413  0.9122715645248861  1.0000
  O   O5        1.0  0.3545689692165155  0.827470622778023  0.09530458784976045  1.0000
  O   O6        1.0  0.6454308683835565  0.1725289791742952  0.9046948163291403  1.0000
  O   O7        1.0  0.37581649547217216  0.24510482688950228  0.1516169991774703  1.0000
  O   O8        1.0  0.6241807929352704  0.7548994058098727  0.8483854870975591  1.0000
  O   O9        1.0  0.24518421078557406  0.38931027606632557  0.31408353179485726  1.0000
  O   O10       1.0  0.7548173604989259  0.6106951214563168  0.6859245343972873  1.0000
  O   O11       1.0  0.06523825050675218  0.8895910282124718  0.6262731784782076  1.0000
  O   O12       1.0  0.9347596025495547  0.1104062676222384  0.3737235339933989  1.0000
  O   O13       1.0  0.2691809546718958  0.925860833676872  0.810567138980268  1.0000
  O   O14       1.0  0.7308149243290244  0.0741341630470203  0.1894279095854685  1.0000
