data_image0
_chemical_formula_structural       Cu2H40C36N8O8
_chemical_formula_sum              "Cu2 H40 C36 N8 O8"
_cell_length_a       7.614879242573155
_cell_length_b       11.059343730500462
_cell_length_c       11.151318701556326
_cell_angle_alpha    92.87663980842952
_cell_angle_beta     93.36129398033957
_cell_angle_gamma    106.70918362633797

_space_group_name_H-M_alt    "P 1"
_space_group_IT_number       1

loop_
  _space_group_symop_operation_xyz
  'x, y, z'

loop_
  _atom_site_type_symbol
  _atom_site_label
  _atom_site_symmetry_multiplicity
  _atom_site_fract_x
  _atom_site_fract_y
  _atom_site_fract_z
  _atom_site_occupancy
  Cu  Cu1       1.0  0.9999969072646878  0.4999987122124949  0.5000001755980107  1.0000
  Cu  Cu2       1.0  0.0  0.0  0.0  1.0000
  H   H1        1.0  0.6841186516823898  0.25057453464651047  0.5611482404718942  1.0000
  H   H2        1.0  0.31587816639876837  0.7494244405298575  0.4388551204309437  1.0000
  H   H3        1.0  0.9469972522545833  0.05876583350426051  0.29181723361214296  1.0000
  H   H4        1.0  0.05300216173583307  0.9412331648128645  0.7081817365473241  1.0000
  H   H5        1.0  0.44083188324074746  0.4665655289607784  0.8971774653112377  1.0000
  H   H6        1.0  0.5591713115211407  0.533436333389652  0.1028208887463435  1.0000
  H   H7        1.0  0.3512569882302686  0.5981588040121509  0.8994338623108787  1.0000
  H   H8        1.0  0.6487458510753541  0.4018421134740465  0.10056712106717919  1.0000
  H   H9        1.0  0.5859984754618781  0.6186878871612153  0.8700113720323301  1.0000
  H   H10       1.0  0.41400167678570915  0.381313002338196  0.1299850308560835  1.0000
  H   H11       1.0  0.028139193531210135  0.15635669331337712  0.6740089639405582  1.0000
  H   H12       1.0  0.971865877112528  0.8436433019647398  0.32598936089132013  1.0000
  H   H13       1.0  0.2485169089355922  0.46185310806985314  0.7049838404825906  1.0000
  H   H14       1.0  0.7514785701739798  0.5381458533554168  0.2950176787370751  1.0000
  H   H15       1.0  0.3845771103221198  0.6149007329474544  0.6777398946631407  1.0000
  H   H16       1.0  0.6154174035018941  0.3850991605601735  0.3222589477994688  1.0000
  H   H17       1.0  0.7240313091378283  0.6373607168397656  0.6209256239360812  1.0000
  H   H18       1.0  0.2759627854257759  0.36263822841139876  0.3790695679839047  1.0000
  H   H19       1.0  0.37042824694777476  0.27263524836146064  0.6651207955764774  1.0000
  H   H20       1.0  0.6295672503915528  0.727363714033018  0.33488251788978823  1.0000
  H   H21       1.0  0.4092561778819006  0.9614665345171647  0.39028409602407516  1.0000
  H   H22       1.0  0.5907462512781907  0.038533435197173616  0.6097141339346521  1.0000
  H   H23       1.0  0.37104555642152803  0.11105601826571389  0.41467904984932585  1.0000
  H   H24       1.0  0.6289578562538695  0.888943020335475  0.5853236511130646  1.0000
  H   H25       1.0  0.5981188894910261  0.10196927041911862  0.3938655146271087  1.0000
  H   H26       1.0  0.4018841221537175  0.8980288208948225  0.6061353300392511  1.0000
  H   H27       1.0  0.7704240150315727  0.15642458503754855  0.1436931125024259  1.0000
  H   H28       1.0  0.22957752176198207  0.8435763206359682  0.8563096176856674  1.0000
  H   H29       1.0  0.9328994130348179  0.3918835853152275  0.7942126857639733  1.0000
  H   H30       1.0  0.0671026242094896  0.6081154375964601  0.20578458502203026  1.0000
  H   H31       1.0  0.060899722654888085  0.38108496003053477  0.1737030227239842  1.0000
  H   H32       1.0  0.9391009847327187  0.6189140496146663  0.8262933035021476  1.0000
  H   H33       1.0  0.6503035442695694  0.7682419308822903  0.03702010150196602  1.0000
  H   H34       1.0  0.3496943857547735  0.23175988130980588  0.9629798570559415  1.0000
  H   H35       1.0  0.3542666981402079  0.8097661715886916  0.1537559335076821  1.0000
  H   H36       1.0  0.6457329263119861  0.19023659921872854  0.8462432374129136  1.0000
  H   H37       1.0  0.455403631349519  0.16390745330267015  0.2048719853240897  1.0000
  H   H38       1.0  0.5445977239900374  0.8360962780584986  0.795129986452409  1.0000
  H   H39       1.0  0.27438549039251825  0.019821094989652004  0.19987890843490416  1.0000
  H   H40       1.0  0.7256154730312618  0.9801816895688661  0.8001221041688706  1.0000
  C   C1        1.0  0.6464744829563787  0.33414017719201183  0.588919598886136  1.0000
  C   C2        1.0  0.35352061335229473  0.6658578379152046  0.4110818582841063  1.0000
  C   C3        1.0  0.9689633129590477  0.032119592716632915  0.3829314893603239  1.0000
  C   C4        1.0  0.03104042782798197  0.9678803892949902  0.6170658909116823  1.0000
  C   C5        1.0  0.4452932494749789  0.5547722639529269  0.8549108872649  1.0000
  C   C6        1.0  0.554707312918133  0.44522957331834323  0.14508826904284428  1.0000
  C   C7        1.0  0.9873822030844653  0.12156906217168033  0.48003038931503994  1.0000
  C   C8        1.0  0.012621929618355033  0.8784318666425933  0.5199679501296899  1.0000
  C   C9        1.0  0.9719257499566967  0.250882945299928  0.4567827357734798  1.0000
  C   C10       1.0  0.028072370636522345  0.7491160416891135  0.5432188783193297  1.0000
  C   C11       1.0  0.0188484415075862  0.0887548894583432  0.5976317689505422  1.0000
  C   C12       1.0  0.981157021051928  0.9112460526224242  0.40236751505405977  1.0000
  C   C13       1.0  0.3868899448937811  0.5283330862981616  0.7210254094445006  1.0000
  C   C14       1.0  0.6131068276129812  0.4716658864551847  0.27897346584182964  1.0000
  C   C15       1.0  0.673651506056757  0.5352215972233906  0.61788461808775  1.0000
  C   C16       1.0  0.32634601382204664  0.46477926719685303  0.38211258705081963  1.0000
  C   C17       1.0  0.49134591644852327  0.3436397911809054  0.6407609018659384  1.0000
  C   C18       1.0  0.5086495626610485  0.6563591702443576  0.359240617353727  1.0000
  C   C19       1.0  0.4518286543541167  0.05990542635570511  0.3657492267111094  1.0000
  C   C20       1.0  0.5481745950970451  0.9400964389023443  0.6342545100862863  1.0000
  C   C21       1.0  0.9991382153704794  0.3734369047401672  0.9815816299609708  1.0000
  C   C22       1.0  0.0008632758486797123  0.6265639985103348  0.018416614610615115  1.0000
  C   C23       1.0  0.6979823136756453  0.05679199706079171  0.1264353647354284  1.0000
  C   C24       1.0  0.3020184666309832  0.9432070164612298  0.8735681384771253  1.0000
  C   C25       1.0  0.9616333779910349  0.44003561996380813  0.8841407166103535  1.0000
  C   C26       1.0  0.03836865013839495  0.559963402463275  0.11585565705235008  1.0000
  C   C27       1.0  0.03692480269802457  0.4340960076883037  0.0977946010763091  1.0000
  C   C28       1.0  0.9630772163165277  0.5659030142541823  0.9022008754630944  1.0000
  C   C29       1.0  0.6313633672211268  0.8542464886120413  0.07701641738173488  1.0000
  C   C30       1.0  0.3686372225166253  0.14575535011303492  0.9229854302959167  1.0000
  C   C31       1.0  0.9959292942015879  0.23761575882998195  0.959499910767171  1.0000
  C   C32       1.0  0.004069718758160169  0.7623822921998811  0.04049720309626542  1.0000
  C   C33       1.0  0.48574228385002993  0.8728251645342483  0.13431934906449067  1.0000
  C   C34       1.0  0.5142583150026  0.12717667467542526  0.865683395736461  1.0000
  C   C35       1.0  0.4188264991923703  0.06590167082929103  0.23081777292208724  1.0000
  C   C36       1.0  0.581176358343008  0.9340992476261081  0.7691850047025781  1.0000
  N   N1        1.0  0.5110538543244232  0.4715573673777558  0.6584646269322717  1.0000
  N   N2        1.0  0.48894065038471274  0.5284425256452607  0.34153331840704476  1.0000
  N   N3        1.0  0.7592736089564911  0.45441164732225303  0.5746183073669754  1.0000
  N   N4        1.0  0.24072013926571875  0.5455863535492754  0.4253804109967873  1.0000
  N   N5        1.0  0.529863792340791  0.0014725364830993981  0.16401543601291727  1.0000
  N   N6        1.0  0.4701411424233371  0.9985302869056838  0.8359866160238667  1.0000
  N   N7        1.0  0.7629495856149621  0.9697353043189312  0.07228172419680592  1.0000
  N   N8        1.0  0.23705101323766803  0.030266534890742495  0.927721020604146  1.0000
  O   O1        1.0  0.8995331747171281  0.271124102736927  0.3586532550609078  1.0000
  O   O2        1.0  0.10045836039672207  0.7288748213118909  0.6413499160956491  1.0000
  O   O3        1.0  0.03852105423108305  0.33725479121320495  0.544276416230133  1.0000
  O   O4        1.0  0.961475353704536  0.6627432361913039  0.455724191253374  1.0000
  O   O5        1.0  0.9344426427208891  0.17994763142350936  0.8590442696473912  1.0000
  O   O6        1.0  0.06555940363828948  0.8200513919727827  0.1409538982619196  1.0000
  O   O7        1.0  0.056800324336698835  0.18648920274930703  0.0490162661616864  1.0000
  O   O8        1.0  0.9431972137718676  0.8135116626401385  0.9509827332234905  1.0000
