data_image0
_chemical_formula_structural       K4H20C24S4O14
_chemical_formula_sum              "K4 H20 C24 S4 O14"
_cell_length_a       5.741202170758723
_cell_length_b       10.083611540290887
_cell_length_c       14.617989317433876
_cell_angle_alpha    86.28323884898509
_cell_angle_beta     77.46293935771912
_cell_angle_gamma    73.49284756749094

_space_group_name_H-M_alt    "P 1"
_space_group_IT_number       1

loop_
  _space_group_symop_operation_xyz
  'x, y, z'

loop_
  _atom_site_type_symbol
  _atom_site_label
  _atom_site_symmetry_multiplicity
  _atom_site_fract_x
  _atom_site_fract_y
  _atom_site_fract_z
  _atom_site_occupancy
  K   K1        1.0  0.9236857566818911  0.6311194687982321  0.498711778929767  1.0000
  K   K2        1.0  0.5531121137534497  0.36818078671504406  0.4992955014967322  1.0000
  K   K3        1.0  0.5760302930869728  0.9988193965599449  0.6664449219209345  1.0000
  K   K4        1.0  0.16906171273583934  0.0001156413619299  0.49251837006184473  1.0000
  H   H1        1.0  0.7361215701667732  0.5816301756754498  0.8949796734024461  1.0000
  H   H2        1.0  0.3072559128773235  0.4233223323498548  0.8951062718878762  1.0000
  H   H3        1.0  0.779754267478502  0.5735605849621876  0.023511989184982016  1.0000
  H   H4        1.0  0.35393739097641236  0.4249299258697333  0.022506212047133503  1.0000
  H   H5        1.0  0.7090166644074287  0.9210145082545507  0.4268059454693401  1.0000
  H   H6        1.0  0.6298271090302947  0.0788476137924761  0.42689142201297164  1.0000
  H   H7        1.0  0.6768361745805648  0.5882197620881655  0.7340164361588608  1.0000
  H   H8        1.0  0.25580959994078967  0.41499678047283356  0.7341484705228185  1.0000
  H   H9        1.0  0.8389105991194299  0.5756437387571864  0.1844313454074396  1.0000
  H   H10       1.0  0.41535143377684147  0.4236703742180623  0.1833483180256152  1.0000
  H   H11       1.0  0.9130765007424486  0.8242199917499846  0.8235080397363888  1.0000
  H   H12       1.0  0.7409899925052981  0.1700579826733346  0.8245351415693707  1.0000
  H   H13       1.0  0.08073512098233256  0.8213298530147737  0.2711957346684458  1.0000
  H   H14       1.0  0.8957772518054198  0.1818646569186129  0.2725985628642249  1.0000
  H   H15       1.0  0.9660708703109289  0.8138295199970003  0.9859308328659325  1.0000
  H   H16       1.0  0.7842947424432579  0.1811075940541755  0.9864797156594136  1.0000
  H   H17       1.0  0.019376910944196007  0.8224872195791164  0.11113984940894284  1.0000
  H   H18       1.0  0.8334479770388441  0.1811176742414418  0.1128949351459383  1.0000
  H   H19       1.0  0.41912458976058514  0.919926745929267  0.8938367019921929  1.0000
  H   H20       1.0  0.3212072472897772  0.07903238569302569  0.8907214830579948  1.0000
  C   C1        1.0  0.35757110617844035  0.6994244510043757  0.9551661484779361  1.0000
  C   C2        1.0  0.05369375495069314  0.300781544408636  0.9555697026264627  1.0000
  C   C3        1.0  0.39513827155753495  0.6996749118761656  0.05250910561888131  1.0000
  C   C4        1.0  0.09118744821759608  0.301145906544555  0.052858977756194706  1.0000
  C   C5        1.0  0.5534954030921638  0.6350280834222133  0.881363181815239  1.0000
  C   C6        1.0  0.1815378255006124  0.3673831355047739  0.8816807182539963  1.0000
  C   C7        1.0  0.6249516549271802  0.6305813502347846  0.07625620531684521  1.0000
  C   C8        1.0  0.25405701284152116  0.36924101197651993  0.07587610113509413  1.0000
  C   C9        1.0  0.5220377863648834  0.6387328367632604  0.7894309753613487  1.0000
  C   C10       1.0  0.15446274287673123  0.36281625672312157  0.7897709752667057  1.0000
  C   C11       1.0  0.6608176645201881  0.631261045230886  0.1674068575914092  1.0000
  C   C12       1.0  0.2910648315801154  0.368810099665346  0.1669532616886968  1.0000
  C   C13       1.0  0.2911626510654982  0.707945094418953  0.768348489201955  1.0000
  C   C14       1.0  0.9967461606713709  0.2908169250095797  0.7688525875815986  1.0000
  C   C15       1.0  0.4654799334473764  0.7020554329431974  0.23727625634464294  1.0000
  C   C16       1.0  0.1651447215679198  0.2989015151440952  0.23744217008622576  1.0000
  C   C17       1.0  0.09247004461265362  0.7700966191575205  0.8398123008240291  1.0000
  C   C18       1.0  0.8635604891546649  0.22639542947930372  0.8403635969082333  1.0000
  C   C19       1.0  0.23516127490093205  0.7700555169948372  0.21615896533305098  1.0000
  C   C20       1.0  0.0002582715137152349  0.23215803956646397  0.21706497408325026  1.0000
  C   C21       1.0  0.12558175690493562  0.7649084723570211  0.9318743525591772  1.0000
  C   C22       1.0  0.8916352671509175  0.23208974468030868  0.9323853713192352  1.0000
  C   C23       1.0  0.20184232687905274  0.7687953864951993  0.12480702293697025  1.0000
  C   C24       1.0  0.9647957473272653  0.233493339406003  0.12582157815439396  1.0000
  S   S1        1.0  0.2620878298242816  0.7212289486192984  0.6488503125305911  1.0000
  S   S2        1.0  0.982100522382879  0.27728575838498415  0.6493193490228253  1.0000
  S   S3        1.0  0.5092616585326369  0.7090988701493899  0.3535865171172503  1.0000
  S   S4        1.0  0.21679839290427338  0.29164859154028017  0.35368037696060384  1.0000
  O   O1        1.0  0.4618956425992663  0.0018601179804421  0.8640337386607941  1.0000
  O   O2        1.0  0.7040085560436395  0.9997524472516586  0.46491519138268705  1.0000
  O   O3        1.0  0.29669860500366235  0.580801947033244  0.6172079656258022  1.0000
  O   O4        1.0  0.8784064131867808  0.4178467828120417  0.6169189039043985  1.0000
  O   O5        1.0  0.25746475521108886  0.757325520408422  0.411262806962526  1.0000
  O   O6        1.0  0.012670759472072664  0.24385645164429803  0.41173606048107575  1.0000
  O   O7        1.0  0.46064642120499144  0.7830251982896713  0.6009099393549917  1.0000
  O   O8        1.0  0.24241333764231843  0.21497866471537466  0.6019735391117181  1.0000
  O   O9        1.0  0.6528812497464642  0.8107705848253416  0.3501839137390449  1.0000
  O   O10       1.0  0.4611511460640401  0.18939288051665668  0.350600473719517  1.0000
  O   O11       1.0  0.01310137361880946  0.8131723579999104  0.646799330039599  1.0000
  O   O12       1.0  0.8241159642794996  0.1857741430849487  0.6473176141796275  1.0000
  O   O13       1.0  0.6478811644368888  0.5703918552225106  0.37788454387398224  1.0000
  O   O14       1.0  0.21865249765607334  0.4301261611616595  0.37726637843348954  1.0000
