data_image0
_chemical_formula_structural       Ag2H14C16S2N6O6
_chemical_formula_sum              "Ag2 H14 C16 S2 N6 O6"
_cell_length_a       5.557597564256652
_cell_length_b       10.459156885299787
_cell_length_c       12.482703615923333
_cell_angle_alpha    105.5221358169621
_cell_angle_beta     98.76947549174045
_cell_angle_gamma    96.18743180184646

_space_group_name_H-M_alt    "P 1"
_space_group_IT_number       1

loop_
  _space_group_symop_operation_xyz
  'x, y, z'

loop_
  _atom_site_type_symbol
  _atom_site_label
  _atom_site_symmetry_multiplicity
  _atom_site_fract_x
  _atom_site_fract_y
  _atom_site_fract_z
  _atom_site_occupancy
  Ag  Ag1       1.0  0.9162135522927881  0.9352407008832843  0.08034941140532238  1.0000
  Ag  Ag2       1.0  0.083794528434801  0.06475657939889601  0.9196526766022899  1.0000
  H   H1        1.0  0.3211882299988033  0.9193509722781028  0.7152636323611644  1.0000
  H   H2        1.0  0.6788153787841438  0.08065028275481721  0.2847406155162915  1.0000
  H   H3        1.0  0.3071896739716991  0.6866471219922518  0.583484522117331  1.0000
  H   H4        1.0  0.692802046754494  0.313357897744254  0.4165141415692092  1.0000
  H   H5        1.0  0.990423686269942  0.5006176153639287  0.5991002118092439  1.0000
  H   H6        1.0  0.009569332777090269  0.49938537921226367  0.40089569972536765  1.0000
  H   H7        1.0  0.4980945185654662  0.5569196042133624  0.8252117484575051  1.0000
  H   H8        1.0  0.5019049206718266  0.44307957023830363  0.1747901765058089  1.0000
  H   H9        1.0  0.461534227448915  0.6407713174109304  0.9654831009463507  1.0000
  H   H10       1.0  0.5384675181881703  0.3592298752281594  0.03451860730785232  1.0000
  H   H11       1.0  0.8000305595953775  0.40949285986594924  0.7975103510003692  1.0000
  H   H12       1.0  0.19997020227697243  0.5905043157775154  0.20249043143252274  1.0000
  H   H13       1.0  0.8506752113282302  0.689021262074256  0.1265287891722053  1.0000
  H   H14       1.0  0.14932215529334056  0.31097688526283207  0.873472779144784  1.0000
  C   C1        1.0  0.19594474639762882  0.8330362620555359  0.7179606481908394  1.0000
  C   C2        1.0  0.8040532651183695  0.16697191808101758  0.2820439142991873  1.0000
  C   C3        1.0  0.18426252946733254  0.7052153827333214  0.6441310978996669  1.0000
  C   C4        1.0  0.8157297274419333  0.29478457274403513  0.35586250964745153  1.0000
  C   C5        1.0  0.010814244837121074  0.6040457181917701  0.6529176242599348  1.0000
  C   C6        1.0  0.989174338736589  0.3959612906633296  0.3470828615767871  1.0000
  C   C7        1.0  0.8892445322539613  0.7511470653005361  0.7973162744258177  1.0000
  C   C8        1.0  0.1107558907480666  0.24885612614675517  0.2026865763588006  1.0000
  C   C9        1.0  0.5950492344341922  0.6189912951570306  0.9092558455669746  1.0000
  C   C10       1.0  0.4049520071634162  0.3810078758081871  0.09074459496581971  1.0000
  C   C11       1.0  0.802447416174509  0.5571057446644473  0.956251665642107  1.0000
  C   C12       1.0  0.1975538497373108  0.442893452652882  0.04375038451219381  1.0000
  C   C13       1.0  0.8878567911438962  0.44954197358186554  0.8863517838010039  1.0000
  C   C14       1.0  0.11214055116345628  0.5504561474031108  0.11364817489447183  1.0000
  C   C15       1.0  0.9164345073959196  0.6064191355059447  0.07061050728019316  1.0000
  C   C16       1.0  0.0835646859001926  0.3935790346968133  0.9293911862277896  1.0000
  S   S1        1.0  0.6917941874228147  0.7869617891930929  0.8958035297291077  1.0000
  S   S2        1.0  0.30820758252848884  0.21303942979810842  0.10419978814660173  1.0000
  N   N1        1.0  0.8584523120023916  0.6268032229404384  0.7271557860752723  1.0000
  N   N2        1.0  0.14154888096678767  0.3731958953205562  0.27284143521449516  1.0000
  N   N3        1.0  0.05281336765192173  0.8561225794409635  0.7964993997145983  1.0000
  N   N4        1.0  0.947188132043976  0.14387760894921803  0.2035020770842735  1.0000
  N   N5        1.0  0.40513794271466  0.8675561863910843  0.15835602999305823  1.0000
  N   N6        1.0  0.5948664117212132  0.13244096910342756  0.8416409787680408  1.0000
  O   O1        1.0  0.26142896067046445  0.9036471172745166  0.2265649100388742  1.0000
  O   O2        1.0  0.7385747724825861  0.0963550102467536  0.7734315211863532  1.0000
  O   O3        1.0  0.3333454113141413  0.8506226113819081  0.052802000510986574  1.0000
  O   O4        1.0  0.6666597981886395  0.14937056315869776  0.9471950124305479  1.0000
  O   O5        1.0  0.6218544829134486  0.8504881531097296  0.19528603930518068  1.0000
  O   O6        1.0  0.3781499079937517  0.1495090419129497  0.8047133838881849  1.0000
