data_image0
_chemical_formula_structural       Zn16H8C96S16Br24O52
_chemical_formula_sum              "Zn16 H8 C96 S16 Br24 O52"
_cell_length_a       19.684830954441868
_cell_length_b       19.766469904692983
_cell_length_c       33.382906399832464
_cell_angle_alpha    78.93537390825594
_cell_angle_beta     79.17664290293536
_cell_angle_gamma    63.939591838826225

_space_group_name_H-M_alt    "P 1"
_space_group_IT_number       1

loop_
  _space_group_symop_operation_xyz
  'x, y, z'

loop_
  _atom_site_type_symbol
  _atom_site_label
  _atom_site_symmetry_multiplicity
  _atom_site_fract_x
  _atom_site_fract_y
  _atom_site_fract_z
  _atom_site_occupancy
  Zn  Zn1       1.0  0.055677126761303014  0.40028496153487947  0.4779440605479765  1.0000
  Zn  Zn2       1.0  0.985770019335071  0.4837792753585928  0.560217259178984  1.0000
  Zn  Zn3       1.0  0.058054654801374304  0.5615386867453721  0.4817725692178387  1.0000
  Zn  Zn4       1.0  0.9001367136248178  0.55503944388996  0.480156116933749  1.0000
  Zn  Zn5       1.0  0.6935174000219747  0.3496150502880652  0.272177665788604  1.0000
  Zn  Zn6       1.0  0.6907071963462459  0.1881761247099546  0.2661550178570452  1.0000
  Zn  Zn7       1.0  0.7694330530253097  0.2665032124712069  0.19006079085168895  1.0000
  Zn  Zn8       1.0  0.8472217733224384  0.19512331678571104  0.27158668093218113  1.0000
  Zn  Zn9       1.0  0.2649408820455648  0.7654533639927974  0.6898474905478269  1.0000
  Zn  Zn10      1.0  0.3499149092446885  0.6974393615558011  0.7711997939288796  1.0000
  Zn  Zn11      1.0  0.1917346479879285  0.8494782686093029  0.7708666851681587  1.0000
  Zn  Zn12      1.0  0.1922884075522902  0.687983764383702  0.7682581522992253  1.0000
  Zn  Zn13      1.0  0.5585609058799862  0.06254406219058228  0.9838683778597502  1.0000
  Zn  Zn14      1.0  0.4026535780564444  0.05259764229584367  0.9769395374789341  1.0000
  Zn  Zn15      1.0  0.5586463289546515  0.9005588403360033  0.979294151434161  1.0000
  Zn  Zn16      1.0  0.48004350876130536  0.9840022024696822  0.0599196079490625  1.0000
  H   H1        1.0  0.7497006125309014  0.4484338971448876  0.3489614943937627  1.0000
  H   H2        1.0  0.999283113509243  0.3029562080417205  0.4009500237524507  1.0000
  H   H3        1.0  0.20101836530405856  0.6996590083303359  0.6023646112368939  1.0000
  H   H4        1.0  0.048989113752441006  0.5504830702081308  0.6475921831492288  1.0000
  H   H5        1.0  0.6471197281599218  0.1485758006035807  0.049553702254563306  1.0000
  H   H6        1.0  0.6032271348629266  0.10105224845167972  0.20048635104085127  1.0000
  H   H7        1.0  0.3046355892769057  0.9981552452552974  0.9011955635436026  1.0000
  H   H8        1.0  0.4466298891946892  0.7504485942478779  0.8487901844879249  1.0000
  C   C1        1.0  0.061835410484881906  0.3167272388089373  0.5618112647065845  1.0000
  C   C2        1.0  0.06992893500257943  0.5712668448130315  0.5676767095532044  1.0000
  C   C3        1.0  0.18335169491714257  0.4398290310487668  0.4384013572317473  1.0000
  C   C4        1.0  0.9354430633645522  0.6842146884796914  0.43874203581901133  1.0000
  C   C5        1.0  0.9293954688620477  0.4318147868463167  0.43132216346307223  1.0000
  C   C6        1.0  0.8176655708715546  0.5608822874151042  0.5631853095151842  1.0000
  C   C7        1.0  0.5661932180590342  0.30931013464969925  0.31120998106329983  1.0000
  C   C8        1.0  0.6835609201357116  0.1803135113789763  0.17990576879374492  1.0000
  C   C9        1.0  0.6897609568646814  0.43328988691805376  0.18841946984304062  1.0000
  C   C10       1.0  0.9354353648936353  0.18796452499572783  0.18961719667450444  1.0000
  C   C11       1.0  0.8192151637358762  0.31896916998392266  0.31912535723298424  1.0000
  C   C12       1.0  0.8122774372469763  0.06559187187581729  0.3110007776645532  1.0000
  C   C13       1.0  0.4327149193601016  0.6896012109566384  0.6876220118991088  1.0000
  C   C14       1.0  0.31678683941025554  0.8219526617983629  0.8187107778761702  1.0000
  C   C15       1.0  0.18791697872458712  0.9327729261991208  0.6875705836556139  1.0000
  C   C16       1.0  0.0655918765990009  0.809171134210807  0.8111889987332932  1.0000
  C   C17       1.0  0.18018117679069695  0.6787472568754538  0.6822530615206902  1.0000
  C   C18       1.0  0.3155607104579445  0.5664021013630245  0.8115624936188087  1.0000
  C   C19       1.0  0.4368464262265661  0.18382989900807437  0.9385086721532193  1.0000
  C   C20       1.0  0.434705215986206  0.9270948816767232  0.9308880262973036  1.0000
  C   C21       1.0  0.684205739047883  0.9418830027642925  0.9392606593940445  1.0000
  C   C22       1.0  0.5606218546935509  0.816963392602261  0.062408241734338836  1.0000
  C   C23       1.0  0.566573454034895  0.06951170741622556  0.0701437476094711  1.0000
  C   C24       1.0  0.31421379862401017  0.06198959056891332  0.05945674392699372  1.0000
  C   C25       1.0  0.8981485591334464  0.4061272610435293  0.40230914250976485  1.0000
  C   C26       1.0  0.8506788790177922  0.3451795478358902  0.34775997531183134  1.0000
  C   C27       1.0  0.8267911084961667  0.4475541324869069  0.3872447161312707  1.0000
  C   C28       1.0  0.9221811542261094  0.3038109785079186  0.3627052398647734  1.0000
  C   C29       1.0  0.804655759530846  0.41673165145281343  0.3606194408948156  1.0000
  C   C30       1.0  0.9442680660517199  0.33465555290517535  0.3893459204022279  1.0000
  C   C31       1.0  0.0998308444363118  0.6005428719549781  0.5955285660767304  1.0000
  C   C32       1.0  0.15013054387234354  0.6496299101625026  0.654414873779537  1.0000
  C   C33       1.0  0.14339473725945603  0.643246249115762  0.5827399091994254  1.0000
  C   C34       1.0  0.1065524265493565  0.6069428404360124  0.6671966908870958  1.0000
  C   C35       1.0  0.1674225435587573  0.6667128964192128  0.6120362588163958  1.0000
  C   C36       1.0  0.0825263100902589  0.5834738623811404  0.6379076035916714  1.0000
  C   C37       1.0  0.30522251218594937  0.4538370886578277  0.4006100419248497  1.0000
  C   C38       1.0  0.4446526441622396  0.29493643785355766  0.3494891548702058  1.0000
  C   C39       1.0  0.2585002487077049  0.41570361461724276  0.41385346306504556  1.0000
  C   C40       1.0  0.4913433501920822  0.3330591016989357  0.33613381288027006  1.0000
  C   C41       1.0  0.37689903549265574  0.33885734373266974  0.37300769138726514  1.0000
  C   C42       1.0  0.3731011690164436  0.40986781405180744  0.3771662416525673  1.0000
  C   C43       1.0  0.7255269971275666  0.5756204195549655  0.6309262164068772  1.0000
  C   C44       1.0  0.5249393097622743  0.6737222664835796  0.6198949722453764  1.0000
  C   C45       1.0  0.7433989711604027  0.5848238413307457  0.5884920727135994  1.0000
  C   C46       1.0  0.5070652595281685  0.6648417142903041  0.6623549836525627  1.0000
  C   C47       1.0  0.604547191998485  0.6412120769215545  0.6084001757965326  1.0000
  C   C48       1.0  0.6459232502230989  0.608004951906437  0.6424080068716409  1.0000
  C   C49       1.0  0.07678812830597789  0.2246306289880095  0.6297339742205852  1.0000
  C   C50       1.0  0.17402207066850653  0.024622514692957478  0.6196029795658051  1.0000
  C   C51       1.0  0.0860665898745054  0.24244711180372033  0.5872399981391184  1.0000
  C   C52       1.0  0.1644612344193064  0.006925965101672183  0.6620901265570753  1.0000
  C   C53       1.0  0.1420811588358006  0.1039640722013644  0.6077479215073824  1.0000
  C   C54       1.0  0.10883788045450873  0.14528541446689044  0.6415389920059557  1.0000
  C   C55       1.0  0.8414314740132484  0.801891807259153  0.39693914989737084  1.0000
  C   C56       1.0  0.9060453975471532  0.948098966643158  0.3529535251502482  1.0000
  C   C57       1.0  0.9095572394926564  0.7587169535621712  0.41373907176198094  1.0000
  C   C58       1.0  0.8379318680393341  0.991154625273765  0.33608928213704564  1.0000
  C   C59       1.0  0.9074727604036212  0.8789945702814846  0.3750892088140604  1.0000
  C   C60       1.0  0.840186544239174  0.8708477266275734  0.3747376917010287  1.0000
  C   C61       1.0  0.6552580078634875  0.15325464148906315  0.15011764315180195  1.0000
  C   C62       1.0  0.5950990847192942  0.0963613110735578  0.0999319164472965  1.0000
  C   C63       1.0  0.6676152480578921  0.16669851069779168  0.10686019133235902  1.0000
  C   C64       1.0  0.5827868331643488  0.08292817853505584  0.14317522377006506  1.0000
  C   C65       1.0  0.6377167183078143  0.13836962509139994  0.08290036859480669  1.0000
  C   C66       1.0  0.6126819594298923  0.11121305568404682  0.1671459415290286  1.0000
  C   C67       1.0  0.6735276636189483  0.5250995034373671  0.1204073857320154  1.0000
  C   C68       1.0  0.5758587006046055  0.7251491335249937  0.13039345204286693  1.0000
  C   C69       1.0  0.6647241374511808  0.507489719711792  0.16293321577458636  1.0000
  C   C70       1.0  0.5849403712311771  0.7428330246022338  0.08789912723423042  1.0000
  C   C71       1.0  0.6081836870538737  0.6458334969389768  0.14226903258285262  1.0000
  C   C72       1.0  0.6412101066843191  0.6044235273841922  0.10851749687459034  1.0000
  C   C73       1.0  0.08289062563556371  0.12333996035229688  0.17751192699265064  1.0000
  C   C74       1.0  0.16666185410586826  0.12741469166642352  0.0716794401791248  1.0000
  C   C75       1.0  0.010393473885265802  0.1627789985125432  0.16513917254387425  1.0000
  C   C76       1.0  0.2391956766191541  0.08795822160105621  0.08396685633353233  1.0000
  C   C77       1.0  0.1096776476954986  0.1404393868196507  0.10575684185844385  1.0000
  C   C78       1.0  0.13994173177295013  0.11052185784203057  0.14345849960392343  1.0000
  C   C79       1.0  0.34378303110935354  0.8520184076040708  0.847691651154655  1.0000
  C   C80       1.0  0.4074995831533386  0.8965795479080825  0.902273114637197  1.0000
  C   C81       1.0  0.3033953985920874  0.9228462995681493  0.8628676971779545  1.0000
  C   C82       1.0  0.4477691308273748  0.8256500767190361  0.8872342621478568  1.0000
  C   C83       1.0  0.3355577051550896  0.9435506947663016  0.8894962423148914  1.0000
  C   C84       1.0  0.415657578325316  0.8049920397338393  0.8605519857765463  1.0000
  C   C85       1.0  0.4095280490571298  0.44762605785764714  0.8530586286418187  1.0000
  C   C86       1.0  0.3432238832316941  0.30248008072975796  0.8968784483486947  1.0000
  C   C87       1.0  0.3414709182550482  0.49151411721233257  0.836309519484516  1.0000
  C   C88       1.0  0.4112808695929075  0.25863076115319916  0.9136676525781485  1.0000
  C   C89       1.0  0.3425502868113668  0.37133034979322577  0.8747354025064313  1.0000
  C   C90       1.0  0.4102571941744202  0.37868625135945416  0.8751051357072019  1.0000
  C   C91       1.0  0.94372629853946  0.7958055882890133  0.8495629355529317  1.0000
  C   C92       1.0  0.8056290203144769  0.9557020846278305  0.9003505580996463  1.0000
  C   C93       1.0  0.9907391200654272  0.8334884853487241  0.8359393970035143  1.0000
  C   C94       1.0  0.758673468343602  0.9179896770828433  0.9140621968339393  1.0000
  C   C95       1.0  0.873070125245583  0.9112221405095509  0.8768344453544334  1.0000
  C   C96       1.0  0.8762244170958555  0.8402897709599484  0.8730336465200783  1.0000
  S   S1        1.0  0.2978382097462315  0.3258692088728026  0.3976878806879044  1.0000
  S   S2        1.0  0.4521491325922186  0.4228183491321784  0.3524148893988724  1.0000
  S   S3        1.0  0.6627255008243794  0.6329211777757353  0.5625838589465533  1.0000
  S   S4        1.0  0.5877639590070346  0.6166131394152143  0.688238632392981  1.0000
  S   S5        1.0  0.1340883047376309  0.16194262675223575  0.5617326664944571  1.0000
  S   S6        1.0  0.1165016038282829  0.0874449726806503  0.6875738551364139  1.0000
  S   S7        1.0  0.972167583507478  0.8025046048249106  0.4023340873628669  1.0000
  S   S8        1.0  0.7755474005087777  0.94717318605894  0.34737364085041383  1.0000
  S   S9        1.0  0.6165876209900959  0.5880718860990649  0.1883548900260835  1.0000
  S   S10       1.0  0.6331230759220503  0.6622510106054232  0.06244427055221286  1.0000
  S   S11       1.0  0.0119481330284685  0.18418430301216657  0.11186757842696692  1.0000
  S   S12       1.0  0.237691851459445  0.06685510651264079  0.13727792928499136  1.0000
  S   S13       1.0  0.2782708525590466  0.4483683092093143  0.8475380726009195  1.0000
  S   S14       1.0  0.4743960310936401  0.30180961857087835  0.9024668403140768  1.0000
  S   S15       1.0  0.9522106226549955  0.9235529348189213  0.8517502145312579  1.0000
  S   S16       1.0  0.7970684321201066  0.8280119895374225  0.8981445874758056  1.0000
  Br  Br1       1.0  0.7550169742454288  0.5454024802520507  0.40021517140914403  1.0000
  Br  Br2       1.0  0.9943278057699558  0.20621209124665538  0.3495333946258087  1.0000
  Br  Br3       1.0  0.1741691477106997  0.6724017083533552  0.527192285133424  1.0000
  Br  Br4       1.0  0.07617396970101  0.5773250924649246  0.7227482813966761  1.0000
  Br  Br5       1.0  0.7230996827169348  0.2221607352115029  0.0769634451783645  1.0000
  Br  Br6       1.0  0.5270344129358762  0.027790066159418765  0.17314599798081085  1.0000
  Br  Br7       1.0  0.20564149667957576  0.995842992720455  0.8497058446100926  1.0000
  Br  Br8       1.0  0.5455262132483155  0.7528030256930192  0.9004314551127596  1.0000
  Br  Br9       1.0  0.2862190972550779  0.5510787513172131  0.41088810175961754  1.0000
  Br  Br10      1.0  0.46359603054872883  0.1976438491683082  0.33932864215528724  1.0000
  Br  Br11      1.0  0.7940235119274206  0.5271925287276102  0.6704410143567474  1.0000
  Br  Br12      1.0  0.4566327132638861  0.7220764285185194  0.5802568482051955  1.0000
  Br  Br13      1.0  0.028628806409379603  0.2926566468596262  0.6691273935109054  1.0000
  Br  Br14      1.0  0.22210607945280006  0.9563264447232097  0.580357227414112  1.0000
  Br  Br15      1.0  0.7586376151615256  0.7767357470463234  0.4010520613776905  1.0000
  Br  Br16      1.0  0.9890052128321899  0.9730701518973887  0.34877702890587164  1.0000
  Br  Br17      1.0  0.7207121104195622  0.45692366036787735  0.0810567206665098  1.0000
  Br  Br18      1.0  0.5284364686791464  0.793432745113108  0.16966818679984644  1.0000
  Br  Br19      1.0  0.10784147446010191  0.08923269028608871  0.23154869408966772  1.0000
  Br  Br20      1.0  0.1414298067096667  0.1614735926482425  0.017679367959758004  1.0000
  Br  Br21      1.0  0.49292228801038374  0.4718737275955717  0.8488501134694604  1.0000
  Br  Br22      1.0  0.2593592383858336  0.27877894731476255  0.9014367931448108  1.0000
  Br  Br23      1.0  0.9620569791196942  0.6986550056555102  0.8394778063495353  1.0000
  Br  Br24      1.0  0.7872176471122858  0.05304180220697651  0.9101304891203059  1.0000
  O   O1        1.0  0.0007526316621451  0.4987105856027937  0.49983331581208296  1.0000
  O   O2        1.0  0.07768474374616122  0.31516500858244706  0.5228447820866508  1.0000
  O   O3        1.0  0.0344679737259241  0.5306707197895334  0.5852682371725351  1.0000
  O   O4        1.0  0.15417204849236302  0.5060823472933578  0.44933432220040015  1.0000
  O   O5        1.0  0.027627801596032998  0.375371071203645  0.5805280120141136  1.0000
  O   O6        1.0  0.15409542250340283  0.3914680714345236  0.44639468487981326  1.0000
  O   O7        1.0  0.0817576597338103  0.5888937500700707  0.5292222107308222  1.0000
  O   O8        1.0  0.0032054364879954005  0.6575829068102051  0.44852251328676845  1.0000
  O   O9        1.0  0.8872938667191832  0.49560954013085695  0.4439900906137383  1.0000
  O   O10       1.0  0.8892497373961206  0.6529208664512824  0.4485136712596615  1.0000
  O   O11       1.0  0.9959632681256282  0.3870745023787661  0.4409897867507624  1.0000
  O   O12       1.0  0.8772004983400807  0.5266264110031713  0.5815651517972498  1.0000
  O   O13       1.0  0.8151048445194463  0.5772908406737113  0.5242655708638184  1.0000
  O   O14       1.0  0.7482609694558492  0.2511744541303427  0.2502737207764839  1.0000
  O   O15       1.0  0.5954656916946632  0.3576588477426553  0.3037530560556263  1.0000
  O   O16       1.0  0.6656133713559812  0.16317218745854217  0.21807423685146435  1.0000
  O   O17       1.0  0.7265753762739566  0.374733514035945  0.16978947381506523  1.0000
  O   O18       1.0  0.5949676365304981  0.24375345090283648  0.2994146332097714  1.0000
  O   O19       1.0  0.6720952294846114  0.4347697437019701  0.2273297878379027  1.0000
  O   O20       1.0  0.722844681902153  0.21778609762354495  0.16504805554543367  1.0000
  O   O21       1.0  0.8781192646737426  0.22468008119880511  0.16919556941251568  1.0000
  O   O22       1.0  0.8606665768239383  0.25415114552087886  0.30753241389525954  1.0000
  O   O23       1.0  0.9336016708901482  0.171436655454684  0.22846563215898646  1.0000
  O   O24       1.0  0.7532106540846685  0.36397261272635717  0.3087878128454307  1.0000
  O   O25       1.0  0.7459407351507823  0.0913496937936385  0.29940081072725633  1.0000
  O   O26       1.0  0.8577309202470005  0.0977337347814568  0.3030372168044836  1.0000
  O   O27       1.0  0.25009102450525944  0.750329209616282  0.7502369008244758  1.0000
  O   O28       1.0  0.3735105741458398  0.7229403697317945  0.6689526558193537  1.0000
  O   O29       1.0  0.36311061517299253  0.7574499497512618  0.8073752167610311  1.0000
  O   O30       1.0  0.17033228327418473  0.9347243915597045  0.726449667456109  1.0000
  O   O31       1.0  0.4348282651700047  0.6749092087219707  0.7266056827299681  1.0000
  O   O32       1.0  0.223042089603652  0.873842094106621  0.669130698759169  1.0000
  O   O33       1.0  0.2507834968409384  0.8623124462217358  0.8078479381794  1.0000
  O   O34       1.0  0.09375596584531823  0.8584149774978796  0.8022809519316072  1.0000
  O   O35       1.0  0.1672086419749448  0.6621868621246206  0.7207206853559074  1.0000
  O   O36       1.0  0.0957427677808482  0.742342065385891  0.800961100982889  1.0000
  O   O37       1.0  0.21684921403915072  0.7181815129396938  0.6646463343214322  1.0000
  O   O38       1.0  0.360660058084612  0.5990031555345752  0.8028649366684636  1.0000
  O   O39       1.0  0.24843649673062634  0.5919978700703508  0.8010144073198407  1.0000
  O   O40       1.0  0.5006107448858117  0.9999281241732446  0.9997085978873064  1.0000
  O   O41       1.0  0.5027858755602425  0.15873573279969816  0.9505155588151482  1.0000
  O   O42       1.0  0.3894489260721415  0.9930092639903091  0.9407563468828642  1.0000
  O   O43       1.0  0.6557940961155142  0.8928248992661872  0.9474702704778084  1.0000
  O   O44       1.0  0.39216328926161736  0.15082583751272685  0.9458043342005529  1.0000
  O   O45       1.0  0.6548318286973753  0.007850673716752974  0.9505879628034394  1.0000
  O   O46       1.0  0.4996008286740194  0.8858934391053949  0.9429630405145918  1.0000
  O   O47       1.0  0.5806595025628241  0.8152033149651102  0.02365292466223681  1.0000
  O   O48       1.0  0.5277175454772376  0.03160235592017088  0.08498598479605593  1.0000
  O   O49       1.0  0.5221082159505173  0.8757475441136293  0.0806893605444117  1.0000
  O   O50       1.0  0.5839297005222548  0.08726217549848052  0.031973361530035  1.0000
  O   O51       1.0  0.31631598588175086  0.07588437995668329  0.0205053836434743  1.0000
  O   O52       1.0  0.37129643022509384  0.02702391676260865  0.08016918146942231  1.0000
