data_image0
_chemical_formula_structural       Sm4H24C12O36
_chemical_formula_sum              "Sm4 H24 C12 O36"
_cell_length_a       8.337897548250076
_cell_length_b       9.613724004621533
_cell_length_c       9.561413897104986
_cell_angle_alpha    89.9999640061416
_cell_angle_beta     89.99946750339569
_cell_angle_gamma    91.37908126968485

_space_group_name_H-M_alt    "P 1"
_space_group_IT_number       1

loop_
  _space_group_symop_operation_xyz
  'x, y, z'

loop_
  _atom_site_type_symbol
  _atom_site_label
  _atom_site_symmetry_multiplicity
  _atom_site_fract_x
  _atom_site_fract_y
  _atom_site_fract_z
  _atom_site_occupancy
  Sm  Sm1       1.0  0.7502643775418748  0.752727118391192  0.4938536545490921  1.0000
  Sm  Sm2       1.0  0.24973848775737648  0.7472714839233631  0.9938528597412033  1.0000
  Sm  Sm3       1.0  0.2497382516063951  0.24726826637172647  0.5061479197902019  1.0000
  Sm  Sm4       1.0  0.7502642325355141  0.2527291030393712  0.006149760466826102  1.0000
  H   H1        1.0  0.6481131898771224  0.7715767040844809  0.1861746720172661  1.0000
  H   H2        1.0  0.351884630360729  0.72842525422287  0.6861741071937786  1.0000
  H   H3        1.0  0.3518883491385409  0.2284249140899988  0.8138195812318898  1.0000
  H   H4        1.0  0.6481096930787018  0.2715752681142049  0.3138264213073469  1.0000
  H   H5        1.0  0.7492245246783825  0.9148759633005881  0.21590727750736965  1.0000
  H   H6        1.0  0.25077059609142077  0.5851269880613259  0.7159023728913781  1.0000
  H   H7        1.0  0.2507723072454908  0.08513082014162879  0.7840932509820391  1.0000
  H   H8        1.0  0.7492224731337985  0.41487040372571465  0.28409292626349014  1.0000
  H   H9        1.0  0.112306038985345  0.8858430044591826  0.45565682707430716  1.0000
  H   H10       1.0  0.8876912925464708  0.6141587101685956  0.9556593115182183  1.0000
  H   H11       1.0  0.887689502247433  0.11415856755134966  0.5443416096807924  1.0000
  H   H12       1.0  0.11231146422331759  0.3858439576757887  0.044340171077870104  1.0000
  H   H13       1.0  0.02218710186827619  0.8687335373224054  0.3081695942843936  1.0000
  H   H14       1.0  0.9778129914641694  0.631267289567475  0.808173433585516  1.0000
  H   H15       1.0  0.97780960245651  0.13126596304038426  0.6918288424665278  1.0000
  H   H16       1.0  0.022189692379832596  0.36873121651614577  0.19182709488234204  1.0000
  H   H17       1.0  0.7378938304632924  0.9293475064405994  0.7662286483205705  1.0000
  H   H18       1.0  0.26210794833560414  0.5706554513615313  0.2662303422395524  1.0000
  H   H19       1.0  0.26210652719669986  0.07065514293851288  0.23377188015564343  1.0000
  H   H20       1.0  0.7378923728474901  0.4293451171359307  0.7337733238486026  1.0000
  H   H21       1.0  0.8535365876380608  0.8023056371085387  0.7975028764985554  1.0000
  H   H22       1.0  0.1464660738122063  0.6976983399441535  0.2975033488540149  1.0000
  H   H23       1.0  0.14646496960204303  0.1976970215054975  0.2024924226206934  1.0000
  H   H24       1.0  0.8535355016355267  0.30230535910791895  0.7024961337465855  1.0000
  C   C1        1.0  0.5689043399544503  0.053535656459509084  0.4814578620634793  1.0000
  C   C2        1.0  0.4310943596521923  0.44646750245890116  0.9814607303354281  1.0000
  C   C3        1.0  0.431093673280273  0.9464700957740105  0.518544758162264  1.0000
  C   C4        1.0  0.5689059979685708  0.5535351469166442  0.018547119233744504  1.0000
  C   C5        1.0  0.9710997355661063  0.47677496940934827  0.4268794736945836  1.0000
  C   C6        1.0  0.028904146577779996  0.02321683468917969  0.9268837143451167  1.0000
  C   C7        1.0  0.028912070752760095  0.5231965590952328  0.5731137336502743  1.0000
  C   C8        1.0  0.9710952120437782  0.9767972502967264  0.0731199517435073  1.0000
  C   C9        1.0  0.4734400433320758  0.5194055473220017  0.4252394570400711  1.0000
  C   C10       1.0  0.5265479995718964  0.9805950826014038  0.9252300321023058  1.0000
  C   C11       1.0  0.526536104463858  0.48058443212310187  0.574772576111819  1.0000
  C   C12       1.0  0.4734537581930809  0.0194190208528227  0.0747663128836606  1.0000
  O   O1        1.0  0.711699065562655  0.010829734310171098  0.4886298752972281  1.0000
  O   O2        1.0  0.28830193807857546  0.4891723956577464  0.9886296923372061  1.0000
  O   O3        1.0  0.2883023822747717  0.9891666816614518  0.5113696073057314  1.0000
  O   O4        1.0  0.7116961480875331  0.5108375183370483  0.011370836146340902  1.0000
  O   O5        1.0  0.5272735949390539  0.17455478275412153  0.4474410641283982  1.0000
  O   O6        1.0  0.4727242514082518  0.3254473595818297  0.9474447031076281  1.0000
  O   O7        1.0  0.472733960016697  0.8254479220177656  0.552562601929985  1.0000
  O   O8        1.0  0.5272665644746795  0.6745583372538346  0.05256523824017731  1.0000
  O   O9        1.0  0.8613351204338501  0.5461681070115671  0.3705325846937697  1.0000
  O   O10       1.0  0.138667702696182  0.9538212420664891  0.8705440874645164  1.0000
  O   O11       1.0  0.1386612739914028  0.4538137058711553  0.6294637603220324  1.0000
  O   O12       1.0  0.8613446503950968  0.04618149962831099  0.12947317488998072  1.0000
  O   O13       1.0  0.03679235625803298  0.37194049770923937  0.3736693879627424  1.0000
  O   O14       1.0  0.9632156947699073  0.12805138584953107  0.8736691633942542  1.0000
  O   O15       1.0  0.9632063096947262  0.6280340505608561  0.6263206818231808  1.0000
  O   O16       1.0  0.03680042116012319  0.871960747513164  0.1263271815341938  1.0000
  O   O17       1.0  0.5454827729189446  0.6190631680459973  0.3665511678184786  1.0000
  O   O18       1.0  0.45451665843276606  0.8809355211813994  0.8665361001873964  1.0000
  O   O19       1.0  0.4545139677986826  0.3809384131908188  0.6334598193768457  1.0000
  O   O20       1.0  0.5454846982936701  0.1190556925934629  0.1334560613242814  1.0000
  O   O21       1.0  0.3579022773361871  0.4472121056803716  0.3724172105119621  1.0000
  O   O22       1.0  0.6420988085832634  0.052792208985223986  0.8724122977244806  1.0000
  O   O23       1.0  0.6420837404056102  0.5527935542318687  0.6275801804101562  1.0000
  O   O24       1.0  0.3579218503961812  0.9472053951517054  0.1275725426146295  1.0000
  O   O25       1.0  0.7040659905950902  0.828485187938618  0.2580895277313858  1.0000
  O   O26       1.0  0.29592624257281125  0.6715156230441647  0.7580863062471652  1.0000
  O   O27       1.0  0.29593907414547266  0.17151229617174119  0.741906817245422  1.0000
  O   O28       1.0  0.7040620649041216  0.3284838126934701  0.241908992926426  1.0000
  O   O29       1.0  0.0256215265454571  0.8329268017998287  0.4060452812928618  1.0000
  O   O30       1.0  0.9743763548506691  0.6670760015277393  0.9060491302367241  1.0000
  O   O31       1.0  0.9743716338187766  0.16707579218651594  0.5939521096011688  1.0000
  O   O32       1.0  0.0256263836890724  0.33292562587658364  0.09395035235969831  1.0000
  O   O33       1.0  0.8022875442491821  0.8551797800029701  0.7223886563803249  1.0000
  O   O34       1.0  0.1977134501036204  0.6448200898928748  0.2223897872446514  1.0000
  O   O35       1.0  0.1977163938426543  0.1448218566337331  0.27761082621125155  1.0000
  O   O36       1.0  0.8022832724287952  0.3551804509079445  0.7776128329876217  1.0000
