data_image0
_chemical_formula_structural       Mg4H60C76N8O22
_chemical_formula_sum              "Mg4 H60 C76 N8 O22"
_cell_length_a       11.850085226622937
_cell_length_b       18.503464606874594
_cell_length_c       18.910839068709222
_cell_angle_alpha    55.102716321790304
_cell_angle_beta     84.23121192249178
_cell_angle_gamma    70.81255115450365

_space_group_name_H-M_alt    "P 1"
_space_group_IT_number       1

loop_
  _space_group_symop_operation_xyz
  'x, y, z'

loop_
  _atom_site_type_symbol
  _atom_site_label
  _atom_site_symmetry_multiplicity
  _atom_site_fract_x
  _atom_site_fract_y
  _atom_site_fract_z
  _atom_site_occupancy
  Mg  Mg1       1.0  0.900506241014419  0.8403023966004074  0.3474424150579905  1.0000
  Mg  Mg2       1.0  0.09948010956576779  0.1597118548648808  0.6525438642323705  1.0000
  Mg  Mg3       1.0  0.6123085963932552  0.8474006530212749  0.3084209441768806  1.0000
  Mg  Mg4       1.0  0.3876875905187375  0.1525894953566862  0.691572310386995  1.0000
  H   H1        1.0  0.021327912417099554  0.865384454035535  0.11392235780401459  1.0000
  H   H2        1.0  0.978660355516254  0.13460974129903752  0.8860954545436924  1.0000
  H   H3        1.0  0.05693273122993498  0.9127240833666974  0.9634779602020203  1.0000
  H   H4        1.0  0.9430890292421167  0.08725115917623329  0.0365505457017434  1.0000
  H   H5        1.0  0.6833299718621292  0.9645838261296332  0.9080702556553959  1.0000
  H   H6        1.0  0.31669233035914596  0.03539735876100281  0.09192964310179969  1.0000
  H   H7        1.0  0.6492054310516834  0.9190472652601186  0.05852086245349867  1.0000
  H   H8        1.0  0.3508026722314241  0.08093564769872333  0.9414788453151388  1.0000
  H   H9        1.0  0.9614650081457441  0.07925846999317095  0.8167098285379661  1.0000
  H   H10       1.0  0.038528681548875406  0.9207380521558831  0.1832972779450517  1.0000
  H   H11       1.0  0.9600977011946129  0.07878914534243357  0.5992228646385838  1.0000
  H   H12       1.0  0.039884047927848984  0.921215809451276  0.40077027144248933  1.0000
  H   H13       1.0  0.04774503736858536  0.9452304479900775  0.6039348988454519  1.0000
  H   H14       1.0  0.9522555070062139  0.054787142638510006  0.3960356653213211  1.0000
  H   H15       1.0  0.03469195974560069  0.876687168011678  0.5260659758111287  1.0000
  H   H16       1.0  0.9653062933798607  0.12331122202938623  0.473928619094714  1.0000
  H   H17       1.0  0.7034606742550692  0.8403834528676484  0.6279697999516285  1.0000
  H   H18       1.0  0.29657772528815224  0.1595723890504601  0.37204777915004417  1.0000
  H   H19       1.0  0.7112835747617651  0.9127831152961362  0.7032316012133534  1.0000
  H   H20       1.0  0.2887503479389437  0.0871927693535852  0.2967663410746653  1.0000
  H   H21       1.0  0.5376425526252431  0.9559050914594921  0.6244020328312913  1.0000
  H   H22       1.0  0.4623647285901241  0.04409174276092641  0.375604780835836  1.0000
  H   H23       1.0  0.5651326994950379  0.8708398231857333  0.5552486666089677  1.0000
  H   H24       1.0  0.4348661211855358  0.1291394842778573  0.44477441909466353  1.0000
  H   H25       1.0  0.2128373755728317  0.8477929366361536  0.6128403129664901  1.0000
  H   H26       1.0  0.7871462424398034  0.1522104546922023  0.38717256574684455  1.0000
  H   H27       1.0  0.18774718734099588  0.9324947598637505  0.6819195844164626  1.0000
  H   H28       1.0  0.8122583598424667  0.06752268714602393  0.31808402154652526  1.0000
  H   H29       1.0  0.4931886857052699  0.8994837883694801  0.43331399165911205  1.0000
  H   H30       1.0  0.5068515272524223  0.1005169439826972  0.5667133506396025  1.0000
  H   H31       1.0  0.4742056029416871  0.6965997478666209  0.4073833889300147  1.0000
  H   H32       1.0  0.5257711034423879  0.3034533234297854  0.5925728229925864  1.0000
  H   H33       1.0  0.196288775791288  0.6841339440702614  0.46409376130622326  1.0000
  H   H34       1.0  0.8036892232352243  0.3158902898245799  0.5358986319597105  1.0000
  H   H35       1.0  0.14843996722344596  0.5440072467756849  0.5077112655177202  1.0000
  H   H36       1.0  0.8515184821019374  0.45603662439587117  0.492264613468734  1.0000
  H   H37       1.0  0.47252298385906494  0.3659719957907441  0.6841715919445475  1.0000
  H   H38       1.0  0.5274119389806485  0.6340419245331149  0.31583633090023255  1.0000
  H   H39       1.0  0.5242288344367693  0.506000144473191  0.6391380010527427  1.0000
  H   H40       1.0  0.4757195570558251  0.4939940509448277  0.3608848934170936  1.0000
  H   H41       1.0  0.8356282582281976  0.822298543320052  0.8179292080385634  1.0000
  H   H42       1.0  0.16440827922764356  0.1776627860255218  0.1820957379959793  1.0000
  H   H43       1.0  0.8335497397220663  0.8280118511616835  0.9066412979185114  1.0000
  H   H44       1.0  0.16650685103544297  0.17196055090384724  0.09337238840107179  1.0000
  H   H45       1.0  0.32128515630197535  0.7059664427590134  0.6827848588451674  1.0000
  H   H46       1.0  0.6787448328493683  0.2940276974846583  0.3172176641990916  1.0000
  H   H47       1.0  0.31169241212804616  0.6248043637638289  0.6661610222986524  1.0000
  H   H48       1.0  0.6883193580627349  0.3752045701973615  0.3338364176406329  1.0000
  H   H49       1.0  0.7530987337428313  0.7818942940719183  0.45589419705116535  1.0000
  H   H50       1.0  0.24689394530393824  0.21810393923259855  0.5441174051284745  1.0000
  H   H51       1.0  0.7845374258884728  0.7140281942134126  0.4180578977186471  1.0000
  H   H52       1.0  0.21546667640253495  0.28595524495407443  0.581947717665713  1.0000
  H   H53       1.0  0.4915907862162213  0.8241493139794259  0.22993216075952455  1.0000
  H   H54       1.0  0.5083225900648144  0.17587099295698042  0.770027647194112  1.0000
  H   H55       1.0  0.38868900657502775  0.8771488904494691  0.2582446820645855  1.0000
  H   H56       1.0  0.6113622245817183  0.1228924316773785  0.74176099274775  1.0000
  H   H57       1.0  0.9593429041291939  0.65848980819505  0.40770559708411713  1.0000
  H   H58       1.0  0.04065609484437959  0.34151184383767247  0.5922882865970889  1.0000
  H   H59       1.0  0.009395567273799043  0.7209569297847126  0.3242808487364711  1.0000
  H   H60       1.0  0.9905953293998733  0.2790482125459873  0.6757092673753603  1.0000
  C   C1        1.0  0.8085452659241738  0.8695172669517532  0.18369096973990645  1.0000
  C   C2        1.0  0.19145910286985668  0.13047034587841472  0.8163108483172578  1.0000
  C   C3        1.0  0.8326504069014574  0.8902437672257549  0.09539142785131101  1.0000
  C   C4        1.0  0.16735321601726122  0.10972417416613926  0.9046302900775767  1.0000
  C   C5        1.0  0.9476101417689332  0.8873173188234562  0.06845340824234107  1.0000
  C   C6        1.0  0.05238210639573988  0.11266333348671512  0.9315668982598095  1.0000
  C   C7        1.0  0.9675712614723582  0.9133740296950277  0.9843768895880344  1.0000
  C   C8        1.0  0.03245097321808999  0.08658911457794721  0.015646768645034097  1.0000
  C   C9        1.0  0.8727929375983761  0.9418821441744855  0.925360570639938  1.0000
  C   C10       1.0  0.12724945770528961  0.05807792753413571  0.07465762735024839  1.0000
  C   C11       1.0  0.7583060787914702  0.9412586622953399  0.953529350356298  1.0000
  C   C12       1.0  0.2417140152572657  0.05872288160990278  0.046476916737056215  1.0000
  C   C13       1.0  0.7385558067567145  0.9164780493471625  0.03730269412104565  1.0000
  C   C14       1.0  0.26145434891402886  0.0835044792696777  0.9627002164002786  1.0000
  C   C15       1.0  0.8926355974316775  0.9767581567908011  0.8340951072983385  1.0000
  C   C16       1.0  0.1073951670173372  0.023217038389390196  0.16591566755312206  1.0000
  C   C17       1.0  0.9397307583021542  0.049324967680185204  0.7864263176560723  1.0000
  C   C18       1.0  0.06029334016209722  0.9506580898055645  0.21358198845002352  1.0000
  C   C19       1.0  0.939509328059529  0.0480822680483968  0.6660350266171375  1.0000
  C   C20       1.0  0.06048503832033693  0.951906893727646  0.33396473601705157  1.0000
  C   C21       1.0  0.8943015639881012  0.9739443468761525  0.7067473379304373  1.0000
  C   C22       1.0  0.10572768109616959  0.026023326140951004  0.293260611852844  1.0000
  C   C23       1.0  0.8711956601111978  0.9353320144611886  0.7947836785306776  1.0000
  C   C24       1.0  0.12882427819668857  0.0646496597328365  0.20522094334332047  1.0000
  C   C25       1.0  0.8820891133545385  0.9332822894375501  0.6606958207162134  1.0000
  C   C26       1.0  0.11792622524296088  0.0666993905108697  0.3393044287850842  1.0000
  C   C27       1.0  0.9714267733345634  0.9226997059183403  0.6092738889787556  1.0000
  C   C28       1.0  0.02858884735598369  0.07728782229339261  0.3907174439601063  1.0000
  C   C29       1.0  0.963803363520604  0.8848276417973366  0.5648473737048219  1.0000
  C   C30       1.0  0.03619727948348127  0.11516211031032951  0.435146758456895  1.0000
  C   C31       1.0  0.8660856872648423  0.8560866911451583  0.569807709094391  1.0000
  C   C32       1.0  0.1339224973645798  0.1438902251593959  0.4301935377736399  1.0000
  C   C33       1.0  0.7782034190412259  0.8643474722815867  0.6224938715456573  1.0000
  C   C34       1.0  0.22181664733898998  0.13563307344387712  0.3775081480302375  1.0000
  C   C35       1.0  0.7847601222353828  0.9030538591614032  0.6664665215592931  1.0000
  C   C36       1.0  0.21525293899300382  0.0969500650978432  0.3335175189761585  1.0000
  C   C37       1.0  0.8499687525456918  0.8234574644681416  0.5156721484799078  1.0000
  C   C38       1.0  0.15002841900486164  0.17653896576819514  0.48432356632287105  1.0000
  C   C39       1.0  0.3377254862124275  0.008323210717001915  0.6915123529461054  1.0000
  C   C40       1.0  0.6622754422472071  0.99169052765739  0.30848405325095024  1.0000
  C   C41       1.0  0.36122400534794963  0.948723826350239  0.6581602410961692  1.0000
  C   C42       1.0  0.6387687290630524  0.051292812760444  0.3418406674712954  1.0000
  C   C43       1.0  0.46733379586900964  0.9311541381347722  0.622354047608745  1.0000
  C   C44       1.0  0.5326606638579178  0.06886070261083428  0.37765189250792724  1.0000
  C   C45       1.0  0.4824739991957684  0.8841691703284906  0.5834221125861561  1.0000
  C   C46       1.0  0.5175284486014107  0.11583568076235906  0.41659630732617353  1.0000
  C   C47       1.0  0.39182957519851397  0.8525059924074938  0.5798499219348726  1.0000
  C   C48       1.0  0.6081595424373774  0.1475077875061714  0.42014908735401224  1.0000
  C   C49       1.0  0.28592501150926347  0.8691606483032075  0.6170256306424661  1.0000
  C   C50       1.0  0.7140724904923772  0.13083908012917078  0.382987418300452  1.0000
  C   C51       1.0  0.2708124245590183  0.9169423446534992  0.6551809921405009  1.0000
  C   C52       1.0  0.7291922954468644  0.08306158318846713  0.3448297582866218  1.0000
  C   C53       1.0  0.4089868857821556  0.8059063496212532  0.5353148875920224  1.0000
  C   C54       1.0  0.5909978917114317  0.19410721889883578  0.46468249135641315  1.0000
  C   C55       1.0  0.46499790509051314  0.8390572469618576  0.45941849496649206  1.0000
  C   C56       1.0  0.5349921331477816  0.1609633790444605  0.5405842757103372  1.0000
  C   C57       1.0  0.45335631239922225  0.7274713174771109  0.4439524583038475  1.0000
  C   C58       1.0  0.5466120770242923  0.2725644619621974  0.5560347367383185  1.0000
  C   C59       1.0  0.3972315515011429  0.6876803863112783  0.5186264704783027  1.0000
  C   C60       1.0  0.6027450700147339  0.31234366734084773  0.4813698493188169  1.0000
  C   C61       1.0  0.3749341992935768  0.7262681719028167  0.5674177012233342  1.0000
  C   C62       1.0  0.6250648740576706  0.2737556003258561  0.4325683162389282  1.0000
  C   C63       1.0  0.3644414495357041  0.6043587378356249  0.5480656623088933  1.0000
  C   C64       1.0  0.6355603926522946  0.39564135760650754  0.4519378006662718  1.0000
  C   C65       1.0  0.2575448181248915  0.6146423109478577  0.5122194071072597  1.0000
  C   C66       1.0  0.7424404889072703  0.3853774094922641  0.4877736468665076  1.0000
  C   C67       1.0  0.22970600126933488  0.536196919795053  0.5370973361469565  1.0000
  C   C68       1.0  0.7702582245743982  0.46383543656339293  0.462878228034647  1.0000
  C   C69       1.0  0.3070060330329269  0.44629029553733796  0.59865245166705  1.0000
  C   C70       1.0  0.6929550276682264  0.5537371361571034  0.40133126812926884  1.0000
  C   C71       1.0  0.4123426803783515  0.4359599755230833  0.6362106808782996  1.0000
  C   C72       1.0  0.5876154695775426  0.5640509721442866  0.36378721909993333  1.0000
  C   C73       1.0  0.4408934885553392  0.5141768780536395  0.6112812392469634  1.0000
  C   C74       1.0  0.5590812034472845  0.4858186798102012  0.388731746681401  1.0000
  C   C75       1.0  0.28051818500391323  0.36263988426934907  0.619054696769332  1.0000
  C   C76       1.0  0.7194641230898283  0.6373652692196997  0.38093510503001937  1.0000
  N   N1        1.0  0.9642520351619835  0.0855856938480173  0.7037142105625873  1.0000
  N   N2        1.0  0.0357440634687477  0.9144060603735866  0.29628404426134825  1.0000
  N   N3        1.0  0.8343358699094804  0.8594132731817298  0.8418661416652923  1.0000
  N   N4        1.0  0.16570403515580517  0.14055771872479988  0.15814815257638773  1.0000
  N   N5        1.0  0.4887691216818766  0.8018694726338679  0.41362913417647473  1.0000
  N   N6        1.0  0.5112340218243361  0.19816439575082262  0.5863576082942641  1.0000
  N   N7        1.0  0.3230983184798929  0.6865332067985508  0.6422707018244435  1.0000
  N   N8        1.0  0.6769288758863186  0.3134765050312466  0.3577180876731346  1.0000
  O   O1        1.0  0.7010346870788168  0.8806712716058556  0.20118864625714397  1.0000
  O   O2        1.0  0.2989718379741361  0.11931602563930002  0.7988062550574071  1.0000
  O   O3        1.0  0.8987140587850604  0.8433613856981098  0.23480497109756732  1.0000
  O   O4        1.0  0.10128736290640458  0.1566439687960965  0.7651894148220248  1.0000
  O   O5        1.0  0.7577605491016328  0.7994685619419712  0.5237916131889834  1.0000
  O   O6        1.0  0.24223401798089836  0.20053228913550214  0.47620891009156435  1.0000
  O   O7        1.0  0.926922828182512  0.8252797188564145  0.4626206292680805  1.0000
  O   O8        1.0  0.07304311438296907  0.1747374571326858  0.5373553023692067  1.0000
  O   O9        1.0  0.760443268194777  0.7807353445533849  0.4010355081798947  1.0000
  O   O10       1.0  0.2395624261522187  0.2192523363329002  0.5989730512478245  1.0000
  O   O11       1.0  0.4583796664540784  0.8825923912028203  0.22581647762588367  1.0000
  O   O12       1.0  0.5416422446696528  0.1174206071760864  0.7741593900909008  1.0000
  O   O13       1.0  0.011347475617931459  0.6975049103041542  0.38580844872023323  1.0000
  O   O14       1.0  0.9886421543072857  0.30250435573529444  0.6141801513762246  1.0000
  O   O15       1.0  0.2311344243694933  0.034056701220968905  0.7079201270585641  1.0000
  O   O16       1.0  0.7688641004128911  0.9659734585283317  0.2920594156462356  1.0000
  O   O17       1.0  0.42323687993607007  0.0329549815682881  0.6974783273265003  1.0000
  O   O18       1.0  0.5767674957319996  0.967053120286792  0.3025201953405058  1.0000
  O   O19       1.0  0.18694659553813855  0.37698968437383945  0.578575808187601  1.0000
  O   O20       1.0  0.813045671755276  0.6230114030050943  0.42140570444430375  1.0000
  O   O21       1.0  0.35661166434854863  0.2820403623294254  0.6726240395591315  1.0000
  O   O22       1.0  0.6433668434726202  0.7179607528392465  0.32738040284120723  1.0000
