data_image0
_chemical_formula_structural       Ga6P8H26C18N2O24F2
_chemical_formula_sum              "Ga6 P8 H26 C18 N2 O24 F2"
_cell_length_a       8.344243022660473
_cell_length_b       11.762426710909466
_cell_length_c       11.752978996771194
_cell_angle_alpha    71.68210659153362
_cell_angle_beta     70.63595197002766
_cell_angle_gamma    77.17344476738151

_space_group_name_H-M_alt    "P 1"
_space_group_IT_number       1

loop_
  _space_group_symop_operation_xyz
  'x, y, z'

loop_
  _atom_site_type_symbol
  _atom_site_label
  _atom_site_symmetry_multiplicity
  _atom_site_fract_x
  _atom_site_fract_y
  _atom_site_fract_z
  _atom_site_occupancy
  Ga  Ga1       1.0  0.8738598589334149  0.5295972739905751  0.6952668811845012  1.0000
  Ga  Ga2       1.0  0.1261409761944137  0.47040283382962406  0.3047336698160804  1.0000
  Ga  Ga3       1.0  0.6568734787825932  0.839073111993706  0.48919917562236026  1.0000
  Ga  Ga4       1.0  0.34312608682765955  0.16092699703413166  0.5108008223321646  1.0000
  Ga  Ga5       1.0  0.5454774362214821  0.7144056315651782  0.879322379405792  1.0000
  Ga  Ga6       1.0  0.4545219628228099  0.28559538085304587  0.12067737342726292  1.0000
  P   P1        1.0  0.7574958285136546  0.45686159566391654  0.9890512200192203  1.0000
  P   P2        1.0  0.24250484004821266  0.5431394155466763  0.010949085859891667  1.0000
  P   P3        1.0  0.7494033163316731  0.5646668505174761  0.4580944583660766  1.0000
  P   P4        1.0  0.2505975198276289  0.4353332571127951  0.5419052416036008  1.0000
  P   P5        1.0  0.8806229570128397  0.7960060303046038  0.674470220013802  1.0000
  P   P6        1.0  0.1193778791464624  0.20399407732566738  0.32552947995586823  1.0000
  P   P7        1.0  0.3345968243816131  0.910793813866647  0.6897458383403217  1.0000
  P   P8        1.0  0.6654040117776887  0.08920629376362402  0.31025386162934854  1.0000
  H   H1        1.0  0.2115451696198606  0.8125479047291364  0.03576398540051432  1.0000
  H   H2        1.0  0.7884543959903924  0.18745220429870102  0.9642360125540105  1.0000
  H   H3        1.0  0.7190618100606302  0.7842467431372101  0.0231728670067426  1.0000
  H   H4        1.0  0.2809380886815376  0.2157515591098474  0.9768276211907149  1.0000
  H   H5        1.0  0.3336462159315873  0.9484756857116284  0.2951561787834008  1.0000
  H   H6        1.0  0.6663546212591882  0.05152442172870761  0.7048426701553652  1.0000
  H   H7        1.0  0.6416351341344041  0.8827151138650323  0.1996885418290119  1.0000
  H   H8        1.0  0.35836443457028383  0.11728499459300686  0.8003089030327926  1.0000
  H   H9        1.0  0.11045501696307979  0.9094859021416186  0.21345321800116313  1.0000
  H   H10       1.0  0.8895458191962221  0.0905142054886454  0.7865464819685071  1.0000
  H   H11       1.0  0.062271049325069286  0.8633008132079001  0.8326661463851364  1.0000
  H   H12       1.0  0.9377297868342326  0.13669929442236395  0.16733355358453383  1.0000
  H   H13       1.0  0.181855161060291  0.7454171596651168  0.763913889299914  1.0000
  H   H14       1.0  0.8181458406334913  0.254582044764696  0.23608690682213038  1.0000
  H   H15       1.0  0.13184706684145206  0.8827423120914093  0.5525217430302475  1.0000
  H   H16       1.0  0.868152665334762  0.11725689354604195  0.4474785000457401  1.0000
  H   H17       1.0  0.9843329316438203  0.9804533339724486  0.6369805580702772  1.0000
  H   H18       1.0  0.015668072112916303  0.019545870077500607  0.36301853598995837  1.0000
  H   H19       1.0  0.5647958940492117  0.5380961644422655  0.3552320193569756  1.0000
  H   H20       1.0  0.4352035049950801  0.4619048479759584  0.6447677334760868  1.0000
  H   H21       1.0  0.6359622151775569  0.3995317797574813  0.45105129536664623  1.0000
  H   H22       1.0  0.36403701626930035  0.6004701362410644  0.5489490633758506  1.0000
  H   H23       1.0  0.8895074980141261  0.4626746517268002  0.13718287583122193  1.0000
  H   H24       1.0  0.11049350471113689  0.5373245525130771  0.8628170692599183  1.0000
  H   H25       1.0  0.013505419547719565  0.3609639636558058  0.04756942182357449  1.0000
  H   H26       1.0  0.9864939794965725  0.6390370487624184  0.9524303310094878  1.0000
  C   C1        1.0  0.3011251403858566  0.830982517857933  0.07513545574657599  1.0000
  C   C2        1.0  0.6988756957734453  0.16901758977233783  0.9248642442230943  1.0000
  C   C3        1.0  0.5867775592489722  0.8144978496237987  0.06868011436953458  1.0000
  C   C4        1.0  0.41322233846172196  0.18550045281320143  0.9313212248588267  1.0000
  C   C5        1.0  0.36998815336607993  0.9045228107926139  0.21962415277203448  1.0000
  C   C6        1.0  0.6300123506927876  0.09547910342849522  0.7803742059237989  1.0000
  C   C7        1.0  0.5427404607824471  0.8685324063165896  0.16613346992410524  1.0000
  C   C8        1.0  0.45725816741067155  0.13146589732804162  0.8338673162581997  1.0000
  C   C9        1.0  0.24713300731274054  0.8846583436637943  0.1738257453510029  1.0000
  C   C10       1.0  0.7528678288465613  0.11534176396647675  0.8261739546186674  1.0000
  C   C11       1.0  0.1409545120177  0.8432201294829796  0.7438988826649079  1.0000
  C   C12       1.0  0.8590463231101211  0.1567799783372195  0.25610166833566683  1.0000
  C   C13       1.0  0.044242450914801175  0.88630966412331  0.6450831879557838  1.0000
  C   C14       1.0  0.9557585507789811  0.11368954030650263  0.3549176081662607  1.0000
  C   C15       1.0  0.5842414346147111  0.4946075654056019  0.4481855000790133  1.0000
  C   C16       1.0  0.4157565273145777  0.5053943518005823  0.5518143056174338  1.0000
  C   C17       1.0  0.941566617227295  0.4520585754545436  0.04136949515530826  1.0000
  C   C18       1.0  0.05843421790052623  0.5479415323656555  0.9586310558452664  1.0000
  N   N1        1.0  0.4678151367679818  0.7969427832036902  0.02380521355942018  1.0000
  N   N2        1.0  0.5321856993913202  0.20305732442658103  0.97619448641025  1.0000
  O   O1        1.0  0.4394166895183176  0.8672544537986229  0.7820884217524764  1.0000
  O   O2        1.0  0.5605828760919352  0.13274565522921483  0.21791157620204862  1.0000
  O   O3        1.0  0.6505100864002671  0.5805909437628572  0.9898942640992485  1.0000
  O   O4        1.0  0.34949074975903477  0.41940916386741384  0.010105435870428928  1.0000
  O   O5        1.0  0.7926362758811936  0.4936998107110214  0.5817141261922244  1.0000
  O   O6        1.0  0.20736328972905937  0.5063002983168163  0.4182858717623004  1.0000
  O   O7        1.0  0.8226157322584841  0.43287535336357763  0.857404187276323  1.0000
  O   O8        1.0  0.17738383232028807  0.5671247558541952  0.1425966617091062  1.0000
  O   O9        1.0  0.6668333831026843  0.3502055598127783  0.08197765154412913  1.0000
  O   O10       1.0  0.333166181476095  0.6497945494049944  0.9180231974413002  1.0000
  O   O11       1.0  0.7621497166770438  0.7907570090589362  0.806446893466443  1.0000
  O   O12       1.0  0.23784984893320882  0.20924309996890145  0.19355310448808172  1.0000
  O   O13       1.0  0.974955102098811  0.6712432866110947  0.6543318049971842  1.0000
  O   O14       1.0  0.025044463511442  0.3287568224167431  0.34566819295734047  1.0000
  O   O15       1.0  0.6666675574727421  0.6965981426333843  0.4565386918233257  1.0000
  O   O16       1.0  0.3333320081375107  0.3034019663944534  0.5434613061311993  1.0000
  O   O17       1.0  0.9035636985241028  0.5654344703362781  0.3427856517479951  1.0000
  O   O18       1.0  0.09643603365211112  0.4345647353011729  0.6572145913279996  1.0000
  O   O19       1.0  0.2820905307651672  0.05046159119436311  0.6663740465426286  1.0000
  O   O20       1.0  0.7179104709286153  0.9495376132354494  0.333626749579416  1.0000
  O   O21       1.0  0.7945409945078197  0.8656019606271317  0.56855465503002  1.0000
  O   O22       1.0  0.20545873766838701  0.1343972450103195  0.43144558804596755  1.0000
  O   O23       1.0  0.42734340574584456  0.8800365448617313  0.561867645241243  1.0000
  O   O24       1.0  0.5726561598644082  0.11996356416610612  0.43813235271328205  1.0000
  F   F1        1.0  0.6397915215277836  0.6390803963081026  0.7357319184344387  1.0000
  F   F2        1.0  0.36020804305099574  0.3609197129096628  0.2642689305509902  1.0000
