data_image0
_chemical_formula_structural       Mo6H14C16N6O18
_chemical_formula_sum              "Mo6 H14 C16 N6 O18"
_cell_length_a       3.6860156185995594
_cell_length_b       13.248523230511116
_cell_length_c       15.459928850976302
_cell_angle_alpha    111.64358249943041
_cell_angle_beta     96.85799575967076
_cell_angle_gamma    89.98351209078075

_space_group_name_H-M_alt    "P 1"
_space_group_IT_number       1

loop_
  _space_group_symop_operation_xyz
  'x, y, z'

loop_
  _atom_site_type_symbol
  _atom_site_label
  _atom_site_symmetry_multiplicity
  _atom_site_fract_x
  _atom_site_fract_y
  _atom_site_fract_z
  _atom_site_occupancy
  Mo  Mo1       1.0  0.4043925143736685  0.34027387739458  0.8057081988316742  1.0000
  Mo  Mo2       1.0  0.5956059224280494  0.6597261785417744  0.19429268463587596  1.0000
  Mo  Mo3       1.0  0.2780380037550216  0.3654652545402755  0.5573170608236354  1.0000
  Mo  Mo4       1.0  0.7219617150385458  0.6345249521871921  0.44267635266972155  1.0000
  Mo  Mo5       1.0  0.15397517288753446  0.3980629702421794  0.30672891739138214  1.0000
  Mo  Mo6       1.0  0.846024271385346  0.601943560884031  0.6932726600321928  1.0000
  H   H1        1.0  0.5242294630911956  0.3973531790384256  0.04799016521386072  1.0000
  H   H2        1.0  0.4757741782665406  0.602645282016681  0.9520116816358527  1.0000
  H   H3        1.0  0.301005651311101  0.1359078912072462  0.6004231751026057  1.0000
  H   H4        1.0  0.6989957670816266  0.8640937920339339  0.3995782875575458  1.0000
  H   H5        1.0  0.26597499467128205  0.9318889609059081  0.5316720171255085  1.0000
  H   H6        1.0  0.7340236970208665  0.0681127069264065  0.4683287143670612  1.0000
  H   H7        1.0  0.3203818959261965  0.830212588789415  0.641022088348521  1.0000
  H   H8        1.0  0.6796166834339203  0.16978823858742942  0.358977091811596  1.0000
  H   H9        1.0  0.40619260599420665  0.9347417135457619  0.8129080490474865  1.0000
  H   H10       1.0  0.5938057184754796  0.0652575019351218  0.18709128308761797  1.0000
  H   H11       1.0  0.48811569829168616  0.056900683055722795  0.9835899358105497  1.0000
  H   H12       1.0  0.5118907060382866  0.9430977105902583  0.016408736638886933  1.0000
  H   H13       1.0  0.561048613958242  0.2580820771094352  0.1273670199401522  1.0000
  H   H14       1.0  0.4389601317140403  0.7419139210029542  0.8726329371033259  1.0000
  C   C1        1.0  0.32307287653374317  0.08821529471177308  0.6450416237076342  1.0000
  C   C2        1.0  0.6769256967810902  0.9117855464680673  0.3549582073804558  1.0000
  C   C3        1.0  0.30391637308308356  0.97508542065097  0.6072874750482598  1.0000
  C   C4        1.0  0.6960795919084716  0.024916231772500897  0.3927125252767284  1.0000
  C   C5        1.0  0.3340443465792475  0.9185749625602425  0.6679110716099858  1.0000
  C   C6        1.0  0.6659515000349996  0.08142586321074669  0.33208802831052964  1.0000
  C   C7        1.0  0.38207809138057763  0.9769978037138499  0.7641356641006568  1.0000
  C   C8        1.0  0.6179177552336695  0.0230030220571393  0.23586343581986582  1.0000
  C   C9        1.0  0.39869742901769456  0.09062855175675817  0.7973242409509285  1.0000
  C   C10       1.0  0.6012985238833081  0.9093731282726976  0.2026770612300126  1.0000
  C   C11       1.0  0.447745842000387  0.1592354346821239  0.896476162240454  1.0000
  C   C12       1.0  0.5522553275471864  0.8407646228600852  0.10352480146669754  1.0000
  C   C13       1.0  0.4871581461843915  0.13599465187375867  0.9786928997722842  1.0000
  C   C14       1.0  0.5128453828413128  0.8640029687258703  0.021307395744983547  1.0000
  C   C15       1.0  0.5241891414268736  0.2364558728997892  0.05210685872338422  1.0000
  C   C16       1.0  0.4758115243851222  0.7635409470475024  0.947893758005762  1.0000
  N   N1        1.0  0.3694696214225884  0.1449085149645555  0.7379206379889143  1.0000
  N   N2        1.0  0.6305289458469829  0.8550923400182809  0.2620798440271627  1.0000
  N   N3        1.0  0.4604570447779395  0.26794360873024897  0.9197093677898496  1.0000
  N   N4        1.0  0.5395413920237784  0.732056447206105  0.08029151567770033  1.0000
  N   N5        1.0  0.5066294370268238  0.3131043702550755  0.01366053028203139  1.0000
  N   N6        1.0  0.49337694916732727  0.6868940647998938  0.9863400949513307  1.0000
  O   O1        1.0  0.3266543819802123  0.5615170777706666  0.6543391652627549  1.0000
  O   O2        1.0  0.673341956279074  0.4384870132012466  0.3456615834917259  1.0000
  O   O3        1.0  0.7961477487169902  0.4078218408296763  0.5933933919788006  1.0000
  O   O4        1.0  0.20385615962172207  0.5921782045153989  0.40660700103998  1.0000
  O   O5        1.0  0.3484074440504725  0.3583021059054446  0.6967418371907714  1.0000
  O   O6        1.0  0.6515909867059688  0.6416979638339056  0.3032596972047585  1.0000
  O   O7        1.0  0.2283379833237902  0.3978304039753836  0.45720797243710365  1.0000
  O   O8        1.0  0.7716603351006199  0.602168825308496  0.5427920106259734  1.0000
  O   O9        1.0  0.4467274111649998  0.4671021866314575  0.892667740774755  1.0000
  O   O10       1.0  0.5532709133046865  0.5328970288494262  0.10733159136034941  1.0000
  O   O11       1.0  0.10359726157945195  0.4245350437635194  0.20611025738513428  1.0000
  O   O12       1.0  0.8964014422032419  0.5754665964628103  0.7938891722514826  1.0000
  O   O13       1.0  0.9027484561467174  0.30720688289846265  0.8043365359815271  1.0000
  O   O14       1.0  0.09724998670026959  0.6927931592349026  0.19566369655804997  1.0000
  O   O15       1.0  0.25389985056297343  0.2272523533805355  0.5096730167860031  1.0000
  O   O16       1.0  0.7461016982976075  0.77275012890712  0.4903280444226682  1.0000
  O   O17       1.0  0.13372130966788376  0.25902987751014445  0.2653508911693407  1.0000
  O   O18       1.0  0.8662772696922261  0.7409709498667071  0.7346482889907835  1.0000
