data_image0
_chemical_formula_structural       Sr4H20C28N4O20
_chemical_formula_sum              "Sr4 H20 C28 N4 O20"
_cell_length_a       6.4612699130724
_cell_length_b       7.188659892073684
_cell_length_c       18.58610794209873
_cell_angle_alpha    89.99976066968247
_cell_angle_beta     90.00028799639212
_cell_angle_gamma    89.99954037402306

_space_group_name_H-M_alt    "P 1"
_space_group_IT_number       1

loop_
  _space_group_symop_operation_xyz
  'x, y, z'

loop_
  _atom_site_type_symbol
  _atom_site_label
  _atom_site_symmetry_multiplicity
  _atom_site_fract_x
  _atom_site_fract_y
  _atom_site_fract_z
  _atom_site_occupancy
  Sr  Sr1       1.0  0.5607500112945586  0.530979192829342  0.6930531698393168  1.0000
  Sr  Sr2       1.0  0.9392589412979929  0.4690190190248771  0.19305376382136072  1.0000
  Sr  Sr3       1.0  0.43924289620177587  0.030990144010644403  0.8069444495250053  1.0000
  Sr  Sr4       1.0  0.060750669840267287  0.9690215892496568  0.306945719913557  1.0000
  H   H1        1.0  0.9401287844571441  0.5729116912296845  0.4766025549063285  1.0000
  H   H2        1.0  0.5598749936025483  0.4270904458263517  0.9765978247166842  1.0000
  H   H3        1.0  0.05986114208968019  0.07291867409367822  0.0233981134931227  1.0000
  H   H4        1.0  0.44013140778042714  0.9270835696648516  0.5233991480185125  1.0000
  H   H5        1.0  0.5231025677546127  0.39009378848110277  0.3867050904036944  1.0000
  H   H6        1.0  0.9768999067717701  0.6099023538971337  0.886700788382555  1.0000
  H   H7        1.0  0.47689536544196187  0.8900982058714748  0.11329990252834682  1.0000
  H   H8        1.0  0.023104678798944196  0.10989194848706059  0.6132950880577752  1.0000
  H   H9        1.0  0.8875356347938775  0.33522335310786383  0.7886884834117751  1.0000
  H   H10       1.0  0.6124700615219041  0.6647724456416031  0.2886887264722873  1.0000
  H   H11       1.0  0.11246694236669436  0.8352251808844853  0.7113107914319413  1.0000
  H   H12       1.0  0.38753452306193037  0.16477644574219846  0.2113096398337646  1.0000
  H   H13       1.0  9.758802071499998e-05  0.4966296195288463  0.743787914626985  1.0000
  H   H14       1.0  0.49991053908056665  0.5033716599952668  0.2437869441003784  1.0000
  H   H15       1.0  0.9999004551265569  0.9966231693581095  0.7562110967222537  1.0000
  H   H16       1.0  0.500093936458647  0.0033729765164451997  0.2562106096235865  1.0000
  H   H17       1.0  0.6701580763311978  0.40889998726407834  0.5121085424382628  1.0000
  H   H18       1.0  0.8298451570691298  0.591095985123985  0.0121039041652864  1.0000
  H   H19       1.0  0.32983301039433843  0.9089014631142049  0.9878986826618074  1.0000
  H   H20       1.0  0.17016008425634507  0.0910902523194679  0.48789296831803597  1.0000
  C   C1        1.0  0.19394956389935905  0.5298169505342615  0.5494272999191239  1.0000
  C   C2        1.0  0.30605574481641173  0.47018779720362147  0.0494217415126386  1.0000
  C   C3        1.0  0.8060418063836251  0.0298153721053254  0.9505778538591018  1.0000
  C   C4        1.0  0.6939523081957614  0.9701898252623734  0.4505739740595089  1.0000
  C   C5        1.0  0.1018510650143014  0.5324342674500925  0.4814490263123544  1.0000
  C   C6        1.0  0.3981512221708313  0.4675658633593969  0.9814426673054159  1.0000
  C   C7        1.0  0.8981361269659087  0.0324422053903035  0.0185533222725027  1.0000
  C   C8        1.0  0.6018532707495438  0.9675564803149613  0.5185520872086186  1.0000
  C   C9        1.0  0.21916681127525808  0.4802185899143653  0.421636756216401  1.0000
  C   C10       1.0  0.2808315132456726  0.5197780068750717  0.9216301075580872  1.0000
  C   C11       1.0  0.780831866260712  0.980228141684634  0.0783680895824901  1.0000
  C   C12       1.0  0.7191676848905431  0.019769904764380897  0.5783648399320143  1.0000
  C   C13       1.0  0.4263291723604538  0.43026549921927437  0.4321464397295287  1.0000
  C   C14       1.0  0.07367394761903508  0.5697337673795956  0.9321431148232762  1.0000
  C   C15       1.0  0.5736699504536202  0.9302738767796511  0.0678611778009071  1.0000
  C   C16       1.0  0.9263263529809574  0.069721499811223  0.5678571314805225  1.0000
  C   C17       1.0  0.5078940900386826  0.4405936025012309  0.5014364259940222  1.0000
  C   C18       1.0  0.9921120839662975  0.5594052660852641  0.001432122186344  1.0000
  C   C19       1.0  0.49210445259662805  0.940595183861184  0.998569671299812  1.0000
  C   C20       1.0  0.007896535230713698  0.05939502641193431  0.49856641614778147  1.0000
  C   C21       1.0  0.0658109953276522  0.5650044205274511  0.616358332238164  1.0000
  C   C22       1.0  0.4341999269394704  0.43500795839000256  0.11635251650361061  1.0000
  C   C23       1.0  0.9341893474921362  0.06498454818922278  0.8836462260826607  1.0000
  C   C24       1.0  0.5657991535583946  0.9350088447564391  0.3836443325655949  1.0000
  C   C25       1.0  0.12430724743219908  0.47271862459886904  0.3477395515692479  1.0000
  C   C26       1.0  0.3756900055404344  0.5272759797666566  0.8477319798764285  1.0000
  C   C27       1.0  0.8756992353163111  0.9727378304033821  0.1522636923635474  1.0000
  C   C28       1.0  0.6243029349456107  0.0272858568330889  0.65226241731677  1.0000
  N   N1        1.0  0.395433430486598  0.4887236714510763  0.5592854093428201  1.0000
  N   N2        1.0  0.10457202120106499  0.5112767976912309  0.05928050886652159  1.0000
  N   N3        1.0  0.6045538493906761  0.9887194948194207  0.9407211474093627  1.0000
  N   N4        1.0  0.895437026964174  0.011270506016849402  0.4407175699986823  1.0000
  O   O1        1.0  0.16412946672502218  0.5864541978210269  0.676103022736207  1.0000
  O   O2        1.0  0.3358792265650904  0.4135491961302051  0.1760997608975146  1.0000
  O   O3        1.0  0.8358675894804292  0.08644262922029358  0.8238988103767042  1.0000
  O   O4        1.0  0.6641262359361447  0.913548620061661  0.3238960471375663  1.0000
  O   O5        1.0  0.8722344561210915  0.5662869036019418  0.6095550271975085  1.0000
  O   O6        1.0  0.6277624517642549  0.4337372400923272  0.109550293738522  1.0000
  O   O7        1.0  0.12774885078646034  0.0662519145836029  0.8904452247370712  1.0000
  O   O8        1.0  0.3722459261915887  0.9337311047160384  0.3904465574189757  1.0000
  O   O9        1.0  0.08207780079032288  0.6244064676605491  0.3160393706129057  1.0000
  O   O10       1.0  0.41790970639178937  0.3755940398295081  0.816032658154505  1.0000
  O   O11       1.0  0.9179163098734049  0.12440832185456686  0.1839665940912596  1.0000
  O   O12       1.0  0.5820677479848654  0.8755969426018098  0.6839660127246532  1.0000
  O   O13       1.0  0.09125697343370118  0.3145141614278444  0.3200603765297245  1.0000
  O   O14       1.0  0.408756902696254  0.685486302977871  0.8200569084524004  1.0000
  O   O15       1.0  0.9087478241506373  0.8145203131024135  0.1799431256825699  1.0000
  O   O16       1.0  0.5912578428850849  0.18548777645932543  0.6799377685230468  1.0000
  O   O17       1.0  0.8793848460308594  0.4672717117192065  0.774946922452358  1.0000
  O   O18       1.0  0.6206221987090428  0.5327242338779143  0.2749473952858921  1.0000
  O   O19       1.0  0.12061191107052589  0.9672747248978125  0.7250521368151013  1.0000
  O   O20       1.0  0.3793804675210238  0.0327267549062711  0.22505172462593484  1.0000
